REMARK  Name = ZINC00654590
REMARK  5 active torsions:
REMARK  status: ('A' for Active; 'I' for Inactive)
REMARK    1  A    between atoms: C_1  and  C_2
REMARK    2  A    between atoms: C_2  and  C_3
REMARK    3  A    between atoms: C_15  and  C_17
REMARK    4  A    between atoms: C_21  and  N_23
REMARK    5  A    between atoms: C_29  and  C_32
REMARK                            x       y       z     vdW  Elec       q    Type
REMARK                         _______ _______ _______ _____ _____    ______ ____
ROOT
ATOM      1  C   UNL     1       0.141   1.042   2.474  0.00  0.00    +0.220 C 
ATOM      2  O   UNL     1       1.112   0.317   2.418  0.00  0.00    -0.275 OA
ATOM      3  N   UNL     1      -0.366   1.397   3.671  0.00  0.00    -0.258 N 
ATOM      4  C   UNL     1      -1.484   2.232   3.723  0.00  0.00    +0.058 A 
ATOM      5  C   UNL     1      -1.431   3.541   3.271  0.00  0.00    +0.025 A 
ATOM      6  C   UNL     1      -2.552   4.345   3.384  0.00  0.00    +0.002 A 
ATOM      7  C   UNL     1      -3.715   3.850   3.946  0.00  0.00    +0.002 A 
ATOM      8  C   UNL     1      -3.776   2.538   4.382  0.00  0.00    +0.025 A 
ATOM      9  C   UNL     1      -2.662   1.726   4.250  0.00  0.00    +0.053 A 
ATOM     10  N   UNL     1      -2.689   0.374   4.568  0.00  0.00    -0.316 N 
ATOM     11  C   UNL     1      -1.934  -0.208   5.534  0.00  0.00    +0.017 C 
ATOM     12  C   UNL     1      -0.618  -0.008   5.708  0.00  0.00    +0.037 C 
ATOM     13  C   UNL     1       0.253   0.902   4.883  0.00  0.00    +0.147 C 
ATOM     14  C   UNL     1       0.079  -0.694   6.731  0.00  0.00    +0.163 C 
ATOM     15  O   UNL     1       1.266  -0.479   6.876  0.00  0.00    -0.292 OA
ATOM     16  C   UNL     1      -0.594  -1.674   7.644  0.00  0.00    +0.088 C 
ATOM     17  C   UNL     1      -1.795  -2.283   6.911  0.00  0.00    +0.032 C 
ATOM     18  C   UNL     1      -2.699  -1.135   6.465  0.00  0.00    +0.059 C 
ATOM     19  H   UNL     1      -3.290  -0.196   4.062  0.00  0.00    +0.152 HD
ENDROOT
BRANCH  13  20
ATOM     20  C   UNL     1       0.647   2.081   5.735  0.00  0.00    -0.020 A 
ATOM     21  C   UNL     1      -0.314   2.979   6.159  0.00  0.00    +0.006 A 
ATOM     22  C   UNL     1       0.048   4.061   6.940  0.00  0.00    +0.003 A 
ATOM     23  C   UNL     1       1.371   4.243   7.298  0.00  0.00    +0.033 A 
ATOM     24  C   UNL     1       2.331   3.344   6.875  0.00  0.00    +0.127 A 
ATOM     25  C   UNL     1       1.969   2.261   6.096  0.00  0.00    +0.038 A 
BRANCH  24  26
ATOM     26  N   UNL     1       3.748   3.540   7.258  0.00  0.00    +0.056 N 
ATOM     27  O   UNL     1       4.066   4.493   7.946  0.00  0.00    -0.126 OA
ATOM     28  O   UNL     1       4.594   2.748   6.885  0.00  0.00    -0.126 OA
ENDBRANCH  24  26
ENDBRANCH  13  20
BRANCH  17  29
ATOM     29  C   UNL     1      -2.550  -3.198   7.840  0.00  0.00    -0.044 A 
ATOM     30  C   UNL     1      -3.091  -2.701   9.011  0.00  0.00    +0.004 A 
ATOM     31  C   UNL     1      -3.788  -3.539   9.861  0.00  0.00    +0.000 A 
ATOM     32  C   UNL     1      -3.935  -4.877   9.545  0.00  0.00    +0.000 A 
ATOM     33  C   UNL     1      -3.389  -5.376   8.377  0.00  0.00    +0.000 A 
ATOM     34  C   UNL     1      -2.696  -4.536   7.525  0.00  0.00    +0.004 A 
ENDBRANCH  17  29
BRANCH   1  36
ATOM     35  C   UNL     1       0.267   0.999  -0.002  0.00  0.00    +0.013 C 
ATOM     36  C   UNL     1      -0.497   1.546   1.206  0.00  0.00    +0.093 C 
ENDBRANCH   1  36
TORSDOF 4
