REMARK  Name = ZINC44075123
REMARK  8 active torsions:
REMARK  status: ('A' for Active; 'I' for Inactive)
REMARK    1  A    between atoms: C_1  and  C_2
REMARK    2  A    between atoms: C_2  and  C_4
REMARK    3  A    between atoms: C_2  and  C_8
REMARK    4  A    between atoms: C_4  and  C_5
REMARK    5  A    between atoms: C_14  and  C_35
REMARK    6  A    between atoms: C_15  and  O_34
REMARK    7  A    between atoms: C_26  and  C_33
REMARK    8  A    between atoms: C_29  and  O_32
REMARK                            x       y       z     vdW  Elec       q    Type
REMARK                         _______ _______ _______ _____ _____    ______ ____
ROOT
ATOM      1  C   UNL     1       1.002  -0.396   1.276  0.00  0.00    +0.001 C 
ATOM      2  C   UNL     1       2.498  -0.004   1.359  0.00  0.00    +0.005 C 
ATOM      3  C   UNL     1       3.292  -1.332   1.498  0.00  0.00    +0.005 C 
ATOM      4  C   UNL     1       2.255  -2.291   2.093  0.00  0.00    +0.001 C 
ATOM      5  C   UNL     1       0.981  -1.921   1.282  0.00  0.00    +0.000 C 
ATOM      6  C   UNL     1      -0.201  -2.581   1.963  0.00  0.00    +0.121 C 
ATOM      7  C   UNL     1      -0.002  -4.102   1.854  0.00  0.00    +0.036 C 
ATOM      8  C   UNL     1       1.321  -4.535   2.475  0.00  0.00    +0.001 C 
ATOM      9  C   UNL     1       2.522  -3.769   1.883  0.00  0.00    -0.004 C 
ATOM     10  C   UNL     1       3.806  -4.184   2.602  0.00  0.00    +0.004 C 
ATOM     11  C   UNL     1       4.028  -5.688   2.422  0.00  0.00    +0.004 C 
ATOM     12  C   UNL     1       2.844  -6.454   3.013  0.00  0.00    -0.002 C 
ATOM     13  C   UNL     1       1.531  -6.036   2.268  0.00  0.00    -0.026 C 
ATOM     14  C   UNL     1       0.347  -6.802   2.864  0.00  0.00    +0.010 C 
ATOM     15  C   UNL     1       0.240  -6.489   4.358  0.00  0.00    +0.032 C 
ATOM     16  C   UNL     1       1.529  -6.916   5.062  0.00  0.00    +0.115 C 
ATOM     17  C   UNL     1       2.720  -6.129   4.503  0.00  0.00    +0.035 C 
ATOM     18  C   UNL     1       1.639  -6.336   0.772  0.00  0.00    +0.012 C 
ATOM     19  C   UNL     1       1.111  -2.445  -0.150  0.00  0.00    +0.014 C 
ENDROOT
BRANCH   1  21
ATOM     20  C   UNL     1       0.419   1.667  -0.007  0.00  0.00    +0.008 C 
ATOM     21  C   UNL     1       0.384   0.138  -0.018  0.00  0.00    +0.000 C 
BRANCH  21  22
ATOM     22  C   UNL     1      -1.066  -0.339  -0.126  0.00  0.00    +0.128 C 
BRANCH  22  23
ATOM     23  C   UNL     1      -1.697   0.248  -1.362  0.00  0.00    +0.356 C 
ATOM     24  O   UNL     1      -1.047   0.980  -2.089  0.00  0.00    -0.246 OA
ATOM     25  O   UNL     1      -2.857  -0.008  -1.635  0.00  0.00    -0.246 OA
ENDBRANCH  22  23
ENDBRANCH  21  22
ENDBRANCH   1  21
BRANCH  16  26
ATOM     26  O   UNL     1       1.726  -8.320   4.885  0.00  0.00    -0.392 OA
ATOM     27  H   UNL     1       1.012  -8.866   5.241  0.00  0.00    +0.210 HD
ENDBRANCH  16  26
BRANCH   6  28
ATOM     28  O   UNL     1      -1.414  -2.199   1.310  0.00  0.00    -0.391 OA
ATOM     29  H   UNL     1      -2.209  -2.588   1.699  0.00  0.00    +0.210 HD
ENDBRANCH   6  28
TORSDOF 5
