REMARK  Name = ZINC65074706
REMARK  6 active torsions:
REMARK  status: ('A' for Active; 'I' for Inactive)
REMARK    1  A    between atoms: C_1  and  O_2
REMARK    2  A    between atoms: O_2  and  C_3
REMARK    3  A    between atoms: C_8  and  C_9
REMARK    4  A    between atoms: C_9  and  N_10
REMARK    5  A    between atoms: N_19  and  S_22
REMARK    6  A    between atoms: S_22  and  C_25
REMARK                            x       y       z     vdW  Elec       q    Type
REMARK                         _______ _______ _______ _____ _____    ______ ____
ROOT
ATOM      1  N   UNL     1       0.572  -2.894   1.342  0.00  0.00    -0.328 N 
ATOM      2  C   UNL     1       1.736  -3.579   1.574  0.00  0.00    +0.089 C 
ATOM      3  N   UNL     1       2.313  -4.144   0.583  0.00  0.00    -0.374 N 
ATOM      4  C   UNL     1       3.550  -4.911   0.693  0.00  0.00    +0.129 C 
ATOM      5  C   UNL     1       4.250  -4.592   2.016  0.00  0.00    +0.102 C 
ATOM      6  N   UNL     1       3.262  -4.698   3.104  0.00  0.00    -0.303 NA
ATOM      7  C   UNL     1       2.267  -3.620   2.979  0.00  0.00    +0.075 C 
ATOM      8  C   UNL     1       1.118  -3.883   3.955  0.00  0.00    +0.047 C 
ATOM      9  C   UNL     1       1.673  -3.964   5.381  0.00  0.00    +0.111 C 
ATOM     10  N   UNL     1       2.434  -2.739   5.662  0.00  0.00    -0.176 NA
ATOM     11  C   UNL     1       3.502  -2.342   4.735  0.00  0.00    +0.111 C 
ATOM     12  C   UNL     1       2.925  -2.279   3.317  0.00  0.00    +0.047 C 
ATOM     13  H   UNL     1       0.114  -2.453   2.075  0.00  0.00    +0.147 HD
ATOM     14  H   UNL     1       2.820  -5.604   3.104  0.00  0.00    +0.123 HD
ATOM     15  H   UNL     1       1.906  -4.057  -0.294  0.00  0.00    +0.161 HD
ENDROOT
BRANCH  10  16
ATOM     16  S   UNL     1       2.094  -1.823   7.000  0.00  0.00    +0.061 S 
ATOM     17  O   UNL     1       2.549  -0.507   6.717  0.00  0.00    -0.153 OA
ATOM     18  O   UNL     1       0.747  -2.104   7.353  0.00  0.00    -0.153 OA
BRANCH  16  19
ATOM     19  C   UNL     1       3.097  -2.430   8.315  0.00  0.00    +0.106 A 
ATOM     20  C   UNL     1       2.626  -3.440   9.133  0.00  0.00    +0.030 A 
ATOM     21  C   UNL     1       3.413  -3.917  10.165  0.00  0.00    +0.022 A 
ATOM     22  C   UNL     1       4.671  -3.383  10.380  0.00  0.00    +0.041 A 
ATOM     23  C   UNL     1       5.141  -2.372   9.560  0.00  0.00    +0.022 A 
ATOM     24  C   UNL     1       4.356  -1.900   8.525  0.00  0.00    +0.030 A 
ATOM     25 CL   UNL     1       5.659  -3.981  11.676  0.00  0.00    -0.084 Cl
ENDBRANCH  16  19
ENDBRANCH  10  16
BRANCH   1  26
ATOM     26  C   UNL     1       0.018  -2.829  -0.013  0.00  0.00    +0.141 C 
BRANCH  26  32
ATOM     27  C   UNL     1      -1.200  -0.637   0.010  0.00  0.00    +0.125 A 
ATOM     28  C   UNL     1      -2.375   0.101   0.019  0.00  0.00    +0.046 A 
ATOM     29  C   UNL     1      -3.596  -0.545   0.027  0.00  0.00    +0.004 A 
ATOM     30  C   UNL     1      -3.648  -1.927   0.026  0.00  0.00    +0.001 A 
ATOM     31  C   UNL     1      -2.479  -2.665   0.017  0.00  0.00    +0.009 A 
ATOM     32  C   UNL     1      -1.255  -2.023   0.003  0.00  0.00    +0.011 A 
BRANCH  27  34
ATOM     33  C   UNL     1      -0.017   1.425   0.010  0.00  0.00    +0.277 C 
ATOM     34  O   UNL     1       0.002  -0.004   0.002  0.00  0.00    -0.495 OA
ENDBRANCH  27  34
ENDBRANCH  26  32
ENDBRANCH   1  26
TORSDOF 5
