REMARK  Name = ZINC20881721
REMARK  6 active torsions:
REMARK  status: ('A' for Active; 'I' for Inactive)
REMARK    1  A    between atoms: C_1  and  N_2
REMARK    2  A    between atoms: N_2  and  C_3
REMARK    3  A    between atoms: N_2  and  C_4
REMARK    4  A    between atoms: C_7  and  C_10
REMARK    5  A    between atoms: C_15  and  C_25
REMARK    6  A    between atoms: C_30  and  O_31
REMARK                            x       y       z     vdW  Elec       q    Type
REMARK                         _______ _______ _______ _____ _____    ______ ____
ROOT
ATOM      1  C   UNL     1      -4.829  -0.107   2.877  0.00  0.00    +0.032 C 
ATOM      2  C   UNL     1      -4.384  -0.165   1.417  0.00  0.00    +0.059 C 
ATOM      3  C   UNL     1      -3.629   1.102   1.055  0.00  0.00    +0.017 C 
ATOM      4  C   UNL     1      -3.949   2.275   1.629  0.00  0.00    +0.037 C 
ATOM      5  C   UNL     1      -3.292   3.605   1.352  0.00  0.00    +0.139 C 
ATOM      6  N   UNL     1      -2.419   3.619   0.209  0.00  0.00    -0.331 N 
ATOM      7  C   UNL     1      -1.252   2.855   0.174  0.00  0.00    +0.049 A 
ATOM      8  C   UNL     1       0.001   3.444   0.147  0.00  0.00    +0.025 A 
ATOM      9  C   UNL     1       1.129   2.644   0.204  0.00  0.00    +0.002 A 
ATOM     10  C   UNL     1       1.007   1.269   0.286  0.00  0.00    +0.002 A 
ATOM     11  C   UNL     1      -0.244   0.676   0.297  0.00  0.00    +0.025 A 
ATOM     12  C   UNL     1      -1.373   1.474   0.217  0.00  0.00    +0.052 A 
ATOM     13  N   UNL     1      -2.653   0.942   0.126  0.00  0.00    -0.316 N 
ATOM     14  C   UNL     1      -4.980   2.335   2.596  0.00  0.00    +0.163 C 
ATOM     15  O   UNL     1      -5.264   3.412   3.084  0.00  0.00    -0.292 OA
ATOM     16  C   UNL     1      -5.735   1.119   3.041  0.00  0.00    +0.088 C 
ATOM     17  H   UNL     1      -2.665   4.242  -0.663  0.00  0.00    +0.147 HD
ATOM     18  H   UNL     1      -2.850   0.353  -0.782  0.00  0.00    +0.152 HD
ENDROOT
BRANCH   5  19
ATOM     19  C   UNL     1      -2.486   4.000   2.563  0.00  0.00    +0.020 A 
ATOM     20  C   UNL     1      -2.155   3.053   3.513  0.00  0.00    +0.029 A 
ATOM     21  C   UNL     1      -1.416   3.416   4.624  0.00  0.00    +0.042 A 
ATOM     22  C   UNL     1      -1.006   4.727   4.787  0.00  0.00    +0.023 A 
ATOM     23  C   UNL     1      -1.335   5.677   3.841  0.00  0.00    +0.047 A 
ATOM     24  C   UNL     1      -2.072   5.314   2.722  0.00  0.00    +0.122 A 
ATOM     25 CL   UNL     1      -1.001   2.223   5.816  0.00  0.00    -0.084 Cl
BRANCH  24  26
ATOM     26  O   UNL     1      -2.391   6.247   1.786  0.00  0.00    -0.506 OA
ATOM     27  H   UNL     1      -2.062   7.289   1.912  0.00  0.00    +0.292 HD
ENDBRANCH  24  26
ENDBRANCH   5  19
BRANCH   1  31
ATOM     28  C   UNL     1      -6.994  -3.655   3.874  0.00  0.00    +0.029 A 
ATOM     29  C   UNL     1      -5.830  -3.334   4.561  0.00  0.00    +0.023 A 
ATOM     30  C   UNL     1      -5.133  -2.187   4.236  0.00  0.00    +0.006 A 
ATOM     31  C   UNL     1      -5.592  -1.358   3.229  0.00  0.00    -0.043 A 
ATOM     32  C   UNL     1      -6.754  -1.673   2.547  0.00  0.00    +0.006 A 
ATOM     33  C   UNL     1      -7.452  -2.821   2.863  0.00  0.00    +0.023 A 
BRANCH  28  35
ATOM     34  C   UNL     1      -7.215  -5.694   5.266  0.00  0.00    +0.129 C 
ATOM     35  N   UNL     1      -7.701  -4.815   4.199  0.00  0.00    -0.336 N 
ATOM     36  C   UNL     1      -8.928  -5.153   3.474  0.00  0.00    +0.129 C 
ENDBRANCH  28  35
ENDBRANCH   1  31
TORSDOF 4
