REMARK  Name = ZINC12054209
REMARK  7 active torsions:
REMARK  status: ('A' for Active; 'I' for Inactive)
REMARK    1  A    between atoms: C_1  and  O_2
REMARK    2  A    between atoms: O_2  and  C_3
REMARK    3  A    between atoms: C_5  and  N_28
REMARK    4  A    between atoms: C_18  and  C_19
REMARK    5  A    between atoms: C_18  and  N_65
REMARK    6  A    between atoms: C_29  and  C_31
REMARK    7  A    between atoms: C_31  and  C_32
REMARK                            x       y       z     vdW  Elec       q    Type
REMARK                         _______ _______ _______ _____ _____    ______ ____
ROOT
ATOM      1  C   UNL     1       1.543   2.014   2.507  0.00  0.00    +0.153 C 
ATOM      2  C   UNL     1       2.407   3.266   2.773  0.00  0.00    +0.133 C 
ATOM      3  C   UNL     1       3.737   2.979   2.109  0.00  0.00    -0.021 A 
ATOM      4  C   UNL     1       4.972   3.583   2.276  0.00  0.00    +0.006 A 
ATOM      5  C   UNL     1       6.063   3.148   1.551  0.00  0.00    +0.000 A 
ATOM      6  C   UNL     1       5.923   2.106   0.653  0.00  0.00    +0.000 A 
ATOM      7  C   UNL     1       4.693   1.502   0.484  0.00  0.00    +0.004 A 
ATOM      8  C   UNL     1       3.597   1.936   1.212  0.00  0.00    -0.034 A 
ATOM      9  C   UNL     1       2.166   1.454   1.216  0.00  0.00    +0.021 C 
ATOM     10  C   UNL     1       1.419   1.994  -0.001  0.00  0.00    -0.005 C 
ATOM     11  C   UNL     1      -0.018   1.464   0.010  0.00  0.00    -0.077 C 
ATOM     12  C   UNL     1       0.660  -0.535   1.203  0.00  0.00    -0.077 C 
ATOM     13  C   UNL     1       2.119  -0.072   1.232  0.00  0.00    -0.005 C 
ATOM     14  N   UNL     1       0.017  -0.014  -0.023  0.00  0.00    +0.383 N 
ATOM     15  H   UNL     1       0.563  -0.316  -0.839  0.00  0.00    -0.081 HD
ENDROOT
BRANCH   2  16
ATOM     16  N   UNL     1       1.784   4.449   2.173  0.00  0.00    -0.306 N 
ATOM     17  C   UNL     1       2.047   5.674   2.670  0.00  0.00    +0.218 C 
ATOM     18  O   UNL     1       2.799   5.797   3.614  0.00  0.00    -0.275 OA
ATOM     19  H   UNL     1       1.183   4.351   1.419  0.00  0.00    +0.149 HD
BRANCH  17  20
ATOM     20  C   UNL     1       1.407   6.891   2.053  0.00  0.00    +0.130 C 
BRANCH  20  21
ATOM     21  C   UNL     1       1.862   8.125   2.788  0.00  0.00    -0.039 A 
ATOM     22  C   UNL     1       1.142   8.588   3.874  0.00  0.00    +0.004 A 
ATOM     23  C   UNL     1       1.562   9.718   4.551  0.00  0.00    +0.000 A 
ATOM     24  C   UNL     1       2.697  10.390   4.136  0.00  0.00    +0.000 A 
ATOM     25  C   UNL     1       3.414   9.930   3.048  0.00  0.00    +0.000 A 
ATOM     26  C   UNL     1       2.996   8.797   2.374  0.00  0.00    +0.004 A 
ENDBRANCH  20  21
ENDBRANCH  17  20
ENDBRANCH   2  16
BRANCH   1  28
ATOM     27  C   UNL     1       0.609   1.155   4.541  0.00  0.00    +0.194 C 
ATOM     28  O   UNL     1       1.661   1.074   3.577  0.00  0.00    -0.377 OA
ENDBRANCH   1  28
BRANCH  14  29
ATOM     29  C   UNL     1      -1.355  -0.548  -0.138  0.00  0.00    -0.037 C 
BRANCH  29  30
ATOM     30  C   UNL     1      -1.278  -2.032  -0.389  0.00  0.00    +0.009 A 
ATOM     31  C   UNL     1      -1.284  -2.916   0.677  0.00  0.00    +0.128 A 
ATOM     32  C   UNL     1      -1.214  -4.279   0.448  0.00  0.00    +0.041 A 
ATOM     33  C   UNL     1      -1.136  -4.760  -0.846  0.00  0.00    +0.044 A 
ATOM     34  C   UNL     1      -1.130  -3.878  -1.913  0.00  0.00    +0.159 A 
ATOM     35  C   UNL     1      -1.207  -2.513  -1.684  0.00  0.00    +0.162 A 
ATOM     36  F   UNL     1      -1.207  -1.652  -2.725  0.00  0.00    -0.202 F 
ATOM     37  F   UNL     1      -1.055  -4.348  -3.177  0.00  0.00    -0.202 F 
ATOM     38  F   UNL     1      -1.359  -2.447   1.942  0.00  0.00    -0.205 F 
ENDBRANCH  29  30
ENDBRANCH  14  29
TORSDOF 6
