REMARK  Name = ZINC08703341
REMARK  10 active torsions:
REMARK  status: ('A' for Active; 'I' for Inactive)
REMARK    1  A    between atoms: C_1  and  C_2
REMARK    2  A    between atoms: C_2  and  C_3
REMARK    3  A    between atoms: C_2  and  C_4
REMARK    4  A    between atoms: C_2  and  C_5
REMARK    5  A    between atoms: C_8  and  O_11
REMARK    6  A    between atoms: O_11  and  C_12
REMARK    7  A    between atoms: C_12  and  C_13
REMARK    8  A    between atoms: C_13  and  S_14
REMARK    9  A    between atoms: S_14  and  C_15
REMARK   10  A    between atoms: C_19  and  N_21
REMARK                            x       y       z     vdW  Elec       q    Type
REMARK                         _______ _______ _______ _____ _____    ______ ____
ROOT
ATOM      1  C   UNL     1       2.208   5.623   0.012  0.00  0.00    +0.118 C 
ENDROOT
BRANCH   1   2
ATOM      2  C   UNL     1       2.426   4.108   0.001  0.00  0.00    +0.240 C 
BRANCH   2   3
ATOM      3  O   UNL     1       1.160   3.445   0.010  0.00  0.00    -0.491 OA
BRANCH   3   7
ATOM      4  C   UNL     1       1.208  -0.680  -0.013  0.00  0.00    -0.042 A 
ATOM      5  C   UNL     1       0.002  -0.004   0.002  0.00  0.00    +0.008 A 
ATOM      6  C   UNL     1      -0.017   1.377   0.010  0.00  0.00    +0.046 A 
ATOM      7  C   UNL     1       1.176   2.086   0.002  0.00  0.00    +0.121 A 
ATOM      8  C   UNL     1       2.385   1.405  -0.013  0.00  0.00    +0.046 A 
ATOM      9  C   UNL     1       2.398   0.024  -0.021  0.00  0.00    +0.008 A 
BRANCH   4  11
ATOM     10  C   UNL     1       0.498  -2.699  -1.266  0.00  0.00    +0.015 C 
ATOM     11  C   UNL     1       1.226  -2.187  -0.021  0.00  0.00    -0.013 C 
ATOM     12  C   UNL     1       2.674  -2.680  -0.037  0.00  0.00    +0.015 C 
ATOM     13  C   UNL     1       0.522  -2.712   1.233  0.00  0.00    +0.015 C 
ENDBRANCH   4  11
ENDBRANCH   3   7
ENDBRANCH   2   3
ENDBRANCH   1   2
BRANCH   1  14
ATOM     14  S   UNL     1       3.811   6.463   0.001  0.00  0.00    -0.083 S 
BRANCH  14  15
ATOM     15  C   UNL     1       3.276   8.142   0.016  0.00  0.00    +0.192 A 
ATOM     16  N   UNL     1       1.977   8.406   0.025  0.00  0.00    -0.207 NA
ATOM     17  C   UNL     1       1.537   9.662   0.042  0.00  0.00    +0.122 A 
ATOM     18  C   UNL     1       2.460  10.703   0.039  0.00  0.00    +0.086 A 
ATOM     19  C   UNL     1       3.816  10.387   0.024  0.00  0.00    +0.122 A 
ATOM     20  N   UNL     1       4.183   9.108   0.013  0.00  0.00    -0.207 NA
ATOM     21  N   UNL     1       0.177   9.929   0.057  0.00  0.00    -0.343 N 
ATOM     22  H   UNL     1      -0.137  10.847   0.066  0.00  0.00    +0.144 HD
ATOM     23  H   UNL     1      -0.461   9.198   0.059  0.00  0.00    +0.144 HD
BRANCH  19  24
ATOM     24  N   UNL     1       4.771  11.392   0.021  0.00  0.00    -0.343 N 
ATOM     25  H   UNL     1       5.714  11.165   0.010  0.00  0.00    +0.144 HD
ATOM     26  H   UNL     1       4.496  12.322   0.029  0.00  0.00    +0.144 HD
ENDBRANCH  19  24
ENDBRANCH  14  15
ENDBRANCH   1  14
TORSDOF 7
