REMARK  Name = ZINC10035282
REMARK  8 active torsions:
REMARK  status: ('A' for Active; 'I' for Inactive)
REMARK    1  A    between atoms: C_1  and  C_2
REMARK    2  A    between atoms: C_2  and  C_3
REMARK    3  A    between atoms: C_2  and  C_4
REMARK    4  A    between atoms: C_7  and  C_10
REMARK    5  A    between atoms: C_15  and  C_20
REMARK    6  A    between atoms: C_23  and  O_26
REMARK    7  A    between atoms: O_26  and  C_27
REMARK    8  A    between atoms: C_32  and  C_34
REMARK                            x       y       z     vdW  Elec       q    Type
REMARK                         _______ _______ _______ _____ _____    ______ ____
ROOT
ATOM      1  C   UNL     1      -5.419  -2.005   0.043  0.00  0.00    +0.175 C 
ATOM      2  C   UNL     1      -6.149  -1.503  -1.183  0.00  0.00    +0.041 C 
ATOM      3  C   UNL     1      -6.439  -2.309  -2.226  0.00  0.00    +0.020 C 
ATOM      4  C   UNL     1      -7.170  -1.780  -3.437  0.00  0.00    +0.060 C 
ATOM      5  C   UNL     1      -6.828  -0.303  -3.642  0.00  0.00    +0.032 C 
ATOM      6  C   UNL     1      -7.225   0.463  -2.375  0.00  0.00    +0.088 C 
ATOM      7  C   UNL     1      -6.519  -0.146  -1.196  0.00  0.00    +0.164 C 
ATOM      8  O   UNL     1      -6.263   0.549  -0.233  0.00  0.00    -0.292 OA
ATOM      9  N   UNL     1      -6.091  -3.639  -2.232  0.00  0.00    -0.287 N 
ATOM     10  C   UNL     1      -5.710  -4.217  -1.032  0.00  0.00    +0.219 A 
ATOM     11  N   UNL     1      -5.396  -3.462   0.046  0.00  0.00    -0.220 N 
ATOM     12  N   UNL     1      -5.072  -4.352   1.069  0.00  0.00    -0.143 NA
ATOM     13  C   UNL     1      -5.195  -5.559   0.572  0.00  0.00    +0.256 A 
ATOM     14  N   UNL     1      -5.581  -5.472  -0.699  0.00  0.00    -0.189 NA
ATOM     15  H   UNL     1      -6.111  -4.157  -3.052  0.00  0.00    +0.155 HD
ENDROOT
BRANCH   1  19
ATOM     16  C   UNL     1      -1.412  -0.526   0.013  0.00  0.00    -0.045 A 
ATOM     17  C   UNL     1      -2.259  -0.204   1.056  0.00  0.00    +0.004 A 
ATOM     18  C   UNL     1      -3.556  -0.683   1.066  0.00  0.00    +0.006 A 
ATOM     19  C   UNL     1      -4.006  -1.482   0.032  0.00  0.00    -0.018 A 
ATOM     20  C   UNL     1      -3.159  -1.803  -1.012  0.00  0.00    +0.006 A 
ATOM     21  C   UNL     1      -1.863  -1.321  -1.024  0.00  0.00    +0.004 A 
BRANCH  16  23
ATOM     22  C   UNL     1      -0.019   1.526   0.010  0.00  0.00    +0.012 C 
ATOM     23  C   UNL     1       0.002  -0.004   0.002  0.00  0.00    +0.013 C 
ATOM     24  C   UNL     1       0.742  -0.511   1.242  0.00  0.00    +0.012 C 
ENDBRANCH  16  23
ENDBRANCH   1  19
BRANCH   5  25
ATOM     25  C   UNL     1      -7.591   0.236  -4.823  0.00  0.00    -0.043 A 
ATOM     26  C   UNL     1      -8.974   0.219  -4.818  0.00  0.00    +0.007 A 
ATOM     27  C   UNL     1      -9.676   0.713  -5.900  0.00  0.00    +0.046 A 
ATOM     28  C   UNL     1      -8.993   1.227  -6.993  0.00  0.00    +0.120 A 
ATOM     29  C   UNL     1      -7.606   1.243  -6.996  0.00  0.00    +0.046 A 
ATOM     30  C   UNL     1      -6.908   0.753  -5.909  0.00  0.00    +0.007 A 
BRANCH  28  31
ATOM     31  O   UNL     1      -9.682   1.712  -8.059  0.00  0.00    -0.495 OA
ATOM     32  C   UNL     1      -8.913   2.226  -9.149  0.00  0.00    +0.277 C 
ENDBRANCH  28  31
ENDBRANCH   5  25
BRANCH  13  33
ATOM     33  C   UNL     1      -4.942  -6.841   1.321  0.00  0.00    +0.454 C 
ATOM     34  F   UNL     1      -6.163  -7.444   1.641  0.00  0.00    -0.163 F 
ATOM     35  F   UNL     1      -4.190  -7.708   0.520  0.00  0.00    -0.163 F 
ATOM     36  F   UNL     1      -4.237  -6.563   2.497  0.00  0.00    -0.163 F 
ENDBRANCH  13  33
TORSDOF 5
