REMARK  Name = ZINC20231995
REMARK  14 active torsions:
REMARK  status: ('A' for Active; 'I' for Inactive)
REMARK    1  A    between atoms: C_1  and  C_2
REMARK    2  A    between atoms: C_5  and  N_8
REMARK    3  A    between atoms: N_8  and  C_9
REMARK    4  A    between atoms: N_8  and  S_27
REMARK    5  A    between atoms: C_9  and  C_10
REMARK    6  A    between atoms: N_12  and  N_13
REMARK    7  A    between atoms: C_14  and  C_15
REMARK    8  A    between atoms: C_17  and  O_25
REMARK    9  A    between atoms: C_18  and  O_23
REMARK   10  A    between atoms: C_19  and  O_21
REMARK   11  A    between atoms: O_21  and  C_22
REMARK   12  A    between atoms: O_23  and  C_24
REMARK   13  A    between atoms: O_25  and  C_26
REMARK   14  A    between atoms: S_27  and  C_30
REMARK                            x       y       z     vdW  Elec       q    Type
REMARK                         _______ _______ _______ _____ _____    ______ ____
ROOT
ATOM      1  C   UNL     1       0.484  -4.888  -1.223  0.00  0.00    +0.228 C 
ENDROOT
BRANCH   1   2
ATOM      2  C   UNL     1       1.985  -5.024  -1.222  0.00  0.00    +0.251 C 
ATOM      3  O   UNL     1       2.635  -4.564  -0.307  0.00  0.00    -0.272 OA
ATOM      4  N   UNL     1       2.605  -5.656  -2.238  0.00  0.00    -0.206 N 
ATOM      5  H   UNL     1       2.086  -6.023  -2.970  0.00  0.00    +0.177 HD
BRANCH   4   6
ATOM      6  N   UNL     1       4.001  -5.782  -2.237  0.00  0.00    -0.188 NA
ATOM      7  C   UNL     1       4.598  -6.391  -3.215  0.00  0.00    +0.138 C 
BRANCH   7   8
ATOM      8  C   UNL     1       6.066  -6.524  -3.214  0.00  0.00    +0.002 A 
ATOM      9  C   UNL     1       6.816  -6.000  -2.157  0.00  0.00    +0.059 A 
ATOM     10  C   UNL     1       8.193  -6.127  -2.159  0.00  0.00    +0.166 A 
ATOM     11  C   UNL     1       8.832  -6.775  -3.211  0.00  0.00    +0.204 A 
ATOM     12  C   UNL     1       8.089  -7.297  -4.265  0.00  0.00    +0.166 A 
ATOM     13  C   UNL     1       6.711  -7.179  -4.266  0.00  0.00    +0.059 A 
BRANCH  12  14
ATOM     14  O   UNL     1       8.717  -7.930  -5.292  0.00  0.00    -0.491 OA
ATOM     15  C   UNL     1       7.892  -8.442  -6.340  0.00  0.00    +0.277 C 
ENDBRANCH  12  14
BRANCH  11  16
ATOM     16  O   UNL     1      10.187  -6.898  -3.210  0.00  0.00    -0.488 OA
ATOM     17  C   UNL     1      10.732  -8.064  -2.588  0.00  0.00    +0.277 C 
ENDBRANCH  11  16
BRANCH  10  18
ATOM     18  O   UNL     1       8.923  -5.617  -1.131  0.00  0.00    -0.491 OA
ATOM     19  C   UNL     1       8.202  -4.963  -0.085  0.00  0.00    +0.277 C 
ENDBRANCH  10  18
ENDBRANCH   7   8
ENDBRANCH   4   6
ENDBRANCH   1   2
BRANCH   1  20
ATOM     20  N   UNL     1       0.058  -4.167  -0.021  0.00  0.00    -0.194 N 
BRANCH  20  25
ATOM     21  C   UNL     1       0.026   1.503   0.027  0.00  0.00    +0.044 C 
ATOM     22  C   UNL     1       0.035  -0.004   0.014  0.00  0.00    -0.050 A 
ATOM     23  C   UNL     1      -0.737  -0.690  -0.905  0.00  0.00    +0.005 A 
ATOM     24  C   UNL     1      -0.732  -2.071  -0.919  0.00  0.00    +0.025 A 
ATOM     25  C   UNL     1       0.051  -2.771  -0.009  0.00  0.00    +0.052 A 
ATOM     26  C   UNL     1       0.825  -2.078   0.912  0.00  0.00    +0.025 A 
ATOM     27  C   UNL     1       0.820  -0.697   0.918  0.00  0.00    +0.005 A 
ENDBRANCH  20  25
BRANCH  20  28
ATOM     28  S   UNL     1      -0.415  -5.009   1.325  0.00  0.00    +0.075 S 
ATOM     29  O   UNL     1       0.303  -6.236   1.309  0.00  0.00    -0.150 OA
ATOM     30  O   UNL     1      -0.348  -4.101   2.416  0.00  0.00    -0.150 OA
BRANCH  28  31
ATOM     31  C   UNL     1      -2.115  -5.418   1.112  0.00  0.00    +0.109 A 
ATOM     32  C   UNL     1      -3.095  -4.550   1.556  0.00  0.00    +0.031 A 
ATOM     33  C   UNL     1      -4.429  -4.869   1.390  0.00  0.00    +0.040 A 
ATOM     34  C   UNL     1      -4.785  -6.059   0.778  0.00  0.00    +0.124 A 
ATOM     35  C   UNL     1      -3.803  -6.928   0.335  0.00  0.00    +0.040 A 
ATOM     36  C   UNL     1      -2.469  -6.604   0.497  0.00  0.00    +0.031 A 
ATOM     37  F   UNL     1      -6.089  -6.373   0.616  0.00  0.00    -0.205 F 
ENDBRANCH  28  31
ENDBRANCH  20  28
ENDBRANCH   1  20
TORSDOF 10
