REMARK  Name = ZINC01681893
REMARK  6 active torsions:
REMARK  status: ('A' for Active; 'I' for Inactive)
REMARK    1  A    between atoms: C_1  and  C_2
REMARK    2  A    between atoms: C_2  and  C_12
REMARK    3  A    between atoms: C_3  and  C_10
REMARK    4  A    between atoms: C_4  and  C_8
REMARK    5  A    between atoms: C_4  and  C_9
REMARK    6  A    between atoms: C_5  and  C_6
REMARK                            x       y       z     vdW  Elec       q    Type
REMARK                         _______ _______ _______ _____ _____    ______ ____
ROOT
ATOM      1  C   UNL     1      -0.331   3.416  -1.327  0.00  0.00    +0.012 C 
ATOM      2  C   UNL     1      -0.692   2.006  -0.856  0.00  0.00    -0.008 C 
ATOM      3  C   UNL     1       0.157   1.516   0.329  0.00  0.00    +0.115 C 
ATOM      4  C   UNL     1      -0.899   2.151   1.249  0.00  0.00    -0.008 C 
ATOM      5  C   UNL     1      -1.900   1.964   0.094  0.00  0.00    +0.115 C 
ATOM      6  C   UNL     1      -1.221   1.309   2.485  0.00  0.00    +0.012 C 
ATOM      7  C   UNL     1      -0.617   3.617   1.585  0.00  0.00    +0.012 C 
ATOM      8  C   UNL     1      -0.780   0.999  -2.005  0.00  0.00    +0.012 C 
ENDROOT
BRANCH   5   9
ATOM      9  C   UNL     1      -2.845   3.125  -0.080  0.00  0.00    +0.360 C 
ATOM     10  O   UNL     1      -2.614   3.974  -0.908  0.00  0.00    -0.246 OA
ATOM     11  O   UNL     1      -3.945   3.216   0.685  0.00  0.00    -0.246 OA
ENDBRANCH   5   9
BRANCH   3  12
ATOM     12  C   UNL     1       0.230   0.015   0.440  0.00  0.00    +0.360 C 
ATOM     13  O   UNL     1      -0.743  -0.657   0.193  0.00  0.00    -0.246 OA
ATOM     14  O   UNL     1       1.376  -0.575   0.813  0.00  0.00    -0.246 OA
ENDBRANCH   3  12
TORSDOF 2
