REMARK  Name = ZINC65380293
REMARK  5 active torsions:
REMARK  status: ('A' for Active; 'I' for Inactive)
REMARK    1  A    between atoms: C_1  and  C_2
REMARK    2  A    between atoms: C_2  and  C_3
REMARK    3  A    between atoms: C_2  and  C_4
REMARK    4  A    between atoms: C_4  and  C_5
REMARK    5  A    between atoms: C_7  and  C_11
REMARK                            x       y       z     vdW  Elec       q    Type
REMARK                         _______ _______ _______ _____ _____    ______ ____
ROOT
ATOM      1  C   UNL     1       2.539   0.157  -2.037  0.00  0.00    +0.151 A 
ATOM      2  N   UNL     1       3.734  -0.426  -1.952  0.00  0.00    -0.212 NA
ATOM      3  C   UNL     1       4.287  -0.139  -0.802  0.00  0.00    +0.165 A 
ATOM      4  H   UNL     1       3.579   1.020   0.768  0.00  0.00    +0.190 HD
ATOM      5  N   UNL     1       3.440   0.649  -0.117  0.00  0.00    -0.260 N 
ATOM      6  N   UNL     1       2.316   0.831  -0.940  0.00  0.00    -0.157 NA
ENDROOT
BRANCH   3   7
ATOM      7  C   UNL     1       5.638  -0.609  -0.327  0.00  0.00    +0.244 C 
ATOM      8  N   UNL     1       5.704  -2.083  -0.327  0.00  0.00    -0.240 N 
ATOM      9  N   UNL     1       6.700  -2.427  -1.249  0.00  0.00    -0.174 NA
ATOM     10  C   UNL     1       7.238  -1.392  -1.782  0.00  0.00    +0.117 C 
ATOM     11  N   UNL     1       6.683  -0.214  -1.274  0.00  0.00    -0.292 N 
ATOM     12  C   UNL     1       7.109   1.140  -1.631  0.00  0.00    +0.108 C 
ATOM     13  C   UNL     1       7.891   1.074  -2.949  0.00  0.00    +0.019 C 
ATOM     14  C   UNL     1       8.984   0.007  -2.836  0.00  0.00    +0.009 C 
ATOM     15  C   UNL     1       8.332  -1.392  -2.832  0.00  0.00    +0.073 C 
ATOM     16  H   UNL     1       5.166  -2.690   0.204  0.00  0.00    +0.171 HD
ENDBRANCH   3   7
BRANCH   1  17
ATOM     17  C   UNL     1       1.599   0.060  -3.211  0.00  0.00    +0.081 C 
BRANCH  17  19
ATOM     18  C   UNL     1      -0.227  -0.904  -1.805  0.00  0.00    +0.007 C 
ATOM     19  C   UNL     1       0.669  -1.140  -3.022  0.00  0.00    -0.010 C 
ATOM     20  C   UNL     1      -0.200  -1.313  -4.269  0.00  0.00    +0.007 C 
ENDBRANCH  17  19
ENDBRANCH   1  17
TORSDOF 3
