REMARK  Name = ZINC34747890
REMARK  6 active torsions:
REMARK  status: ('A' for Active; 'I' for Inactive)
REMARK    1  A    between atoms: C_1  and  C_2
REMARK    2  A    between atoms: C_5  and  C_9
REMARK    3  A    between atoms: C_6  and  C_8
REMARK    4  A    between atoms: C_9  and  N_10
REMARK    5  A    between atoms: N_28  and  C_29
REMARK    6  A    between atoms: C_29  and  C_30
REMARK                            x       y       z     vdW  Elec       q    Type
REMARK                         _______ _______ _______ _____ _____    ______ ____
ROOT
ATOM      1  N   UNL     1      -1.551  -5.329   0.334  0.00  0.00    +0.384 N 
ATOM      2  C   UNL     1      -1.332  -4.833   1.698  0.00  0.00    -0.059 C 
ATOM      3  C   UNL     1      -2.651  -4.880   2.475  0.00  0.00    +0.089 C 
ATOM      4  N   UNL     1      -3.185  -6.249   2.406  0.00  0.00    -0.304 N 
ATOM      5  C   UNL     1      -3.285  -6.888   1.084  0.00  0.00    +0.089 C 
ATOM      6  C   UNL     1      -1.936  -6.746   0.372  0.00  0.00    -0.059 C 
ATOM      7  C   UNL     1      -3.578  -6.912   3.542  0.00  0.00    +0.202 A 
ATOM      8  N   UNL     1      -3.143  -8.136   3.761  0.00  0.00    -0.208 NA
ATOM      9  C   UNL     1      -3.508  -8.800   4.853  0.00  0.00    +0.117 A 
ATOM     10  C   UNL     1      -4.362  -8.241   5.814  0.00  0.00    +0.076 A 
ATOM     11  C   UNL     1      -4.679  -9.095   6.971  0.00  0.00    -0.023 A 
ATOM     12  C   UNL     1      -4.122 -10.317   6.995  0.00  0.00    -0.004 A 
ATOM     13  S   UNL     1      -3.159 -10.413   5.503  0.00  0.00    -0.073 S 
ATOM     14  C   UNL     1      -4.511 -11.095   8.223  0.00  0.00    +0.043 C 
ATOM     15  C   UNL     1      -5.059 -10.031   9.199  0.00  0.00    +0.010 C 
ATOM     16  C   UNL     1      -5.537  -8.933   8.229  0.00  0.00    +0.037 C 
ATOM     17  C   UNL     1      -4.817  -6.911   5.551  0.00  0.00    +0.264 A 
ATOM     18  O   UNL     1      -5.562  -6.346   6.333  0.00  0.00    -0.267 OA
ATOM     19  N   UNL     1      -4.407  -6.292   4.429  0.00  0.00    -0.276 N 
ATOM     20  H   UNL     1      -2.286  -4.794  -0.103  0.00  0.00    -0.081 HD
ENDROOT
BRANCH   1  21
ATOM     21  C   UNL     1      -0.313  -5.181  -0.444  0.00  0.00    -0.043 C 
BRANCH  21  26
ATOM     22  C   UNL     1       0.884   0.432  -1.116  0.00  0.00    +0.044 C 
ATOM     23  C   UNL     1       0.572  -1.032  -0.941  0.00  0.00    -0.050 A 
ATOM     24  C   UNL     1       1.266  -1.780  -0.008  0.00  0.00    +0.003 A 
ATOM     25  C   UNL     1       0.980  -3.122   0.153  0.00  0.00    +0.002 A 
ATOM     26  C   UNL     1      -0.002  -3.717  -0.618  0.00  0.00    -0.061 A 
ATOM     27  C   UNL     1      -0.696  -2.969  -1.550  0.00  0.00    -0.049 A 
ATOM     28  C   UNL     1      -0.413  -1.625  -1.708  0.00  0.00    +0.007 A 
ATOM     29  C   UNL     1      -1.766  -3.618  -2.391  0.00  0.00    +0.044 C 
ENDBRANCH  21  26
ENDBRANCH   1  21
BRANCH  19  30
ATOM     30  C   UNL     1      -4.864  -4.928   4.152  0.00  0.00    +0.163 C 
BRANCH  30  31
ATOM     31  C   UNL     1      -6.151  -4.978   3.370  0.00  0.00    -0.028 A 
ATOM     32  C   UNL     1      -6.119  -5.088   1.992  0.00  0.00    +0.005 A 
ATOM     33  C   UNL     1      -7.300  -5.134   1.275  0.00  0.00    +0.000 A 
ATOM     34  C   UNL     1      -8.513  -5.071   1.935  0.00  0.00    +0.000 A 
ATOM     35  C   UNL     1      -8.545  -4.962   3.313  0.00  0.00    +0.000 A 
ATOM     36  C   UNL     1      -7.364  -4.920   4.031  0.00  0.00    +0.005 A 
ENDBRANCH  30  31
ENDBRANCH  19  30
TORSDOF 4
