REMARK  Name = ZINC64470374
REMARK  5 active torsions:
REMARK  status: ('A' for Active; 'I' for Inactive)
REMARK    1  A    between atoms: C_1  and  C_2
REMARK    2  A    between atoms: C_5  and  N_8
REMARK    3  A    between atoms: C_11  and  C_33
REMARK    4  A    between atoms: C_13  and  N_16
REMARK    5  A    between atoms: C_17  and  C_19
REMARK                            x       y       z     vdW  Elec       q    Type
REMARK                         _______ _______ _______ _____ _____    ______ ____
ROOT
ATOM      1  N   UNL     1       0.058  -4.142  -0.021  0.00  0.00    -0.226 NA
ATOM      2  C   UNL     1       0.875  -4.793   0.776  0.00  0.00    +0.157 C 
ATOM      3  N   UNL     1       1.778  -4.283   1.688  0.00  0.00    -0.310 N 
ATOM      4  C   UNL     1       2.030  -5.070   2.883  0.00  0.00    +0.189 C 
ATOM      5  C   UNL     1       1.731  -6.574   2.678  0.00  0.00    +0.168 C 
ATOM      6  S   UNL     1       1.089  -6.559   0.956  0.00  0.00    -0.066 S 
ATOM      7  H   UNL     1       2.225  -3.436   1.536  0.00  0.00    +0.149 HD
ENDROOT
BRANCH   1  12
ATOM      8  C   UNL     1      -0.018   1.503   0.010  0.00  0.00    +0.044 C 
ATOM      9  C   UNL     1       0.002  -0.004   0.002  0.00  0.00    -0.050 A 
ATOM     10  C   UNL     1       0.006  -0.686  -1.202  0.00  0.00    +0.005 A 
ATOM     11  C   UNL     1       0.024  -2.065  -1.217  0.00  0.00    +0.028 A 
ATOM     12  C   UNL     1       0.040  -2.773  -0.013  0.00  0.00    +0.067 A 
ATOM     13  C   UNL     1       0.036  -2.079   1.198  0.00  0.00    +0.028 A 
ATOM     14  C   UNL     1       0.023  -0.699   1.198  0.00  0.00    +0.005 A 
ENDBRANCH   1  12
BRANCH   4  15
ATOM     15  C   UNL     1       1.161  -4.551   4.000  0.00  0.00    +0.233 C 
ATOM     16  O   UNL     1       0.191  -3.868   3.747  0.00  0.00    -0.274 OA
ATOM     17  N   UNL     1       1.462  -4.846   5.280  0.00  0.00    -0.328 N 
ATOM     18  H   UNL     1       2.237  -5.392   5.483  0.00  0.00    +0.145 HD
ATOM     19  H   UNL     1       0.903  -4.512   5.999  0.00  0.00    +0.145 HD
ENDBRANCH   4  15
BRANCH   5  20
ATOM     20  N   UNL     1       0.708  -7.043   3.616  0.00  0.00    -0.299 N 
ATOM     21  C   UNL     1      -0.299  -7.826   3.179  0.00  0.00    +0.245 C 
ATOM     22  O   UNL     1      -0.358  -8.141   2.009  0.00  0.00    -0.273 OA
ATOM     23  H   UNL     1       0.756  -6.791   4.551  0.00  0.00    +0.150 HD
BRANCH  21  24
ATOM     24  C   UNL     1      -1.351  -8.309   4.144  0.00  0.00    +0.241 C 
ATOM     25  C   UNL     1      -0.873  -9.523   4.887  0.00  0.00    -0.007 C 
ATOM     26  C   UNL     1      -1.754 -10.498   4.551  0.00  0.00    +0.095 C 
ATOM     27  C   UNL     1      -1.593 -11.858   5.126  0.00  0.00    +0.005 A 
ATOM     28  C   UNL     1      -2.279 -12.950   4.615  0.00  0.00    +0.010 A 
ATOM     29  C   UNL     1      -2.072 -14.202   5.162  0.00  0.00    +0.001 A 
ATOM     30  C   UNL     1      -1.182 -14.358   6.210  0.00  0.00    +0.000 A 
ATOM     31  C   UNL     1      -0.507 -13.268   6.728  0.00  0.00    +0.004 A 
ATOM     32  C   UNL     1      -0.716 -12.007   6.203  0.00  0.00    -0.038 A 
ATOM     33  C   UNL     1      -0.042 -10.815   6.826  0.00  0.00    +0.040 C 
ATOM     34  C   UNL     1       0.296  -9.737   5.797  0.00  0.00    +0.040 C 
ATOM     35  N   UNL     1      -2.678 -10.011   3.698  0.00  0.00    -0.153 NA
ATOM     36  N   UNL     1      -2.536  -8.809   3.418  0.00  0.00    -0.170 NA
ENDBRANCH  21  24
ENDBRANCH   5  20
TORSDOF 4
