REMARK  Name = ZINC06385939
REMARK  11 active torsions:
REMARK  status: ('A' for Active; 'I' for Inactive)
REMARK    1  A    between atoms: C_1  and  C_2
REMARK    2  A    between atoms: C_2  and  O_3
REMARK    3  A    between atoms: O_3  and  C_4
REMARK    4  A    between atoms: C_4  and  C_6
REMARK    5  A    between atoms: C_10  and  N_11
REMARK    6  A    between atoms: C_12  and  C_14
REMARK    7  A    between atoms: C_15  and  N_27
REMARK    8  A    between atoms: C_17  and  C_24
REMARK    9  A    between atoms: C_19  and  C_23
REMARK   10  A    between atoms: C_24  and  O_25
REMARK   11  A    between atoms: O_25  and  C_26
REMARK                            x       y       z     vdW  Elec       q    Type
REMARK                         _______ _______ _______ _____ _____    ______ ____
ROOT
ATOM      1  N   UNL     1      -6.541   3.559   4.755  0.00  0.00    -0.275 N 
ATOM      2  C   UNL     1      -5.269   3.488   5.194  0.00  0.00    +0.257 C 
ATOM      3  O   UNL     1      -5.003   3.792   6.343  0.00  0.00    -0.269 OA
ATOM      4  H   UNL     1      -6.752   3.317   3.840  0.00  0.00    +0.156 HD
ENDROOT
BRANCH   2   5
ATOM      5  C   UNL     1      -4.240   3.060   4.320  0.00  0.00    +0.097 A 
ATOM      6  C   UNL     1      -2.895   2.925   4.585  0.00  0.00    +0.054 A 
ATOM      7  C   UNL     1      -2.023   2.464   3.515  0.00  0.00    +0.034 A 
ATOM      8  C   UNL     1      -0.623   2.249   3.545  0.00  0.00    -0.009 A 
ATOM      9  C   UNL     1       0.008   1.805   2.407  0.00  0.00    +0.029 A 
ATOM     10  C   UNL     1      -0.718   1.572   1.248  0.00  0.00    +0.040 A 
ATOM     11  N   UNL     1      -2.020   1.778   1.222  0.00  0.00    -0.245 NA
ATOM     12  C   UNL     1      -2.670   2.197   2.287  0.00  0.00    +0.111 A 
ATOM     13  S   UNL     1      -4.376   2.568   2.612  0.00  0.00    -0.062 S 
ATOM     14  C   UNL     1      -0.013   1.086   0.008  0.00  0.00    +0.065 C 
BRANCH   6  15
ATOM     15  N   UNL     1      -2.384   3.221   5.841  0.00  0.00    -0.356 N 
ATOM     16  H   UNL     1      -1.435   3.122   6.014  0.00  0.00    +0.142 HD
ATOM     17  H   UNL     1      -2.976   3.528   6.545  0.00  0.00    +0.142 HD
ENDBRANCH   6  15
BRANCH   8  18
ATOM     18  C   UNL     1       0.163   2.503   4.805  0.00  0.00    +0.195 C 
BRANCH  18  19
ATOM     19  O   UNL     1       1.543   2.213   4.573  0.00  0.00    -0.378 OA
ATOM     20  C   UNL     1       2.381   2.423   5.711  0.00  0.00    +0.194 C 
ENDBRANCH  18  19
ENDBRANCH   8  18
ENDBRANCH   2   5
BRANCH   1  25
ATOM     21  C   UNL     1      -8.902   4.120   5.344  0.00  0.00    +0.091 A 
ATOM     22  C   UNL     1      -9.754   4.578   6.429  0.00  0.00    -0.021 A 
ATOM     23  C   UNL     1      -9.118   4.828   7.593  0.00  0.00    -0.004 A 
ATOM     24  S   UNL     1      -7.418   4.458   7.270  0.00  0.00    -0.077 S 
ATOM     25  C   UNL     1      -7.546   3.978   5.610  0.00  0.00    +0.087 A 
ATOM     26  C   UNL     1      -9.731   5.312   8.871  0.00  0.00    +0.043 C 
ATOM     27  C   UNL     1     -11.139   5.843   8.562  0.00  0.00    +0.005 C 
ATOM     28  C   UNL     1     -11.875   4.815   7.698  0.00  0.00    +0.005 C 
ATOM     29  C   UNL     1     -11.259   4.777   6.298  0.00  0.00    +0.037 C 
BRANCH  21  30
ATOM     30  C   UNL     1      -9.453   3.817   4.022  0.00  0.00    +0.342 C 
ATOM     31  O   UNL     1      -9.845   2.693   3.769  0.00  0.00    -0.245 OA
BRANCH  30  32
ATOM     32  O   UNL     1      -9.525   4.783   3.083  0.00  0.00    -0.461 OA
BRANCH  32  34
ATOM     33  C   UNL     1     -10.083   5.629   0.869  0.00  0.00    +0.048 C 
ATOM     34  C   UNL     1     -10.082   4.411   1.795  0.00  0.00    +0.229 C 
ENDBRANCH  32  34
ENDBRANCH  30  32
ENDBRANCH  21  30
ENDBRANCH   1  25
TORSDOF 8
