REMARK  Name = ZINC62218074
REMARK  13 active torsions:
REMARK  status: ('A' for Active; 'I' for Inactive)
REMARK    1  A    between atoms: C_1  and  C_2
REMARK    2  A    between atoms: C_2  and  C_3
REMARK    3  A    between atoms: C_2  and  C_4
REMARK    4  A    between atoms: C_4  and  C_5
REMARK    5  A    between atoms: C_9  and  O_25
REMARK    6  A    between atoms: C_10  and  O_23
REMARK    7  A    between atoms: N_15  and  S_16
REMARK    8  A    between atoms: S_16  and  N_19
REMARK    9  A    between atoms: N_19  and  C_20
REMARK   10  A    between atoms: C_20  and  C_21
REMARK   11  A    between atoms: C_20  and  C_22
REMARK   12  A    between atoms: O_23  and  C_24
REMARK   13  A    between atoms: O_25  and  C_26
REMARK                            x       y       z     vdW  Elec       q    Type
REMARK                         _______ _______ _______ _____ _____    ______ ____
ROOT
ATOM      1  C   UNL     1      -0.568  -0.507  -1.769  0.00  0.00    +0.111 C 
ATOM      2  C   UNL     1      -1.514  -1.636  -2.090  0.00  0.00    -0.022 A 
ATOM      3  C   UNL     1      -0.968  -2.892  -2.318  0.00  0.00    +0.055 A 
ATOM      4  C   UNL     1      -1.783  -3.971  -2.607  0.00  0.00    +0.162 A 
ATOM      5  C   UNL     1      -3.162  -3.793  -2.668  0.00  0.00    +0.162 A 
ATOM      6  C   UNL     1      -3.701  -2.540  -2.445  0.00  0.00    +0.053 A 
ATOM      7  C   UNL     1      -2.878  -1.456  -2.160  0.00  0.00    -0.038 A 
ATOM      8  C   UNL     1      -3.537  -0.117  -1.956  0.00  0.00    +0.053 C 
ATOM      9  C   UNL     1      -2.611   0.835  -1.200  0.00  0.00    +0.116 C 
ATOM     10  N   UNL     1      -1.284   0.771  -1.831  0.00  0.00    -0.159 NA
ENDROOT
BRANCH  10  11
ATOM     11  S   UNL     1      -0.626   2.092  -2.583  0.00  0.00    +0.098 S 
ATOM     12  O   UNL     1       0.530   1.634  -3.270  0.00  0.00    -0.141 OA
ATOM     13  O   UNL     1      -1.693   2.757  -3.245  0.00  0.00    -0.141 OA
BRANCH  11  14
ATOM     14  N   UNL     1      -0.094   3.116  -1.395  0.00  0.00    -0.177 NA
ATOM     15  H   UNL     1      -0.488   3.998  -1.303  0.00  0.00    +0.149 HD
BRANCH  14  16
ATOM     16  C   UNL     1       0.970   2.691  -0.482  0.00  0.00    +0.071 C 
ATOM     17  C   UNL     1       2.038   3.783  -0.400  0.00  0.00    +0.025 C 
ATOM     18  C   UNL     1       0.381   2.447   0.909  0.00  0.00    +0.025 C 
ENDBRANCH  14  16
ENDBRANCH  11  14
ENDBRANCH  10  11
BRANCH   5  19
ATOM     19  O   UNL     1      -3.975  -4.847  -2.947  0.00  0.00    -0.491 OA
ATOM     20  C   UNL     1      -5.380  -4.588  -2.993  0.00  0.00    +0.277 C 
ENDBRANCH   5  19
BRANCH   4  21
ATOM     21  O   UNL     1      -1.240  -5.198  -2.831  0.00  0.00    -0.491 OA
ATOM     22  C   UNL     1       0.183  -5.303  -2.751  0.00  0.00    +0.277 C 
ENDBRANCH   4  21
BRANCH   1  23
ATOM     23  C   UNL     1       0.000  -0.704  -0.361  0.00  0.00    +0.028 C 
BRANCH  23  25
ATOM     24  C   UNL     1       2.137  -1.627  -1.270  0.00  0.00    +0.007 C 
ATOM     25  C   UNL     1       0.943  -1.909  -0.356  0.00  0.00    -0.015 C 
ATOM     26  C   UNL     1       1.440  -2.161   1.069  0.00  0.00    +0.007 C 
ENDBRANCH  23  25
ENDBRANCH   1  23
TORSDOF 7
