REMARK  Name = ZINC09906786
REMARK  6 active torsions:
REMARK  status: ('A' for Active; 'I' for Inactive)
REMARK    1  A    between atoms: C_4  and  C_7
REMARK    2  A    between atoms: C_7  and  C_8
REMARK    3  A    between atoms: C_7  and  C_14
REMARK    4  A    between atoms: C_7  and  O_36
REMARK    5  A    between atoms: C_19  and  N_64
REMARK    6  A    between atoms: N_24  and  C_27
REMARK                            x       y       z     vdW  Elec       q    Type
REMARK                         _______ _______ _______ _____ _____    ______ ____
ROOT
ATOM      1  C   UNL     1       4.034  -5.731   3.300  0.00  0.00    +0.026 C 
ATOM      2  C   UNL     1       4.476  -6.657   2.163  0.00  0.00    -0.012 C 
ATOM      3  C   UNL     1       3.543  -6.467   0.965  0.00  0.00    -0.077 C 
ATOM      4  C   UNL     1       1.701  -5.868   2.421  0.00  0.00    -0.077 C 
ATOM      5  C   UNL     1       2.579  -6.040   3.663  0.00  0.00    -0.012 C 
ATOM      6  N   UNL     1       2.163  -6.803   1.374  0.00  0.00    +0.388 N 
ATOM      7  H   UNL     1       2.151  -7.758   1.751  0.00  0.00    -0.081 HD
ENDROOT
BRANCH   6   8
ATOM      8  C   UNL     1       1.261  -6.738   0.205  0.00  0.00    +0.029 C 
ATOM      9  C   UNL     1      -0.182  -7.077   0.631  0.00  0.00    +0.090 C 
ATOM     10  C   UNL     1      -0.957  -5.823   0.289  0.00  0.00    +0.225 C 
ATOM     11  O   UNL     1      -2.145  -5.661   0.469  0.00  0.00    -0.275 OA
ATOM     12  N   UNL     1      -0.123  -4.922  -0.245  0.00  0.00    -0.212 N 
ATOM     13  C   UNL     1       1.149  -5.329  -0.337  0.00  0.00    +0.213 C 
ATOM     14  O   UNL     1       2.065  -4.674  -0.783  0.00  0.00    -0.277 OA
BRANCH  12  15
ATOM     15  C   UNL     1      -0.547  -3.653  -0.669  0.00  0.00    +0.048 A 
ATOM     16  C   UNL     1      -0.980  -2.719   0.262  0.00  0.00    +0.028 A 
ATOM     17  C   UNL     1      -1.398  -1.470  -0.154  0.00  0.00    +0.051 A 
ATOM     18  C   UNL     1      -1.386  -1.145  -1.501  0.00  0.00    +0.166 A 
ATOM     19  C   UNL     1      -0.953  -2.081  -2.437  0.00  0.00    +0.168 A 
ATOM     20  C   UNL     1      -0.534  -3.333  -2.019  0.00  0.00    +0.073 A 
ATOM     21  O   UNL     1      -1.031  -1.522  -3.680  0.00  0.00    -0.453 OA
ATOM     22  C   UNL     1      -1.907  -0.387  -3.536  0.00  0.00    +0.466 C 
ATOM     23  O   UNL     1      -1.741  -0.002  -2.159  0.00  0.00    -0.453 OA
ENDBRANCH  12  15
ENDBRANCH   6   8
BRANCH   1  24
ATOM     24  C   UNL     1       4.925  -5.961   4.522  0.00  0.00    +0.119 C 
BRANCH  24  28
ATOM     25  C   UNL     1       8.988  -5.132   3.497  0.00  0.00    +0.000 A 
ATOM     26  C   UNL     1       8.661  -6.323   4.119  0.00  0.00    +0.000 A 
ATOM     27  C   UNL     1       7.346  -6.591   4.451  0.00  0.00    +0.007 A 
ATOM     28  C   UNL     1       6.359  -5.668   4.161  0.00  0.00    -0.011 A 
ATOM     29  C   UNL     1       6.685  -4.480   3.534  0.00  0.00    +0.007 A 
ATOM     30  C   UNL     1       8.000  -4.210   3.206  0.00  0.00    +0.000 A 
ENDBRANCH  24  28
BRANCH  24  31
ATOM     31  C   UNL     1       4.492  -5.045   5.639  0.00  0.00    -0.011 A 
ATOM     32  C   UNL     1       4.351  -3.690   5.406  0.00  0.00    +0.007 A 
ATOM     33  C   UNL     1       3.950  -2.851   6.429  0.00  0.00    +0.000 A 
ATOM     34  C   UNL     1       3.698  -3.367   7.687  0.00  0.00    +0.000 A 
ATOM     35  C   UNL     1       3.844  -4.721   7.921  0.00  0.00    +0.000 A 
ATOM     36  C   UNL     1       4.241  -5.561   6.897  0.00  0.00    +0.007 A 
ENDBRANCH  24  31
BRANCH  24  37
ATOM     37  O   UNL     1       4.809  -7.320   4.948  0.00  0.00    -0.379 OA
ATOM     38  H   UNL     1       3.911  -7.578   5.197  0.00  0.00    +0.211 HD
ENDBRANCH  24  37
ENDBRANCH   1  24
TORSDOF 6
