REMARK  Name = ZINC08902294
REMARK  16 active torsions:
REMARK  status: ('A' for Active; 'I' for Inactive)
REMARK    1  A    between atoms: C_1  and  C_2
REMARK    2  A    between atoms: C_2  and  N_73
REMARK    3  A    between atoms: C_3  and  C_4
REMARK    4  A    between atoms: C_3  and  N_73
REMARK    5  A    between atoms: C_5  and  C_6
REMARK    6  A    between atoms: C_5  and  N_73
REMARK    7  A    between atoms: C_6  and  N_7
REMARK    8  A    between atoms: C_8  and  C_28
REMARK    9  A    between atoms: C_11  and  C_12
REMARK   10  A    between atoms: C_11  and  O_23
REMARK   11  A    between atoms: C_18  and  O_21
REMARK   12  A    between atoms: O_21  and  C_22
REMARK   13  A    between atoms: C_31  and  C_34
REMARK   14  A    between atoms: C_34  and  C_35
REMARK   15  A    between atoms: C_34  and  C_36
REMARK   16  A    between atoms: C_34  and  C_37
REMARK                            x       y       z     vdW  Elec       q    Type
REMARK                         _______ _______ _______ _____ _____    ______ ____
ROOT
ATOM      1  N   UNL     1      -0.918   1.293  -4.105  0.00  0.00    -0.285 N 
ATOM      2  C   UNL     1      -0.323   1.362  -5.443  0.00  0.00    +0.144 C 
ATOM      3  C   UNL     1      -1.453   1.647  -6.405  0.00  0.00    +0.074 C 
ATOM      4  C   UNL     1      -1.360   1.793  -7.779  0.00  0.00    +0.168 C 
ATOM      5  C   UNL     1      -2.614   1.738  -5.626  0.00  0.00    +0.249 C 
ATOM      6  O   UNL     1      -3.737   1.962  -6.042  0.00  0.00    -0.282 OA
ATOM      7  C   UNL     1      -2.240   1.512  -4.205  0.00  0.00    +0.288 C 
ATOM      8  O   UNL     1      -3.015   1.525  -3.271  0.00  0.00    -0.266 OA
ENDROOT
BRANCH   4   9
ATOM      9  C   UNL     1      -2.528   2.215  -8.551  0.00  0.00    +0.171 A 
ATOM     10  C   UNL     1      -2.990   1.603  -9.678  0.00  0.00    +0.061 A 
ATOM     11  C   UNL     1      -4.134   2.327 -10.099  0.00  0.00    +0.025 A 
ATOM     12  C   UNL     1      -5.026   2.190 -11.170  0.00  0.00    +0.012 A 
ATOM     13  C   UNL     1      -6.056   3.075 -11.314  0.00  0.00    +0.004 A 
ATOM     14  C   UNL     1      -6.226   4.113 -10.408  0.00  0.00    +0.049 A 
ATOM     15  C   UNL     1      -5.359   4.268  -9.343  0.00  0.00    +0.163 A 
ATOM     16  C   UNL     1      -4.301   3.376  -9.177  0.00  0.00    +0.177 A 
ATOM     17  O   UNL     1      -3.315   3.273  -8.261  0.00  0.00    -0.448 OA
BRANCH  15  18
ATOM     18  O   UNL     1      -5.536   5.288  -8.461  0.00  0.00    -0.491 OA
ATOM     19  C   UNL     1      -6.641   6.162  -8.695  0.00  0.00    +0.277 C 
ENDBRANCH  15  18
ENDBRANCH   4   9
BRANCH   2  20
ATOM     20  C   UNL     1       0.326   0.047  -5.788  0.00  0.00    -0.022 A 
ATOM     21  C   UNL     1      -0.287  -1.140  -5.434  0.00  0.00    +0.006 A 
ATOM     22  C   UNL     1       0.305  -2.347  -5.755  0.00  0.00    +0.004 A 
ATOM     23  C   UNL     1       1.517  -2.367  -6.421  0.00  0.00    -0.042 A 
ATOM     24  C   UNL     1       2.133  -1.180  -6.770  0.00  0.00    +0.004 A 
ATOM     25  C   UNL     1       1.538   0.027  -6.454  0.00  0.00    +0.006 A 
BRANCH  23  26
ATOM     26  C   UNL     1       2.166  -3.683  -6.766  0.00  0.00    -0.013 C 
ATOM     27  C   UNL     1       3.537  -3.767  -6.094  0.00  0.00    +0.015 C 
ATOM     28  C   UNL     1       1.284  -4.831  -6.272  0.00  0.00    +0.015 C 
ATOM     29  C   UNL     1       2.334  -3.786  -8.283  0.00  0.00    +0.015 C 
ENDBRANCH  23  26
ENDBRANCH   2  20
BRANCH   4  30
ATOM     30  O   UNL     1      -0.188   1.547  -8.407  0.00  0.00    -0.503 OA
ATOM     31  H   UNL     1      -0.298   1.700  -9.389  0.00  0.00    +0.292 HD
ENDBRANCH   4  30
BRANCH   1  32
ATOM     32  C   UNL     1      -0.189   1.033  -2.861  0.00  0.00    +0.090 C 
BRANCH  32  33
ATOM     33  C   UNL     1      -0.157  -0.473  -2.594  0.00  0.00    -0.060 C 
BRANCH  33  34
ATOM     34  N   UNL     1       0.448  -0.707  -1.266  0.00  0.00    +0.380 N 
ATOM     35  H   UNL     1       0.038  -0.049  -0.592  0.00  0.00    -0.082 HD
BRANCH  34  37
ATOM     36  C   UNL     1      -1.298  -2.179  -0.395  0.00  0.00    -0.017 C 
ATOM     37  C   UNL     1       0.169  -2.088  -0.820  0.00  0.00    -0.082 C 
ENDBRANCH  34  37
BRANCH  34  38
ATOM     38  C   UNL     1       1.907  -0.482  -1.330  0.00  0.00    -0.082 C 
ATOM     39  C   UNL     1       2.473  -0.509   0.091  0.00  0.00    -0.017 C 
ENDBRANCH  34  38
ENDBRANCH  33  34
ENDBRANCH  32  33
ENDBRANCH   1  32
TORSDOF 10
