REMARK  Name = ZINC39221949
REMARK  11 active torsions:
REMARK  status: ('A' for Active; 'I' for Inactive)
REMARK    1  A    between atoms: C_1  and  C_2
REMARK    2  A    between atoms: C_4  and  C_33
REMARK    3  A    between atoms: C_6  and  N_8
REMARK    4  A    between atoms: C_9  and  C_11
REMARK    5  A    between atoms: C_11  and  C_13
REMARK    6  A    between atoms: C_11  and  O_19
REMARK    7  A    between atoms: O_19  and  C_20
REMARK    8  A    between atoms: C_20  and  C_22
REMARK    9  A    between atoms: C_22  and  C_24
REMARK   10  A    between atoms: C_22  and  N_25
REMARK   11  A    between atoms: C_26  and  C_28
REMARK                            x       y       z     vdW  Elec       q    Type
REMARK                         _______ _______ _______ _____ _____    ______ ____
ROOT
ATOM      1  C   UNL     1       0.280  -2.900   4.854  0.00  0.00    +0.292 C 
ENDROOT
BRANCH   1   2
ATOM      2  C   UNL     1      -0.979  -3.691   5.098  0.00  0.00    +0.002 A 
ATOM      3  C   UNL     1      -2.099  -3.066   5.615  0.00  0.00    +0.008 A 
ATOM      4  C   UNL     1      -3.254  -3.791   5.839  0.00  0.00    +0.000 A 
ATOM      5  C   UNL     1      -3.290  -5.141   5.545  0.00  0.00    +0.000 A 
ATOM      6  C   UNL     1      -2.171  -5.766   5.027  0.00  0.00    +0.000 A 
ATOM      7  C   UNL     1      -1.017  -5.040   4.799  0.00  0.00    +0.008 A 
ENDBRANCH   1   2
BRANCH   1   9
ATOM      8  N   UNL     1       0.052  -2.797   2.393  0.00  0.00    -0.282 N 
ATOM      9  C   UNL     1       0.150  -2.134   3.562  0.00  0.00    +0.263 C 
ATOM     10  O   UNL     1       0.134  -0.922   3.575  0.00  0.00    -0.271 OA
ATOM     11  H   UNL     1      -0.012  -3.765   2.388  0.00  0.00    +0.155 HD
BRANCH   8  17
ATOM     12  C   UNL     1      -1.512  -2.365  -2.248  0.00  0.00    +0.044 C 
ATOM     13  C   UNL     1      -0.707  -1.857  -1.080  0.00  0.00    -0.048 A 
ATOM     14  C   UNL     1       0.025  -0.690  -1.201  0.00  0.00    +0.006 A 
ATOM     15  C   UNL     1       0.765  -0.220  -0.131  0.00  0.00    -0.048 A 
ATOM     16  C   UNL     1       0.776  -0.917   1.061  0.00  0.00    +0.026 A 
ATOM     17  C   UNL     1       0.043  -2.089   1.186  0.00  0.00    +0.034 A 
ATOM     18  C   UNL     1      -0.704  -2.555   0.112  0.00  0.00    +0.026 A 
ATOM     19  C   UNL     1       1.561   1.052  -0.268  0.00  0.00    +0.044 C 
ENDBRANCH   8  17
ENDBRANCH   1   9
BRANCH   1  20
ATOM     20  O   UNL     1       0.484  -1.984   5.932  0.00  0.00    -0.446 OA
BRANCH  20  21
ATOM     21  C   UNL     1       1.205  -2.423   6.976  0.00  0.00    +0.328 C 
ATOM     22  O   UNL     1       1.648  -3.547   6.974  0.00  0.00    -0.249 OA
BRANCH  21  23
ATOM     23  C   UNL     1       1.462  -1.514   8.149  0.00  0.00    +0.179 C 
ATOM     24  C   UNL     1       0.128  -1.095   8.771  0.00  0.00    +0.040 C 
BRANCH  23  25
ATOM     25  N   UNL     1       2.265  -2.222   9.149  0.00  0.00    -0.296 N 
ATOM     26  C   UNL     1       3.033  -1.526  10.011  0.00  0.00    +0.280 C 
ATOM     27  O   UNL     1       3.059  -0.311   9.960  0.00  0.00    -0.267 OA
ATOM     28  H   UNL     1       2.245  -3.191   9.190  0.00  0.00    +0.150 HD
BRANCH  26  29
ATOM     29  C   UNL     1       3.838  -2.235  11.012  0.00  0.00    +0.189 A 
ATOM     30  C   UNL     1       4.651  -1.656  11.944  0.00  0.00    +0.054 A 
ATOM     31  C   UNL     1       5.221  -2.702  12.687  0.00  0.00    +0.042 A 
ATOM     32  C   UNL     1       4.737  -3.858  12.183  0.00  0.00    +0.196 A 
ATOM     33  O   UNL     1       3.900  -3.573  11.177  0.00  0.00    -0.458 OA
ENDBRANCH  26  29
ENDBRANCH  23  25
ENDBRANCH  21  23
ENDBRANCH  20  21
ENDBRANCH   1  20
TORSDOF 8
