REMARK  Name = ZINC35069173
REMARK  19 active torsions:
REMARK  status: ('A' for Active; 'I' for Inactive)
REMARK    1  A    between atoms: C_1  and  C_2
REMARK    2  A    between atoms: C_5  and  N_9
REMARK    3  A    between atoms: C_7  and  C_8
REMARK    4  A    between atoms: C_19  and  C_20
REMARK    5  A    between atoms: C_20  and  C_22
REMARK    6  A    between atoms: C_20  and  N_23
REMARK    7  A    between atoms: N_23  and  C_24
REMARK    8  A    between atoms: C_24  and  C_25
REMARK    9  A    between atoms: C_25  and  N_26
REMARK   10  A    between atoms: N_26  and  C_27
REMARK   11  A    between atoms: N_26  and  C_28
REMARK   12  A    between atoms: C_29  and  C_31
REMARK   13  A    between atoms: C_31  and  C_32
REMARK   14  A    between atoms: C_32  and  C_34
REMARK   15  A    between atoms: C_32  and  C_35
REMARK   16  A    between atoms: C_35  and  C_36
REMARK   17  A    between atoms: C_36  and  C_37
REMARK   18  A    between atoms: C_36  and  C_38
REMARK   19  A    between atoms: C_36  and  C_39
REMARK                            x       y       z     vdW  Elec       q    Type
REMARK                         _______ _______ _______ _____ _____    ______ ____
ROOT
ATOM      1  N   UNL     1       1.510  -1.432  -1.887  0.00  0.00    -0.263 N 
ATOM      2  C   UNL     1       1.569  -1.543  -0.540  0.00  0.00    +0.266 A 
ATOM      3  O   UNL     1       2.630  -1.482   0.054  0.00  0.00    -0.267 OA
ATOM      4  C   UNL     1       0.302  -1.740   0.180  0.00  0.00    +0.065 A 
ATOM      5  C   UNL     1       0.254  -1.865   1.567  0.00  0.00    +0.015 A 
ATOM      6  C   UNL     1      -0.960  -2.047   2.191  0.00  0.00    +0.001 A 
ATOM      7  C   UNL     1      -2.133  -2.107   1.449  0.00  0.00    +0.002 A 
ATOM      8  C   UNL     1      -2.108  -1.986   0.078  0.00  0.00    +0.028 A 
ATOM      9  C   UNL     1      -0.889  -1.800  -0.578  0.00  0.00    +0.078 A 
ATOM     10  N   UNL     1      -0.818  -1.675  -1.926  0.00  0.00    -0.231 NA
ATOM     11  C   UNL     1       0.315  -1.496  -2.535  0.00  0.00    +0.138 A 
ENDROOT
BRANCH   1  16
ATOM     12  C   UNL     1       6.283  -0.668  -4.858  0.00  0.00    +0.044 C 
ATOM     13  C   UNL     1       5.015  -0.871  -4.069  0.00  0.00    -0.047 A 
ATOM     14  C   UNL     1       4.168   0.197  -3.839  0.00  0.00    +0.005 A 
ATOM     15  C   UNL     1       3.005   0.015  -3.116  0.00  0.00    +0.026 A 
ATOM     16  C   UNL     1       2.688  -1.243  -2.621  0.00  0.00    +0.051 A 
ATOM     17  C   UNL     1       3.541  -2.314  -2.854  0.00  0.00    +0.030 A 
ATOM     18  C   UNL     1       4.699  -2.126  -3.582  0.00  0.00    -0.046 A 
ATOM     19  C   UNL     1       5.623  -3.288  -3.841  0.00  0.00    +0.044 C 
ENDBRANCH   1  16
BRANCH  11  20
ATOM     20  C   UNL     1       0.307  -1.360  -4.036  0.00  0.00    +0.139 C 
ATOM     21  C   UNL     1      -0.614  -0.206  -4.438  0.00  0.00    +0.036 C 
BRANCH  20  22
ATOM     22  N   UNL     1      -0.179  -2.605  -4.637  0.00  0.00    -0.293 N 
ATOM     23  C   UNL     1       0.610  -3.298  -5.482  0.00  0.00    +0.216 C 
ATOM     24  O   UNL     1       1.722  -2.890  -5.745  0.00  0.00    -0.276 OA
BRANCH  22  25
ATOM     25  C   UNL     1      -1.522  -3.097  -4.319  0.00  0.00    +0.090 C 
BRANCH  25  26
ATOM     26  C   UNL     1      -2.526  -2.522  -5.320  0.00  0.00    -0.060 C 
BRANCH  26  27
ATOM     27  N   UNL     1      -3.872  -3.015  -5.001  0.00  0.00    +0.377 N 
ATOM     28  C   UNL     1      -4.287  -2.494  -3.692  0.00  0.00    -0.097 C 
ATOM     29  C   UNL     1      -4.816  -2.561  -6.031  0.00  0.00    -0.097 C 
ATOM     30  H   UNL     1      -3.863  -4.024  -4.974  0.00  0.00    -0.083 HD
ENDBRANCH  26  27
ENDBRANCH  25  26
ENDBRANCH  22  25
BRANCH  23  31
ATOM     31  C   UNL     1       0.111  -4.578  -6.100  0.00  0.00    +0.099 C 
BRANCH  31  32
ATOM     32  C   UNL     1       1.192  -5.160  -7.012  0.00  0.00    -0.005 C 
ATOM     33  C   UNL     1       2.406  -5.562  -6.172  0.00  0.00    +0.008 C 
BRANCH  32  34
ATOM     34  C   UNL     1       0.642  -6.391  -7.735  0.00  0.00    +0.010 C 
BRANCH  34  35
ATOM     35  C   UNL     1       1.663  -6.876  -8.766  0.00  0.00    -0.037 C 
ATOM     36  C   UNL     1       2.775  -7.652  -8.057  0.00  0.00    +0.010 C 
ATOM     37  C   UNL     1       0.971  -7.789  -9.780  0.00  0.00    +0.010 C 
ATOM     38  C   UNL     1       2.266  -5.672  -9.493  0.00  0.00    +0.010 C 
ENDBRANCH  34  35
ENDBRANCH  32  34
ENDBRANCH  31  32
ENDBRANCH  23  31
ENDBRANCH  20  22
ENDBRANCH  11  20
TORSDOF 10
