REMARK  Name = ZINC36603081
REMARK  16 active torsions:
REMARK  status: ('A' for Active; 'I' for Inactive)
REMARK    1  A    between atoms: C_1  and  C_2
REMARK    2  A    between atoms: C_5  and  C_7
REMARK    3  A    between atoms: C_7  and  N_8
REMARK    4  A    between atoms: N_8  and  C_9
REMARK    5  A    between atoms: C_9  and  C_11
REMARK    6  A    between atoms: C_9  and  C_17
REMARK    7  A    between atoms: N_19  and  C_20
REMARK    8  A    between atoms: C_20  and  C_21
REMARK    9  A    between atoms: C_20  and  C_22
REMARK   10  A    between atoms: C_20  and  C_23
REMARK   11  A    between atoms: C_23  and  C_24
REMARK   12  A    between atoms: C_24  and  C_25
REMARK   13  A    between atoms: C_24  and  C_26
REMARK   14  A    between atoms: C_24  and  C_27
REMARK   15  A    between atoms: C_28  and  C_30
REMARK   16  A    between atoms: C_33  and  N_36
REMARK                            x       y       z     vdW  Elec       q    Type
REMARK                         _______ _______ _______ _____ _____    ______ ____
ROOT
ATOM      1  N   UNL     1       2.916  -3.670   0.038  0.00  0.00    -0.275 N 
ATOM      2  C   UNL     1       1.654  -4.095   0.244  0.00  0.00    +0.248 C 
ATOM      3  O   UNL     1       1.320  -4.496   1.342  0.00  0.00    -0.270 OA
ENDROOT
BRANCH   2   4
ATOM      4  C   UNL     1       0.676  -4.073  -0.864  0.00  0.00    +0.037 A 
ATOM      5  C   UNL     1       1.018  -3.500  -2.090  0.00  0.00    +0.015 A 
ATOM      6  C   UNL     1       0.101  -3.483  -3.120  0.00  0.00    +0.033 A 
ATOM      7  C   UNL     1      -1.156  -4.032  -2.940  0.00  0.00    +0.126 A 
ATOM      8  C   UNL     1      -1.502  -4.600  -1.727  0.00  0.00    +0.033 A 
ATOM      9  C   UNL     1      -0.592  -4.629  -0.691  0.00  0.00    +0.015 A 
BRANCH   7  10
ATOM     10  N   UNL     1      -2.135  -4.010  -4.050  0.00  0.00    +0.056 N 
ATOM     11  O   UNL     1      -1.836  -3.513  -5.111  0.00  0.00    -0.126 OA
ATOM     12  O   UNL     1      -3.235  -4.488  -3.895  0.00  0.00    -0.126 OA
ENDBRANCH   7  10
ENDBRANCH   2   4
BRANCH   1  13
ATOM     13  C   UNL     1       3.945  -3.908   1.054  0.00  0.00    +0.183 C 
BRANCH  13  18
ATOM     14  C   UNL     1       4.666  -8.900   1.111  0.00  0.00    +0.086 C 
ATOM     15  C   UNL     1       4.884  -7.431   0.854  0.00  0.00    +0.102 A 
ATOM     16  C   UNL     1       5.938  -6.893   0.215  0.00  0.00    +0.045 A 
ATOM     17  C   UNL     1       5.736  -5.493   0.198  0.00  0.00    +0.046 A 
ATOM     18  C   UNL     1       4.570  -5.261   0.828  0.00  0.00    +0.122 A 
ATOM     19  O   UNL     1       4.056  -6.439   1.218  0.00  0.00    -0.463 OA
ENDBRANCH  13  18
ENDBRANCH   1  13
BRANCH   1  20
ATOM     20  C   UNL     1       3.260  -2.971  -1.203  0.00  0.00    +0.193 C 
BRANCH  20  21
ATOM     21  C   UNL     1       2.453  -1.703  -1.305  0.00  0.00    -0.018 A 
ATOM     22  C   UNL     1       2.100  -1.014  -0.160  0.00  0.00    +0.006 A 
ATOM     23  C   UNL     1       1.360   0.150  -0.253  0.00  0.00    +0.000 A 
ATOM     24  C   UNL     1       0.973   0.625  -1.492  0.00  0.00    +0.000 A 
ATOM     25  C   UNL     1       1.326  -0.064  -2.638  0.00  0.00    +0.000 A 
ATOM     26  C   UNL     1       2.070  -1.225  -2.544  0.00  0.00    +0.006 A 
ENDBRANCH  20  21
BRANCH  20  27
ATOM     27  C   UNL     1       4.729  -2.633  -1.199  0.00  0.00    +0.239 C 
ATOM     28  O   UNL     1       5.448  -3.066  -0.323  0.00  0.00    -0.273 OA
ATOM     29  N   UNL     1       5.243  -1.850  -2.167  0.00  0.00    -0.308 N 
ATOM     30  H   UNL     1       4.657  -1.447  -2.828  0.00  0.00    +0.149 HD
BRANCH  29  31
ATOM     31  C   UNL     1       6.686  -1.607  -2.224  0.00  0.00    +0.030 C 
ATOM     32  C   UNL     1       7.085  -0.640  -1.107  0.00  0.00    +0.031 C 
ATOM     33  C   UNL     1       7.434  -2.929  -2.044  0.00  0.00    +0.031 C 
BRANCH  31  34
ATOM     34  C   UNL     1       7.048  -0.996  -3.579  0.00  0.00    +0.031 C 
BRANCH  34  35
ATOM     35  C   UNL     1       6.322  -1.756  -4.691  0.00  0.00    -0.036 C 
ATOM     36  C   UNL     1       4.849  -1.341  -4.715  0.00  0.00    +0.010 C 
ATOM     37  C   UNL     1       6.966  -1.427  -6.039  0.00  0.00    +0.010 C 
ATOM     38  C   UNL     1       6.423  -3.260  -4.431  0.00  0.00    +0.010 C 
ENDBRANCH  34  35
ENDBRANCH  31  34
ENDBRANCH  29  31
ENDBRANCH  20  27
ENDBRANCH   1  20
TORSDOF 10
