REMARK  Name = ZINC15817179
REMARK  8 active torsions:
REMARK  status: ('A' for Active; 'I' for Inactive)
REMARK    1  A    between atoms: C_1  and  C_2
REMARK    2  A    between atoms: C_5  and  N_9
REMARK    3  A    between atoms: C_6  and  C_8
REMARK    4  A    between atoms: C_19  and  S_20
REMARK    5  A    between atoms: S_20  and  C_21
REMARK    6  A    between atoms: C_21  and  C_23
REMARK    7  A    between atoms: C_21  and  C_24
REMARK    8  A    between atoms: N_26  and  C_27
REMARK                            x       y       z     vdW  Elec       q    Type
REMARK                         _______ _______ _______ _____ _____    ______ ____
ROOT
ATOM      1  N   UNL     1      -2.495   3.790   0.043  0.00  0.00    -0.255 N 
ATOM      2  C   UNL     1      -3.080   4.101   1.223  0.00  0.00    +0.267 A 
ATOM      3  O   UNL     1      -2.563   3.798   2.283  0.00  0.00    -0.267 OA
ATOM      4  C   UNL     1      -4.358   4.824   1.179  0.00  0.00    +0.065 A 
ATOM      5  C   UNL     1      -5.035   5.194   2.340  0.00  0.00    +0.015 A 
ATOM      6  C   UNL     1      -6.226   5.860   2.242  0.00  0.00    +0.001 A 
ATOM      7  C   UNL     1      -6.764   6.173   1.000  0.00  0.00    +0.002 A 
ATOM      8  C   UNL     1      -6.121   5.823  -0.153  0.00  0.00    +0.028 A 
ATOM      9  C   UNL     1      -4.903   5.140  -0.086  0.00  0.00    +0.079 A 
ATOM     10  N   UNL     1      -4.232   4.774  -1.204  0.00  0.00    -0.223 NA
ATOM     11  C   UNL     1      -3.091   4.134  -1.139  0.00  0.00    +0.177 A 
ENDROOT
BRANCH   1  16
ATOM     12  C   UNL     1       2.456   1.018  -0.002  0.00  0.00    +0.044 C 
ATOM     13  C   UNL     1       1.141   1.754   0.010  0.00  0.00    -0.050 A 
ATOM     14  C   UNL     1       1.125   3.137   0.024  0.00  0.00    +0.005 A 
ATOM     15  C   UNL     1      -0.079   3.814   0.035  0.00  0.00    +0.027 A 
ATOM     16  C   UNL     1      -1.273   3.106   0.032  0.00  0.00    +0.055 A 
ATOM     17  C   UNL     1      -1.253   1.718   0.012  0.00  0.00    -0.026 A 
ATOM     18  C   UNL     1      -0.046   1.046   0.006  0.00  0.00    +0.008 A 
ATOM     19  C   UNL     1      -2.547   0.945   0.002  0.00  0.00    +0.046 C 
ENDBRANCH   1  16
BRANCH  11  20
ATOM     20  S   UNL     1      -2.287   3.696  -2.644  0.00  0.00    -0.075 S 
BRANCH  20  21
ATOM     21  C   UNL     1      -3.468   4.368  -3.839  0.00  0.00    +0.137 C 
ATOM     22  C   UNL     1      -4.793   3.610  -3.728  0.00  0.00    +0.029 C 
BRANCH  21  23
ATOM     23  C   UNL     1      -2.917   4.212  -5.233  0.00  0.00    +0.230 C 
ATOM     24  O   UNL     1      -2.106   3.342  -5.471  0.00  0.00    -0.274 OA
ATOM     25  N   UNL     1      -3.324   5.040  -6.215  0.00  0.00    -0.282 N 
ATOM     26  H   UNL     1      -4.020   5.694  -6.041  0.00  0.00    +0.155 HD
BRANCH  25  27
ATOM     27  C   UNL     1      -2.744   4.957  -7.487  0.00  0.00    +0.072 A 
ATOM     28  C   UNL     1      -2.348   3.726  -7.991  0.00  0.00    +0.064 A 
ATOM     29  C   UNL     1      -1.775   3.647  -9.248  0.00  0.00    +0.125 A 
ATOM     30  C   UNL     1      -1.597   4.795 -10.003  0.00  0.00    +0.041 A 
ATOM     31  C   UNL     1      -1.990   6.022  -9.502  0.00  0.00    +0.043 A 
ATOM     32  C   UNL     1      -2.568   6.107  -8.249  0.00  0.00    +0.145 A 
ATOM     33  F   UNL     1      -2.957   7.306  -7.763  0.00  0.00    -0.204 F 
ATOM     34  F   UNL     1      -1.390   2.449  -9.740  0.00  0.00    -0.205 F 
ENDBRANCH  25  27
ENDBRANCH  21  23
ENDBRANCH  20  21
ENDBRANCH  11  20
TORSDOF 5
