REMARK  Name = ZINC06221887
REMARK  7 active torsions:
REMARK  status: ('A' for Active; 'I' for Inactive)
REMARK    1  A    between atoms: C_3  and  S_10
REMARK    2  A    between atoms: C_6  and  N_7
REMARK    3  A    between atoms: S_10  and  C_11
REMARK    4  A    between atoms: C_11  and  C_12
REMARK    5  A    between atoms: N_14  and  N_15
REMARK    6  A    between atoms: C_16  and  C_17
REMARK    7  A    between atoms: C_20  and  O_24
REMARK                            x       y       z     vdW  Elec       q    Type
REMARK                         _______ _______ _______ _____ _____    ______ ____
ROOT
ATOM      1  C   UNL     1       3.434   6.308   0.002  0.00  0.00    +0.242 C 
ATOM      2  O   UNL     1       4.491   5.712  -0.011  0.00  0.00    -0.273 OA
ATOM      3  N   UNL     1       2.274   5.622   0.010  0.00  0.00    -0.206 N 
ATOM      4  H   UNL     1       1.429   6.099   0.020  0.00  0.00    +0.177 HD
ENDROOT
BRANCH   3   5
ATOM      5  N   UNL     1       2.288   4.222   0.002  0.00  0.00    -0.188 NA
ATOM      6  C   UNL     1       1.171   3.562   0.009  0.00  0.00    +0.138 C 
BRANCH   6   7
ATOM      7  C   UNL     1       1.185   2.087   0.002  0.00  0.00    -0.004 A 
ATOM      8  C   UNL     1       2.401   1.399  -0.014  0.00  0.00    +0.013 A 
ATOM      9  C   UNL     1       2.410   0.021  -0.021  0.00  0.00    +0.047 A 
ATOM     10  C   UNL     1       1.214  -0.684  -0.014  0.00  0.00    +0.131 A 
ATOM     11  C   UNL     1       0.002  -0.004   0.002  0.00  0.00    +0.060 A 
ATOM     12  C   UNL     1      -0.017   1.375   0.010  0.00  0.00    +0.028 A 
ATOM     13 BR   UNL     1      -1.623  -0.971   0.012  0.00  0.00    -0.047 Br
BRANCH  10  14
ATOM     14  O   UNL     1       1.228  -2.043  -0.022  0.00  0.00    -0.506 OA
ATOM     15  H   UNL     1       1.224  -2.431  -0.908  0.00  0.00    +0.292 HD
ENDBRANCH  10  14
ENDBRANCH   6   7
ENDBRANCH   3   5
BRANCH   1  16
ATOM     16  C   UNL     1       3.420   7.815   0.010  0.00  0.00    +0.171 C 
BRANCH  16  17
ATOM     17  S   UNL     1       5.124   8.437  -0.003  0.00  0.00    -0.116 S 
BRANCH  17  20
ATOM     18  C   UNL     1       5.912  12.381   0.010  0.00  0.00    +0.034 A 
ATOM     19  C   UNL     1       6.061  11.008   0.001  0.00  0.00    +0.017 A 
ATOM     20  C   UNL     1       4.938  10.189   0.008  0.00  0.00    +0.008 A 
ATOM     21  C   UNL     1       3.669  10.755   0.017  0.00  0.00    +0.017 A 
ATOM     22  C   UNL     1       3.528  12.128   0.031  0.00  0.00    +0.034 A 
ATOM     23  C   UNL     1       4.647  12.941   0.024  0.00  0.00    +0.126 A 
BRANCH  23  24
ATOM     24  N   UNL     1       4.491  14.412   0.032  0.00  0.00    +0.056 N 
ATOM     25  O   UNL     1       5.476  15.129   0.027  0.00  0.00    -0.126 OA
ATOM     26  O   UNL     1       3.378  14.907   0.045  0.00  0.00    -0.126 OA
ENDBRANCH  23  24
ENDBRANCH  17  20
ENDBRANCH  16  17
ENDBRANCH   1  16
TORSDOF 7
