REMARK  Name = ZINC38611629
REMARK  6 active torsions:
REMARK  status: ('A' for Active; 'I' for Inactive)
REMARK    1  A    between atoms: C_1  and  C_2
REMARK    2  A    between atoms: C_2  and  C_3
REMARK    3  A    between atoms: C_3  and  C_4
REMARK    4  A    between atoms: C_6  and  C_18
REMARK    5  A    between atoms: C_8  and  C_16
REMARK    6  A    between atoms: C_9  and  N_15
REMARK                            x       y       z     vdW  Elec       q    Type
REMARK                         _______ _______ _______ _____ _____    ______ ____
ROOT
ATOM      1  C   UNL     1      -1.122  -1.907   0.331  0.00  0.00    +0.069 C 
ATOM      2  C   UNL     1      -1.349  -2.632   1.400  0.00  0.00    +0.026 C 
ATOM      3  C   UNL     1      -1.807  -2.305   2.795  0.00  0.00    +0.075 C 
ATOM      4  C   UNL     1      -2.816  -3.380   3.155  0.00  0.00    +0.094 C 
ATOM      5  C   UNL     1      -3.008  -4.462   2.372  0.00  0.00    +0.195 C 
ATOM      6  O   UNL     1      -2.394  -4.730   1.206  0.00  0.00    -0.448 OA
ATOM      7  C   UNL     1      -1.147  -4.079   0.951  0.00  0.00    +0.343 C 
ATOM      8  N   UNL     1      -0.887  -3.920  -0.483  0.00  0.00    -0.138 NA
ATOM      9  N   UNL     1      -0.873  -2.708  -0.737  0.00  0.00    -0.155 NA
ENDROOT
BRANCH   3  10
ATOM     10  C   UNL     1      -2.466  -0.925   2.826  0.00  0.00    +0.024 C 
ATOM     11  C   UNL     1      -2.755  -0.533   4.277  0.00  0.00    +0.009 C 
ATOM     12  C   UNL     1      -3.641   0.719   4.275  0.00  0.00    +0.005 C 
ATOM     13  C   UNL     1      -5.011   0.340   3.709  0.00  0.00    +0.027 C 
ATOM     14  C   UNL     1      -4.849  -0.412   2.420  0.00  0.00    -0.031 C 
ATOM     15  C   UNL     1      -3.744  -0.967   2.041  0.00  0.00    -0.027 C 
ENDBRANCH   3  10
BRANCH   5  16
ATOM     16  N   UNL     1      -3.925  -5.385   2.811  0.00  0.00    -0.329 N 
ATOM     17  H   UNL     1      -4.396  -5.240   3.646  0.00  0.00    +0.145 HD
ATOM     18  H   UNL     1      -4.101  -6.181   2.286  0.00  0.00    +0.145 HD
ENDBRANCH   5  16
BRANCH   4  19
ATOM     19  C   UNL     1      -3.583  -3.243   4.356  0.00  0.00    +0.100 C 
ATOM     20  N   UNL     1      -4.192  -3.134   5.309  0.00  0.00    -0.191 NA
ENDBRANCH   4  19
BRANCH   1  21
ATOM     21  C   UNL     1      -1.140  -0.401   0.292  0.00  0.00    +0.057 C 
BRANCH  21  23
ATOM     22  C   UNL     1       0.181   1.668   0.756  0.00  0.00    +0.004 C 
ATOM     23  C   UNL     1       0.194   0.139   0.811  0.00  0.00    +0.003 C 
ENDBRANCH  21  23
ENDBRANCH   1  21
TORSDOF 5
