REMARK  Name = ZINC33822035
REMARK  12 active torsions:
REMARK  status: ('A' for Active; 'I' for Inactive)
REMARK    1  A    between atoms: N_3  and  C_10
REMARK    2  A    between atoms: C_12  and  O_34
REMARK    3  A    between atoms: C_14  and  O_33
REMARK    4  A    between atoms: C_16  and  C_19
REMARK    5  A    between atoms: C_19  and  O_20
REMARK    6  A    between atoms: O_20  and  P_21
REMARK    7  A    between atoms: P_21  and  O_24
REMARK    8  A    between atoms: O_24  and  P_25
REMARK    9  A    between atoms: P_25  and  O_28
REMARK   10  A    between atoms: O_28  and  P_29
REMARK   11  A    between atoms: P_29  and  O_31
REMARK   12  A    between atoms: P_29  and  O_32
REMARK                            x       y       z     vdW  Elec       q    Type
REMARK                         _______ _______ _______ _____ _____    ______ ____
ROOT
ATOM      1  C   UNL     1       2.416   1.158  -0.014  0.00  0.00    +0.255 C 
ATOM      2  C   UNL     1       3.208   1.465  -1.310  0.00  0.00    +0.195 C 
ATOM      3  C   UNL     1       4.665   1.173  -0.877  0.00  0.00    +0.178 C 
ATOM      4  C   UNL     1       4.628   1.269   0.661  0.00  0.00    +0.178 C 
ATOM      5  O   UNL     1       3.287   1.629   1.037  0.00  0.00    -0.346 OA
ENDROOT
BRANCH   1   8
ATOM      6  C   UNL     1      -0.015   3.934   0.022  0.00  0.00    +0.088 A 
ATOM      7  C   UNL     1       1.154   3.259   0.008  0.00  0.00    +0.098 A 
ATOM      8  N   UNL     1       1.147   1.891   0.001  0.00  0.00    -0.271 N 
ATOM      9  C   UNL     1      -0.014   1.212   0.009  0.00  0.00    +0.331 A 
ATOM     10  O   UNL     1       0.002  -0.004   0.002  0.00  0.00    -0.246 OA
ATOM     11  N   UNL     1      -1.194   1.859   0.018  0.00  0.00    -0.275 N 
ATOM     12  H   UNL     1      -2.135   1.289   0.015  0.00  0.00    +0.173 HD
ATOM     13  C   UNL     1      -1.230   3.207   0.030  0.00  0.00    +0.254 A 
ATOM     14  O   UNL     1      -2.297   3.794   0.043  0.00  0.00    -0.268 OA
ENDBRANCH   1   8
BRANCH   3  15
ATOM     15  O   UNL     1       5.055  -0.139  -1.287  0.00  0.00    -0.386 OA
ATOM     16  H   UNL     1       6.065  -0.510  -1.058  0.00  0.00    +0.210 HD
ENDBRANCH   3  15
BRANCH   2  17
ATOM     17  O   UNL     1       2.807   0.596  -2.371  0.00  0.00    -0.385 OA
ATOM     18  H   UNL     1       3.276   0.685  -3.362  0.00  0.00    +0.210 HD
ENDBRANCH   2  17
BRANCH   4  19
ATOM     19  C   UNL     1       5.613   2.338   1.139  0.00  0.00    +0.206 C 
BRANCH  19  20
ATOM     20  O   UNL     1       5.658   2.339   2.567  0.00  0.00    -0.282 OA
BRANCH  20  21
ATOM     21  P   UNL     1       6.592   3.341   3.414  0.00  0.00    +0.513 P 
ATOM     22  O   UNL     1       6.303   4.737   3.019  0.00  0.00    -0.224 OA
ATOM     23  O   UNL     1       8.139   3.008   3.120  0.00  0.00    -0.116 OA
BRANCH  21  24
ATOM     24  O   UNL     1       6.292   3.154   4.985  0.00  0.00    -0.183 OA
BRANCH  24  25
ATOM     25  P   UNL     1       6.545   4.066   6.287  0.00  0.00    +0.520 P 
ATOM     26  O   UNL     1       6.141   5.461   6.000  0.00  0.00    -0.224 OA
ATOM     27  O   UNL     1       8.107   4.029   6.674  0.00  0.00    -0.116 OA
BRANCH  25  28
ATOM     28  O   UNL     1       5.674   3.498   7.517  0.00  0.00    -0.209 OA
BRANCH  28  29
ATOM     29  P   UNL     1       5.157   4.128   8.906  0.00  0.00    +0.312 P 
ATOM     30  S   UNL     1       6.620   4.665   9.927  0.00  0.00    +0.023 S 
BRANCH  29  31
ATOM     31  O   UNL     1       4.218   5.400   8.602  0.00  0.00    -0.327 OA
ATOM     32  H   UNL     1       3.770   5.963   9.434  0.00  0.00    +0.219 HD
ENDBRANCH  29  31
BRANCH  29  33
ATOM     33  O   UNL     1       4.315   3.020   9.716  0.00  0.00    -0.327 OA
ATOM     34  H   UNL     1       3.879   3.269  10.695  0.00  0.00    +0.219 HD
ENDBRANCH  29  33
ENDBRANCH  28  29
ENDBRANCH  25  28
ENDBRANCH  24  25
ENDBRANCH  21  24
ENDBRANCH  20  21
ENDBRANCH  19  20
ENDBRANCH   4  19
TORSDOF 12
