REMARK  Name = ZINC57466481
REMARK  6 active torsions:
REMARK  status: ('A' for Active; 'I' for Inactive)
REMARK    1  A    between atoms: C_1  and  C_2
REMARK    2  A    between atoms: C_2  and  C_3
REMARK    3  A    between atoms: C_2  and  S_4
REMARK    4  A    between atoms: S_4  and  C_5
REMARK    5  A    between atoms: C_8  and  C_11
REMARK    6  A    between atoms: N_9  and  N_10
REMARK                            x       y       z     vdW  Elec       q    Type
REMARK                         _______ _______ _______ _____ _____    ______ ____
ROOT
ATOM      1  C   UNL     1      -1.512  -2.377  -0.145  0.00  0.00    +0.209 A 
ATOM      2  N   UNL     1      -0.379  -3.034  -0.242  0.00  0.00    -0.121 NA
ATOM      3  N   UNL     1      -0.613  -4.294  -0.345  0.00  0.00    -0.132 NA
ATOM      4  C   UNL     1      -1.897  -4.513  -0.320  0.00  0.00    +0.154 A 
ATOM      5  N   UNL     1      -2.516  -3.301  -0.186  0.00  0.00    -0.228 N 
ENDROOT
BRANCH   4   6
ATOM      6  C   UNL     1      -2.575  -5.856  -0.415  0.00  0.00    +0.059 C 
ATOM      7  C   UNL     1      -2.119  -6.741   0.746  0.00  0.00    +0.011 C 
ATOM      8  C   UNL     1      -2.808  -8.104   0.650  0.00  0.00    +0.001 C 
ATOM      9  C   UNL     1      -2.436  -8.771  -0.676  0.00  0.00    +0.000 C 
ATOM     10  C   UNL     1      -2.892  -7.886  -1.838  0.00  0.00    +0.001 C 
ATOM     11  C   UNL     1      -2.204  -6.522  -1.741  0.00  0.00    +0.011 C 
ENDBRANCH   4   6
BRANCH   5  12
ATOM     12  N   UNL     1      -3.859  -3.064  -0.112  0.00  0.00    -0.295 N 
ATOM     13  H   UNL     1      -4.252  -2.919  -1.030  0.00  0.00    +0.163 HD
ATOM     14  H   UNL     1      -4.332  -3.813   0.370  0.00  0.00    +0.163 HD
ENDBRANCH   5  12
BRANCH   1  15
ATOM     15  S   UNL     1      -1.700  -0.632   0.015  0.00  0.00    -0.082 S 
BRANCH  15  17
ATOM     16  C   UNL     1      -0.019   1.526   0.010  0.00  0.00    +0.019 C 
ATOM     17  C   UNL     1       0.002  -0.004   0.002  0.00  0.00    +0.048 C 
ATOM     18  C   UNL     1       0.742  -0.511   1.242  0.00  0.00    +0.019 C 
ENDBRANCH  15  17
ENDBRANCH   1  15
TORSDOF 4
