REMARK  Name = ZINC14269369
REMARK  6 active torsions:
REMARK  status: ('A' for Active; 'I' for Inactive)
REMARK    1  A    between atoms: C_1  and  C_2
REMARK    2  A    between atoms: C_5  and  N_11
REMARK    3  A    between atoms: C_6  and  N_8
REMARK    4  A    between atoms: N_11  and  C_12
REMARK    5  A    between atoms: C_12  and  N_14
REMARK    6  A    between atoms: C_15  and  C_17
REMARK                            x       y       z     vdW  Elec       q    Type
REMARK                         _______ _______ _______ _____ _____    ______ ____
ROOT
ATOM      1  N   UNL     1      -3.729   1.808  -0.508  0.00  0.00    -0.264 N 
ATOM      2  C   UNL     1      -4.851   1.071  -0.628  0.00  0.00    +0.250 C 
ATOM      3  O   UNL     1      -4.789  -0.142  -0.576  0.00  0.00    -0.270 OA
ATOM      4  H   UNL     1      -3.779   2.776  -0.549  0.00  0.00    +0.157 HD
ENDROOT
BRANCH   2   5
ATOM      5  C   UNL     1      -6.152   1.734  -0.821  0.00  0.00    +0.045 A 
ATOM      6  C   UNL     1      -6.258   3.119  -0.762  0.00  0.00    +0.014 A 
ATOM      7  C   UNL     1      -7.484   3.741  -0.949  0.00  0.00    +0.001 A 
ATOM      8  C   UNL     1      -8.622   3.031  -1.185  0.00  0.00    +0.009 A 
ATOM      9  C   UNL     1      -8.590   1.629  -1.252  0.00  0.00    -0.003 A 
ATOM     10  C   UNL     1      -7.359   0.951  -1.073  0.00  0.00    -0.005 A 
ATOM     11  C   UNL     1      -7.323  -0.447  -1.139  0.00  0.00    +0.009 A 
ATOM     12  C   UNL     1      -8.473  -1.141  -1.375  0.00  0.00    +0.002 A 
ATOM     13  C   UNL     1      -9.685  -0.478  -1.552  0.00  0.00    +0.016 A 
ATOM     14  C   UNL     1      -9.756   0.881  -1.495  0.00  0.00    +0.026 A 
ATOM     15 BR   UNL     1     -11.414   1.757  -1.740  0.00  0.00    -0.050 Br
ENDBRANCH   2   5
BRANCH   1  16
ATOM     16  C   UNL     1      -2.539   1.202  -0.331  0.00  0.00    +0.141 C 
ATOM     17  S   UNL     1      -2.451  -0.507  -0.259  0.00  0.00    -0.018 S 
BRANCH  16  18
ATOM     18  N   UNL     1      -1.417   1.939  -0.211  0.00  0.00    -0.295 N 
ATOM     19  H   UNL     1      -1.471   2.908  -0.215  0.00  0.00    +0.154 HD
BRANCH  18  24
ATOM     20  C   UNL     1       3.625  -0.609   0.300  0.00  0.00    +0.044 C 
ATOM     21  C   UNL     1       2.285   0.067   0.166  0.00  0.00    -0.048 A 
ATOM     22  C   UNL     1       1.340  -0.442  -0.707  0.00  0.00    +0.005 A 
ATOM     23  C   UNL     1       0.111   0.175  -0.833  0.00  0.00    +0.026 A 
ATOM     24  C   UNL     1      -0.176   1.308  -0.082  0.00  0.00    +0.063 A 
ATOM     25  C   UNL     1       0.775   1.816   0.793  0.00  0.00    +0.147 A 
ATOM     26  C   UNL     1       2.002   1.194   0.915  0.00  0.00    +0.038 A 
BRANCH  25  27
ATOM     27  N   UNL     1       0.474   3.024   1.595  0.00  0.00    +0.058 N 
ATOM     28  O   UNL     1       1.342   3.530   2.284  0.00  0.00    -0.126 OA
ATOM     29  O   UNL     1      -0.642   3.511   1.566  0.00  0.00    -0.126 OA
ENDBRANCH  25  27
ENDBRANCH  18  24
ENDBRANCH  16  18
ENDBRANCH   1  16
TORSDOF 5
