REMARK  Name = ZINC32527448
REMARK  11 active torsions:
REMARK  status: ('A' for Active; 'I' for Inactive)
REMARK    1  A    between atoms: C_1  and  C_2
REMARK    2  A    between atoms: C_2  and  O_3
REMARK    3  A    between atoms: O_3  and  C_4
REMARK    4  A    between atoms: C_4  and  C_6
REMARK    5  A    between atoms: C_10  and  N_11
REMARK    6  A    between atoms: C_12  and  C_14
REMARK    7  A    between atoms: C_14  and  C_16
REMARK    8  A    between atoms: C_14  and  N_17
REMARK    9  A    between atoms: C_21  and  C_30
REMARK   10  A    between atoms: C_24  and  C_29
REMARK   11  A    between atoms: C_26  and  C_28
REMARK                            x       y       z     vdW  Elec       q    Type
REMARK                         _______ _______ _______ _____ _____    ______ ____
ROOT
ATOM      1  N   UNL     1       1.487   1.472   0.295  0.00  0.00    -0.278 N 
ATOM      2  C   UNL     1       0.322   0.798   0.240  0.00  0.00    +0.240 C 
ATOM      3  O   UNL     1       0.281  -0.370   0.564  0.00  0.00    -0.273 OA
ATOM      4  H   UNL     1       1.524   2.532   0.000  0.00  0.00    +0.155 HD
ENDROOT
BRANCH   1   9
ATOM      5  C   UNL     1       3.922   1.350   0.841  0.00  0.00    +0.091 A 
ATOM      6  C   UNL     1       4.965   0.459   1.322  0.00  0.00    -0.021 A 
ATOM      7  C   UNL     1       4.563  -0.801   1.596  0.00  0.00    -0.004 A 
ATOM      8  S   UNL     1       2.830  -0.814   1.232  0.00  0.00    -0.077 S 
ATOM      9  C   UNL     1       2.639   0.831   0.722  0.00  0.00    +0.086 A 
ATOM     10  C   UNL     1       5.410  -1.930   2.097  0.00  0.00    +0.043 C 
ATOM     11  C   UNL     1       6.885  -1.552   1.901  0.00  0.00    +0.005 C 
ATOM     12  C   UNL     1       7.105  -0.133   2.431  0.00  0.00    +0.005 C 
ATOM     13  C   UNL     1       6.417   0.878   1.512  0.00  0.00    +0.037 C 
BRANCH   5  14
ATOM     14  C   UNL     1       4.213   2.744   0.498  0.00  0.00    +0.342 C 
ATOM     15  O   UNL     1       4.126   3.610   1.347  0.00  0.00    -0.245 OA
BRANCH  14  16
ATOM     16  O   UNL     1       4.577   3.067  -0.760  0.00  0.00    -0.461 OA
BRANCH  16  18
ATOM     17  C   UNL     1       5.244   4.638  -2.497  0.00  0.00    +0.048 C 
ATOM     18  C   UNL     1       4.850   4.467  -1.028  0.00  0.00    +0.229 C 
ENDBRANCH  16  18
ENDBRANCH  14  16
ENDBRANCH   5  14
ENDBRANCH   1   9
BRANCH   2  19
ATOM     19  C   UNL     1      -0.929   1.493  -0.231  0.00  0.00    +0.173 C 
ATOM     20  C   UNL     1      -0.723   2.003  -1.659  0.00  0.00    +0.041 C 
BRANCH  19  21
ATOM     21  N   UNL     1      -2.051   0.551  -0.206  0.00  0.00    -0.296 N 
ATOM     22  C   UNL     1      -2.773   0.350  -1.322  0.00  0.00    +0.253 A 
ATOM     23  O   UNL     1      -2.480   0.959  -2.337  0.00  0.00    -0.268 OA
ATOM     24  C   UNL     1      -3.862  -0.547  -1.349  0.00  0.00    +0.074 A 
ATOM     25  C   UNL     1      -4.207  -1.236  -0.233  0.00  0.00    -0.036 A 
ATOM     26  C   UNL     1      -3.427  -1.025   0.988  0.00  0.00    +0.002 A 
ATOM     27  C   UNL     1      -2.346  -0.122   0.960  0.00  0.00    +0.056 A 
ATOM     28  C   UNL     1      -1.603   0.089   2.117  0.00  0.00    -0.026 A 
ATOM     29  C   UNL     1      -1.925  -0.594   3.270  0.00  0.00    +0.008 A 
ATOM     30  C   UNL     1      -2.986  -1.487   3.292  0.00  0.00    -0.050 A 
ATOM     31  C   UNL     1      -3.734  -1.706   2.170  0.00  0.00    +0.013 A 
ATOM     32  C   UNL     1      -3.318  -2.221   4.566  0.00  0.00    +0.044 C 
ATOM     33  C   UNL     1      -0.448   1.057   2.107  0.00  0.00    +0.046 C 
ATOM     34  C   UNL     1      -5.368  -2.197  -0.249  0.00  0.00    +0.044 C 
ENDBRANCH  19  21
ENDBRANCH   2  19
TORSDOF 6
