REMARK  Name = ZINC38959170
REMARK  7 active torsions:
REMARK  status: ('A' for Active; 'I' for Inactive)
REMARK    1  A    between atoms: C_1  and  C_2
REMARK    2  A    between atoms: C_9  and  C_14
REMARK    3  A    between atoms: C_14  and  N_15
REMARK    4  A    between atoms: N_15  and  C_16
REMARK    5  A    between atoms: C_20  and  C_23
REMARK    6  A    between atoms: C_21  and  C_22
REMARK    7  A    between atoms: C_24  and  C_26
REMARK                            x       y       z     vdW  Elec       q    Type
REMARK                         _______ _______ _______ _____ _____    ______ ____
ROOT
ATOM      1  N   UNL     1       1.540  -6.403   3.158  0.00  0.00    -0.266 N 
ATOM      2  C   UNL     1       0.633  -7.104   3.866  0.00  0.00    +0.252 C 
ATOM      3  O   UNL     1      -0.110  -6.531   4.638  0.00  0.00    -0.270 OA
ENDROOT
BRANCH   1   4
ATOM      4  C   UNL     1       2.457  -7.071   2.340  0.00  0.00    +0.040 A 
ATOM      5  C   UNL     1       2.018  -7.737   1.202  0.00  0.00    +0.024 A 
ATOM      6  C   UNL     1       2.926  -8.395   0.396  0.00  0.00    +0.002 A 
ATOM      7  C   UNL     1       4.270  -8.393   0.720  0.00  0.00    +0.004 A 
ATOM      8  C   UNL     1       4.710  -7.732   1.852  0.00  0.00    -0.046 A 
ATOM      9  C   UNL     1       3.808  -7.066   2.659  0.00  0.00    -0.026 A 
ATOM     10  C   UNL     1       4.289  -6.341   3.890  0.00  0.00    +0.046 C 
ATOM     11  C   UNL     1       6.176  -7.732   2.202  0.00  0.00    +0.044 C 
ENDBRANCH   1   4
BRANCH   2  12
ATOM     12  C   UNL     1       0.542  -8.570   3.704  0.00  0.00    +0.051 A 
ATOM     13  C   UNL     1       1.692  -9.358   3.791  0.00  0.00    +0.014 A 
ATOM     14  C   UNL     1       1.600 -10.726   3.639  0.00  0.00    +0.001 A 
ATOM     15  C   UNL     1       0.372 -11.318   3.402  0.00  0.00    +0.001 A 
ATOM     16  C   UNL     1      -0.771 -10.545   3.315  0.00  0.00    +0.016 A 
ATOM     17  C   UNL     1      -0.695  -9.175   3.470  0.00  0.00    +0.030 A 
ATOM     18 BR   UNL     1      -2.260  -8.120   3.359  0.00  0.00    -0.050 Br
ENDBRANCH   2  12
BRANCH   1  19
ATOM     19  C   UNL     1       1.567  -4.941   3.245  0.00  0.00    +0.131 C 
BRANCH  19  28
ATOM     20  C   UNL     1       0.252   1.845   1.448  0.00  0.00    +0.044 C 
ATOM     21  C   UNL     1       0.461   0.386   1.134  0.00  0.00    -0.050 A 
ATOM     22  C   UNL     1       0.866   0.014  -0.148  0.00  0.00    +0.005 A 
ATOM     23  C   UNL     1       1.074  -1.280  -0.505  0.00  0.00    +0.024 A 
ATOM     24  C   UNL     1       0.886  -2.317   0.427  0.00  0.00    +0.040 A 
ATOM     25  N   UNL     1       1.094  -3.583   0.067  0.00  0.00    -0.284 N 
ATOM     26  C   UNL     1       0.936  -4.604   0.892  0.00  0.00    +0.226 C 
ATOM     27  O   UNL     1       1.141  -5.739   0.505  0.00  0.00    -0.275 OA
ATOM     28  C   UNL     1       0.499  -4.356   2.318  0.00  0.00    +0.116 C 
ATOM     29  C   UNL     1       0.261  -2.917   2.733  0.00  0.00    -0.003 C 
ATOM     30  C   UNL     1       0.459  -1.953   1.790  0.00  0.00    -0.007 A 
ATOM     31  C   UNL     1       0.258  -0.539   2.107  0.00  0.00    +0.012 A 
ATOM     32  H   UNL     1       1.375  -3.764  -0.844  0.00  0.00    +0.155 HD
ENDBRANCH  19  28
ENDBRANCH   1  19
TORSDOF 4
