REMARK  Name = ZINC22057856
REMARK  9 active torsions:
REMARK  status: ('A' for Active; 'I' for Inactive)
REMARK    1  A    between atoms: C_1  and  C_2
REMARK    2  A    between atoms: C_2  and  O_3
REMARK    3  A    between atoms: O_3  and  C_4
REMARK    4  A    between atoms: C_4  and  C_6
REMARK    5  A    between atoms: C_7  and  C_20
REMARK    6  A    between atoms: C_12  and  C_14
REMARK    7  A    between atoms: C_20  and  N_21
REMARK    8  A    between atoms: N_24  and  C_27
REMARK    9  A    between atoms: C_32  and  O_33
REMARK                            x       y       z     vdW  Elec       q    Type
REMARK                         _______ _______ _______ _____ _____    ______ ____
ROOT
ATOM      1  C   UNL     1       1.207   1.930  -0.086  0.00  0.00    +0.079 C 
ATOM      2  C   UNL     1       2.391   1.304   0.093  0.00  0.00    +0.038 C 
ATOM      3  N   UNL     1       3.557   2.010   0.168  0.00  0.00    -0.271 N 
ATOM      4  C   UNL     1       3.624   3.345   0.085  0.00  0.00    +0.304 C 
ATOM      5  O   UNL     1       4.709   3.886   0.168  0.00  0.00    -0.252 OA
ATOM      6  N   UNL     1       2.527   4.109  -0.088  0.00  0.00    -0.288 N 
ATOM      7  C   UNL     1       1.218   3.442  -0.188  0.00  0.00    +0.144 C 
ATOM      8  H   UNL     1       4.512   1.482   0.305  0.00  0.00    +0.156 HD
ATOM      9  H   UNL     1       2.592   5.205  -0.156  0.00  0.00    +0.151 HD
ENDROOT
BRANCH   7  10
ATOM     10  C   UNL     1       0.335   3.987   0.906  0.00  0.00    -0.023 A 
ATOM     11  C   UNL     1       0.815   4.081   2.199  0.00  0.00    +0.006 A 
ATOM     12  C   UNL     1       0.007   4.585   3.201  0.00  0.00    +0.000 A 
ATOM     13  C   UNL     1      -1.283   4.987   2.912  0.00  0.00    +0.000 A 
ATOM     14  C   UNL     1      -1.765   4.888   1.620  0.00  0.00    +0.000 A 
ATOM     15  C   UNL     1      -0.956   4.388   0.617  0.00  0.00    +0.006 A 
ENDBRANCH   7  10
BRANCH   1  16
ATOM     16  C   UNL     1      -0.001   1.200  -0.169  0.00  0.00    +0.339 C 
ATOM     17  O   UNL     1      -0.513   0.992  -1.253  0.00  0.00    -0.245 OA
BRANCH  16  18
ATOM     18  O   UNL     1      -0.589   0.738   0.954  0.00  0.00    -0.462 OA
BRANCH  18  20
ATOM     19  C   UNL     1      -2.324  -0.427   2.168  0.00  0.00    +0.048 C 
ATOM     20  C   UNL     1      -1.810   0.013   0.796  0.00  0.00    +0.229 C 
ENDBRANCH  18  20
ENDBRANCH  16  18
ENDBRANCH   1  16
BRANCH   2  21
ATOM     21  C   UNL     1       2.425  -0.198   0.205  0.00  0.00    +0.136 C 
BRANCH  21  22
ATOM     22  N   UNL     1       3.173  -0.757  -0.929  0.00  0.00    -0.294 NA
ATOM     23  C   UNL     1       2.466  -0.520  -2.195  0.00  0.00    +0.103 C 
ATOM     24  C   UNL     1       3.313  -1.045  -3.357  0.00  0.00    +0.120 C 
ATOM     25  N   UNL     1       3.573  -2.478  -3.162  0.00  0.00    -0.325 N 
ATOM     26  C   UNL     1       4.280  -2.715  -1.896  0.00  0.00    +0.120 C 
ATOM     27  C   UNL     1       3.433  -2.190  -0.735  0.00  0.00    +0.103 C 
BRANCH  25  28
ATOM     28  C   UNL     1       4.286  -3.010  -4.242  0.00  0.00    +0.072 A 
ATOM     29  C   UNL     1       5.568  -2.559  -4.519  0.00  0.00    +0.027 A 
ATOM     30  C   UNL     1       6.272  -3.090  -5.583  0.00  0.00    +0.002 A 
ATOM     31  C   UNL     1       5.697  -4.062  -6.381  0.00  0.00    +0.004 A 
ATOM     32  C   UNL     1       4.417  -4.513  -6.114  0.00  0.00    +0.047 A 
ATOM     33  C   UNL     1       3.707  -3.990  -5.046  0.00  0.00    +0.138 A 
BRANCH  33  34
ATOM     34  O   UNL     1       2.448  -4.432  -4.782  0.00  0.00    -0.505 OA
ATOM     35  H   UNL     1       1.993  -5.206  -5.418  0.00  0.00    +0.292 HD
ENDBRANCH  33  34
ENDBRANCH  25  28
ENDBRANCH  21  22
ENDBRANCH   2  21
TORSDOF 8
