REMARK  Name = ZINC25584838
REMARK  9 active torsions:
REMARK  status: ('A' for Active; 'I' for Inactive)
REMARK    1  A    between atoms: C_1  and  C_2
REMARK    2  A    between atoms: C_2  and  C_4
REMARK    3  A    between atoms: C_7  and  N_10
REMARK    4  A    between atoms: C_11  and  C_13
REMARK    5  A    between atoms: C_13  and  C_15
REMARK    6  A    between atoms: C_17  and  C_34
REMARK    7  A    between atoms: N_19  and  C_22
REMARK    8  A    between atoms: C_25  and  N_31
REMARK    9  A    between atoms: C_27  and  N_28
REMARK                            x       y       z     vdW  Elec       q    Type
REMARK                         _______ _______ _______ _____ _____    ______ ____
ROOT
ATOM      1  C   UNL     1      -6.282  -6.462   0.330  0.00  0.00    +0.118 A 
ATOM      2  H   UNL     1      -7.450  -9.207  -0.746  0.00  0.00    +0.187 HD
ATOM      3  C   UNL     1      -7.378  -7.250  -0.057  0.00  0.00    +0.079 A 
ATOM      4  N   UNL     1      -6.904  -8.469  -0.433  0.00  0.00    -0.289 N 
ATOM      5  N   UNL     1      -5.513  -8.498  -0.301  0.00  0.00    -0.216 N 
ATOM      6  C   UNL     1      -5.088  -7.302   0.152  0.00  0.00    +0.283 A 
ATOM      7  O   UNL     1      -3.935  -6.980   0.376  0.00  0.00    -0.265 OA
ENDROOT
BRANCH   5   8
ATOM      8  C   UNL     1      -4.694  -9.591  -0.599  0.00  0.00    +0.097 A 
ATOM      9  C   UNL     1      -4.082  -9.685  -1.842  0.00  0.00    +0.032 A 
ATOM     10  C   UNL     1      -3.273 -10.766  -2.132  0.00  0.00    +0.035 A 
ATOM     11  C   UNL     1      -3.072 -11.755  -1.186  0.00  0.00    +0.128 A 
ATOM     12  C   UNL     1      -3.679 -11.664   0.052  0.00  0.00    +0.067 A 
ATOM     13  C   UNL     1      -4.485 -10.583   0.351  0.00  0.00    +0.154 A 
BRANCH  13  14
ATOM     14  N   UNL     1      -5.130 -10.484   1.680  0.00  0.00    +0.059 N 
ATOM     15  O   UNL     1      -4.948 -11.347   2.506  0.00  0.00    -0.126 OA
ATOM     16  O   UNL     1      -5.839  -9.539   1.939  0.00  0.00    -0.126 OA
ENDBRANCH  13  14
BRANCH  11  17
ATOM     17  N   UNL     1      -2.205 -12.912  -1.501  0.00  0.00    +0.056 N 
ATOM     18  O   UNL     1      -1.673 -12.993  -2.584  0.00  0.00    -0.126 OA
ATOM     19  O   UNL     1      -2.028 -13.778  -0.675  0.00  0.00    -0.126 OA
ENDBRANCH  11  17
ENDBRANCH   5   8
BRANCH   3  20
ATOM     20  C   UNL     1      -8.790  -6.832  -0.055  0.00  0.00    +0.001 A 
ATOM     21  C   UNL     1      -9.123  -5.478  -0.170  0.00  0.00    +0.010 A 
ATOM     22  C   UNL     1     -10.447  -5.095  -0.167  0.00  0.00    +0.001 A 
ATOM     23  C   UNL     1     -11.447  -6.045  -0.051  0.00  0.00    +0.000 A 
ATOM     24  C   UNL     1     -11.126  -7.387   0.064  0.00  0.00    +0.001 A 
ATOM     25  C   UNL     1      -9.806  -7.787   0.056  0.00  0.00    +0.010 A 
ENDBRANCH   3  20
BRANCH   1  26
ATOM     26  C   UNL     1      -6.319  -5.125   0.791  0.00  0.00    +0.255 C 
ATOM     27  O   UNL     1      -7.041  -4.824   1.722  0.00  0.00    -0.281 OA
BRANCH  26  29
ATOM     28  N   UNL     1      -5.419  -2.841   0.648  0.00  0.00    -0.279 N 
ATOM     29  C   UNL     1      -5.473  -4.087   0.137  0.00  0.00    +0.289 C 
ATOM     30  O   UNL     1      -4.833  -4.364  -0.857  0.00  0.00    -0.266 OA
ATOM     31  H   UNL     1      -5.894  -2.632   1.467  0.00  0.00    +0.155 HD
BRANCH  28  35
ATOM     32  C   UNL     1      -3.215   0.103  -1.284  0.00  0.00    +0.017 A 
ATOM     33  C   UNL     1      -3.877  -0.881  -2.029  0.00  0.00    +0.013 A 
ATOM     34  C   UNL     1      -4.601  -1.847  -1.389  0.00  0.00    +0.024 A 
ATOM     35  C   UNL     1      -4.681  -1.855   0.001  0.00  0.00    +0.034 A 
ATOM     36  C   UNL     1      -4.023  -0.879   0.746  0.00  0.00    +0.024 A 
ATOM     37  C   UNL     1      -3.293   0.088   0.115  0.00  0.00    +0.013 A 
BRANCH  32  39
ATOM     38  C   UNL     1      -2.352   1.157  -3.471  0.00  0.00    +0.091 C 
ATOM     39  C   UNL     1      -2.435   1.143  -1.966  0.00  0.00    +0.160 C 
ATOM     40  O   UNL     1      -1.857   1.991  -1.319  0.00  0.00    -0.292 OA
ENDBRANCH  32  39
ENDBRANCH  28  35
ENDBRANCH  26  29
ENDBRANCH   1  26
TORSDOF 8
