REMARK  Name = ZINC57925064
REMARK  5 active torsions:
REMARK  status: ('A' for Active; 'I' for Inactive)
REMARK    1  A    between atoms: C_1  and  C_2
REMARK    2  A    between atoms: C_2  and  C_3
REMARK    3  A    between atoms: N_13  and  C_14
REMARK    4  A    between atoms: C_14  and  C_15
REMARK    5  A    between atoms: C_19  and  C_21
REMARK                            x       y       z     vdW  Elec       q    Type
REMARK                         _______ _______ _______ _____ _____    ______ ____
ROOT
ATOM      1  C   UNL     1       0.643  -0.407  -1.109  0.00  0.00    +0.091 C 
ATOM      2  C   UNL     1       0.320  -1.898  -1.278  0.00  0.00    +0.124 C 
ATOM      3  N   UNL     1       1.155  -2.660  -0.337  0.00  0.00    -0.341 N 
ATOM      4  C   UNL     1       2.518  -2.336  -0.227  0.00  0.00    +0.052 A 
ATOM      5  C   UNL     1       3.398  -3.223   0.371  0.00  0.00    +0.074 A 
ATOM      6  C   UNL     1       4.742  -2.898   0.480  0.00  0.00    +0.168 A 
ATOM      7  C   UNL     1       5.206  -1.680  -0.011  0.00  0.00    +0.168 A 
ATOM      8  C   UNL     1       4.325  -0.793  -0.609  0.00  0.00    +0.074 A 
ATOM      9  C   UNL     1       2.982  -1.117  -0.719  0.00  0.00    +0.055 A 
ATOM     10  N   UNL     1       2.086  -0.221  -1.327  0.00  0.00    -0.320 N 
ATOM     11  O   UNL     1       6.551  -1.602   0.217  0.00  0.00    -0.453 OA
ATOM     12  C   UNL     1       6.830  -2.601   1.215  0.00  0.00    +0.466 C 
ATOM     13  O   UNL     1       5.796  -3.583   1.015  0.00  0.00    -0.453 OA
ATOM     14  H   UNL     1       0.772  -3.373   0.197  0.00  0.00    +0.146 HD
ENDROOT
BRANCH   1  16
ATOM     15  C   UNL     1       0.500   1.552   0.436  0.00  0.00    +0.006 C 
ATOM     16  C   UNL     1       0.273   0.044   0.306  0.00  0.00    +0.020 C 
ENDBRANCH   1  16
BRANCH  10  17
ATOM     17  C   UNL     1       2.578   0.876  -2.164  0.00  0.00    +0.140 C 
BRANCH  17  18
ATOM     18  C   UNL     1       2.808   0.374  -3.566  0.00  0.00    -0.030 A 
ATOM     19  C   UNL     1       4.058  -0.084  -3.940  0.00  0.00    +0.005 A 
ATOM     20  C   UNL     1       4.268  -0.544  -5.226  0.00  0.00    +0.001 A 
ATOM     21  C   UNL     1       3.229  -0.546  -6.139  0.00  0.00    +0.003 A 
ATOM     22  C   UNL     1       1.980  -0.089  -5.764  0.00  0.00    -0.050 A 
ATOM     23  C   UNL     1       1.768   0.367  -4.476  0.00  0.00    +0.008 A 
ATOM     24  C   UNL     1       0.848  -0.091  -6.759  0.00  0.00    +0.044 C 
ENDBRANCH  17  18
ENDBRANCH  10  17
TORSDOF 3
