REMARK  Name = ZINC39965533
REMARK  13 active torsions:
REMARK  status: ('A' for Active; 'I' for Inactive)
REMARK    1  A    between atoms: C_1  and  C_2
REMARK    2  A    between atoms: C_2  and  C_3
REMARK    3  A    between atoms: C_5  and  C_29
REMARK    4  A    between atoms: C_6  and  N_8
REMARK    5  A    between atoms: C_9  and  C_11
REMARK    6  A    between atoms: C_11  and  S_12
REMARK    7  A    between atoms: S_12  and  C_13
REMARK    8  A    between atoms: C_16  and  C_20
REMARK    9  A    between atoms: N_17  and  C_18
REMARK   10  A    between atoms: C_18  and  C_19
REMARK   11  A    between atoms: C_29  and  O_31
REMARK   12  A    between atoms: O_31  and  C_32
REMARK   13  A    between atoms: C_32  and  C_33
REMARK                            x       y       z     vdW  Elec       q    Type
REMARK                         _______ _______ _______ _____ _____    ______ ____
ROOT
ATOM      1  C   UNL     1      -6.506  -1.889   3.311  0.00  0.00    +0.173 C 
ENDROOT
BRANCH   1   3
ATOM      2  N   UNL     1      -5.153  -1.002   1.440  0.00  0.00    -0.279 N 
ATOM      3  C   UNL     1      -5.235  -1.304   2.751  0.00  0.00    +0.228 C 
ATOM      4  O   UNL     1      -4.286  -1.106   3.480  0.00  0.00    -0.275 OA
ATOM      5  H   UNL     1      -5.912  -1.160   0.857  0.00  0.00    +0.155 HD
BRANCH   2   9
ATOM      6  C   UNL     1      -1.580   0.531   0.406  0.00  0.00    -0.008 A 
ATOM      7  C   UNL     1      -2.405   0.446  -0.653  0.00  0.00    +0.028 A 
ATOM      8  C   UNL     1      -3.719  -0.094  -0.387  0.00  0.00    +0.088 A 
ATOM      9  C   UNL     1      -3.983  -0.464   0.925  0.00  0.00    +0.086 A 
ATOM     10  S   UNL     1      -2.560  -0.116   1.743  0.00  0.00    -0.078 S 
BRANCH   6  12
ATOM     11  C   UNL     1      -0.174   2.545   0.747  0.00  0.00    +0.009 C 
ATOM     12  C   UNL     1      -0.164   1.044   0.449  0.00  0.00    +0.039 C 
ENDBRANCH   6  12
BRANCH   8  13
ATOM     13  C   UNL     1      -4.720  -0.243  -1.445  0.00  0.00    +0.342 C 
ATOM     14  O   UNL     1      -5.816  -0.701  -1.186  0.00  0.00    -0.245 OA
BRANCH  13  15
ATOM     15  O   UNL     1      -4.426   0.128  -2.708  0.00  0.00    -0.461 OA
BRANCH  15  16
ATOM     16  C   UNL     1      -5.449  -0.046  -3.691  0.00  0.00    +0.229 C 
ATOM     17  C   UNL     1      -4.935   0.427  -5.052  0.00  0.00    +0.048 C 
ENDBRANCH  15  16
ENDBRANCH  13  15
ENDBRANCH   8  13
ENDBRANCH   2   9
ENDBRANCH   1   3
BRANCH   1  18
ATOM     18  S   UNL     1      -6.304  -2.184   5.089  0.00  0.00    -0.077 S 
BRANCH  18  19
ATOM     19  C   UNL     1      -7.854  -2.858   5.588  0.00  0.00    +0.192 A 
ATOM     20  N   UNL     1      -8.891  -3.085   4.813  0.00  0.00    -0.122 NA
ATOM     21  N   UNL     1      -9.856  -3.582   5.502  0.00  0.00    -0.128 NA
ATOM     22  C   UNL     1      -9.495  -3.702   6.758  0.00  0.00    +0.165 A 
ATOM     23  N   UNL     1      -8.199  -3.248   6.851  0.00  0.00    -0.302 N 
BRANCH  22  24
ATOM     24  C   UNL     1     -10.322  -4.231   7.863  0.00  0.00    +0.023 A 
ATOM     25  C   UNL     1     -11.438  -5.022   7.585  0.00  0.00    +0.015 A 
ATOM     26  C   UNL     1     -12.208  -5.516   8.617  0.00  0.00    +0.050 A 
ATOM     27  C   UNL     1     -11.877  -5.229   9.934  0.00  0.00    +0.166 A 
ATOM     28  C   UNL     1     -10.764  -4.439  10.218  0.00  0.00    +0.167 A 
ATOM     29  C   UNL     1      -9.985  -3.946   9.187  0.00  0.00    +0.061 A 
ATOM     30  O   UNL     1     -10.657  -4.308  11.573  0.00  0.00    -0.453 OA
ATOM     31  C   UNL     1     -11.945  -4.681  12.098  0.00  0.00    +0.466 C 
ATOM     32  O   UNL     1     -12.466  -5.591  11.111  0.00  0.00    -0.453 OA
ENDBRANCH  22  24
BRANCH  23  33
ATOM     33  C   UNL     1      -7.365  -3.191   8.054  0.00  0.00    +0.122 C 
ATOM     34  C   UNL     1      -7.492  -1.809   8.698  0.00  0.00    +0.027 C 
ENDBRANCH  23  33
ENDBRANCH  18  19
ENDBRANCH   1  18
TORSDOF 10
