REMARK  Name = ZINC11074705
REMARK  7 active torsions:
REMARK  status: ('A' for Active; 'I' for Inactive)
REMARK    1  A    between atoms: C_1  and  C_2
REMARK    2  A    between atoms: C_15  and  C_17
REMARK    3  A    between atoms: C_17  and  N_52
REMARK    4  A    between atoms: C_18  and  N_52
REMARK    5  A    between atoms: C_19  and  C_20
REMARK    6  A    between atoms: C_19  and  N_52
REMARK    7  A    between atoms: N_22  and  C_23
REMARK                            x       y       z     vdW  Elec       q    Type
REMARK                         _______ _______ _______ _____ _____    ______ ____
ROOT
ATOM      1  C   UNL     1       0.416   3.531  -2.287  0.00  0.00    +0.019 C 
ENDROOT
BRANCH   1  15
ATOM      2  C   UNL     1       0.507   4.070   2.312  0.00  0.00    +0.029 C 
ATOM      3  C   UNL     1       1.644   4.145   1.291  0.00  0.00    +0.087 C 
ATOM      4  C   UNL     1       2.881   3.446   1.856  0.00  0.00    +0.118 C 
ATOM      5  C   UNL     1       3.862   3.156   0.752  0.00  0.00    +0.219 C 
ATOM      6  O   UNL     1       4.859   3.838   0.636  0.00  0.00    -0.275 OA
ATOM      7  N   UNL     1       3.639   2.142  -0.112  0.00  0.00    -0.284 N 
ATOM      8  C   UNL     1       2.448   1.409  -0.053  0.00  0.00    +0.055 A 
ATOM      9  C   UNL     1       2.466   0.024  -0.056  0.00  0.00    +0.025 A 
ATOM     10  C   UNL     1       1.275  -0.679  -0.028  0.00  0.00    +0.002 A 
ATOM     11  C   UNL     1       0.068  -0.004  -0.003  0.00  0.00    +0.002 A 
ATOM     12  C   UNL     1       0.042   1.378   0.005  0.00  0.00    +0.025 A 
ATOM     13  C   UNL     1       1.231   2.090  -0.009  0.00  0.00    +0.058 A 
ATOM     14  N   UNL     1       1.226   3.489   0.050  0.00  0.00    -0.268 N 
ATOM     15  C   UNL     1       0.844   4.219  -1.016  0.00  0.00    +0.204 C 
ATOM     16  O   UNL     1       0.843   5.431  -0.953  0.00  0.00    -0.277 OA
ATOM     17  H   UNL     1       4.309   1.920  -0.777  0.00  0.00    +0.155 HD
ENDBRANCH   1  15
BRANCH   1  19
ATOM     18  C   UNL     1      -1.147   5.283  -2.877  0.00  0.00    -0.095 C 
ATOM     19  N   UNL     1       0.072   4.558  -3.293  0.00  0.00    +0.389 N 
ATOM     20  H   UNL     1       0.849   5.225  -3.368  0.00  0.00    -0.081 HD
BRANCH  19  21
ATOM     21  C   UNL     1      -0.143   3.922  -4.610  0.00  0.00    +0.019 C 
BRANCH  21  22
ATOM     22  C   UNL     1      -0.274   5.000  -5.654  0.00  0.00    +0.201 C 
ATOM     23  O   UNL     1      -0.211   6.168  -5.332  0.00  0.00    -0.278 OA
ATOM     24  N   UNL     1      -0.459   4.668  -6.947  0.00  0.00    -0.286 N 
ATOM     25  H   UNL     1      -0.444   3.735  -7.215  0.00  0.00    +0.155 HD
BRANCH  24  26
ATOM     26  C   UNL     1      -0.674   5.667  -7.904  0.00  0.00    +0.052 A 
ATOM     27  C   UNL     1      -0.037   6.895  -7.782  0.00  0.00    +0.026 A 
ATOM     28  C   UNL     1      -0.250   7.879  -8.727  0.00  0.00    +0.017 A 
ATOM     29  C   UNL     1      -1.098   7.643  -9.795  0.00  0.00    +0.019 A 
ATOM     30  C   UNL     1      -1.734   6.421  -9.920  0.00  0.00    +0.037 A 
ATOM     31  C   UNL     1      -1.521   5.431  -8.980  0.00  0.00    +0.063 A 
ATOM     32 CL   UNL     1      -2.314   3.895  -9.140  0.00  0.00    -0.082 Cl
ATOM     33 BR   UNL     1      -1.386   8.994 -11.087  0.00  0.00    -0.050 Br
ENDBRANCH  24  26
ENDBRANCH  21  22
ENDBRANCH  19  21
ENDBRANCH   1  19
TORSDOF 5
