REMARK  Name = ZINC40929218
REMARK  6 active torsions:
REMARK  status: ('A' for Active; 'I' for Inactive)
REMARK    1  A    between atoms: C_3  and  C_33
REMARK    2  A    between atoms: C_6  and  C_7
REMARK    3  A    between atoms: C_9  and  C_12
REMARK    4  A    between atoms: C_12  and  N_13
REMARK    5  A    between atoms: C_16  and  C_19
REMARK    6  A    between atoms: N_24  and  C_27
REMARK                            x       y       z     vdW  Elec       q    Type
REMARK                         _______ _______ _______ _____ _____    ______ ____
ROOT
ATOM      1  N   UNL     1      -3.340  -4.315   1.405  0.00  0.00    +0.386 N 
ATOM      2  C   UNL     1      -4.359  -3.502   2.080  0.00  0.00    -0.077 C 
ATOM      3  C   UNL     1      -4.469  -3.929   3.545  0.00  0.00    -0.006 C 
ATOM      4  C   UNL     1      -4.865  -5.407   3.613  0.00  0.00    +0.072 C 
ATOM      5  C   UNL     1      -3.834  -6.237   2.842  0.00  0.00    -0.006 C 
ATOM      6  C   UNL     1      -3.748  -5.725   1.403  0.00  0.00    -0.077 C 
ATOM      7  H   UNL     1      -2.461  -4.221   1.892  0.00  0.00    -0.081 HD
ENDROOT
BRANCH   4   8
ATOM      8  C   UNL     1      -4.899  -5.854   5.051  0.00  0.00    +0.219 C 
ATOM      9  O   UNL     1      -4.105  -5.398   5.847  0.00  0.00    -0.275 OA
ATOM     10  N   UNL     1      -5.810  -6.762   5.454  0.00  0.00    -0.299 N 
ATOM     11  C   UNL     1      -6.700  -7.419   4.484  0.00  0.00    +0.123 C 
ATOM     12  C   UNL     1      -6.622  -8.934   4.700  0.00  0.00    +0.103 C 
ATOM     13  N   UNL     1      -6.904  -9.240   6.109  0.00  0.00    -0.296 NA
ATOM     14  C   UNL     1      -5.893  -8.648   6.996  0.00  0.00    +0.103 C 
ATOM     15  C   UNL     1      -5.938  -7.126   6.873  0.00  0.00    +0.123 C 
BRANCH  13  16
ATOM     16  C   UNL     1      -7.008 -10.689   6.323  0.00  0.00    +0.057 C 
ATOM     17  C   UNL     1      -8.141 -11.251   5.462  0.00  0.00    +0.019 C 
ATOM     18  C   UNL     1      -8.250 -12.761   5.684  0.00  0.00    +0.002 C 
ATOM     19  C   UNL     1      -8.544 -13.040   7.160  0.00  0.00    +0.000 C 
ATOM     20  C   UNL     1      -7.411 -12.477   8.021  0.00  0.00    +0.002 C 
ATOM     21  C   UNL     1      -7.302 -10.968   7.798  0.00  0.00    +0.019 C 
ENDBRANCH  13  16
ENDBRANCH   4   8
BRANCH   1  22
ATOM     22  C   UNL     1      -3.183  -3.849   0.020  0.00  0.00    +0.022 C 
BRANCH  22  25
ATOM     23  C   UNL     1      -1.268  -0.766   0.013  0.00  0.00    +0.202 A 
ATOM     24  N   UNL     1      -1.388  -2.106   0.007  0.00  0.00    -0.193 NA
ATOM     25  C   UNL     1      -2.647  -2.441   0.021  0.00  0.00    +0.211 A 
ATOM     26  O   UNL     1      -3.384  -1.323   0.036  0.00  0.00    -0.340 OA
ATOM     27  N   UNL     1      -2.467  -0.239   0.036  0.00  0.00    -0.056 NA
BRANCH  23  33
ATOM     28  C   UNL     1      -0.001   1.381   0.014  0.00  0.00    +0.012 A 
ATOM     29  C   UNL     1       1.190   2.078   0.003  0.00  0.00    +0.013 A 
ATOM     30  C   UNL     1       2.393   1.396  -0.022  0.00  0.00    +0.055 A 
ATOM     31  C   UNL     1       2.410   0.013  -0.035  0.00  0.00    +0.013 A 
ATOM     32  C   UNL     1       1.224  -0.694  -0.025  0.00  0.00    +0.012 A 
ATOM     33  C   UNL     1       0.010  -0.012   0.000  0.00  0.00    +0.022 A 
BRANCH  30  34
ATOM     34  C   UNL     1       3.691   2.162  -0.035  0.00  0.00    +0.417 C 
ATOM     35  F   UNL     1       4.113   2.387   1.280  0.00  0.00    -0.166 F 
ATOM     36  F   UNL     1       4.663   1.422  -0.716  0.00  0.00    -0.166 F 
ATOM     37  F   UNL     1       3.502   3.389  -0.680  0.00  0.00    -0.166 F 
ENDBRANCH  30  34
ENDBRANCH  23  33
ENDBRANCH  22  25
ENDBRANCH   1  22
TORSDOF 6
