REMARK  Name = ZINC09325053
REMARK  13 active torsions:
REMARK  status: ('A' for Active; 'I' for Inactive)
REMARK    1  A    between atoms: C_1  and  C_2
REMARK    2  A    between atoms: C_2  and  C_3
REMARK    3  A    between atoms: C_3  and  C_4
REMARK    4  A    between atoms: N_8  and  C_18
REMARK    5  A    between atoms: C_12  and  C_17
REMARK    6  A    between atoms: C_14  and  C_16
REMARK    7  A    between atoms: C_18  and  C_20
REMARK    8  A    between atoms: C_18  and  C_21
REMARK    9  A    between atoms: N_23  and  C_24
REMARK   10  A    between atoms: C_25  and  C_34
REMARK   11  A    between atoms: C_34  and  O_36
REMARK   12  A    between atoms: O_36  and  C_37
REMARK   13  A    between atoms: C_37  and  C_38
REMARK                            x       y       z     vdW  Elec       q    Type
REMARK                         _______ _______ _______ _____ _____    ______ ____
ROOT
ATOM      1  C   UNL     1       7.585  -2.038   1.949  0.00  0.00    +0.176 C 
ATOM      2  C   UNL     1       6.660  -3.247   1.798  0.00  0.00    +0.041 C 
ENDROOT
BRANCH   1   7
ATOM      3  C   UNL     1      11.426  -3.013   0.625  0.00  0.00    +0.050 A 
ATOM      4  C   UNL     1      10.418  -2.954  -0.291  0.00  0.00    +0.093 A 
ATOM      5  C   UNL     1       9.120  -2.631   0.147  0.00  0.00    +0.256 A 
ATOM      6  O   UNL     1       8.193  -2.573  -0.644  0.00  0.00    -0.268 OA
ATOM      7  N   UNL     1       8.922  -2.381   1.459  0.00  0.00    -0.266 N 
ATOM      8  C   UNL     1       9.967  -2.456   2.325  0.00  0.00    +0.236 A 
ATOM      9  N   UNL     1      11.176  -2.763   1.910  0.00  0.00    -0.217 NA
ATOM     10  N   UNL     1       9.754  -2.205   3.670  0.00  0.00    -0.204 N 
ATOM     11  C   UNL     1      10.624  -1.593   4.519  0.00  0.00    +0.045 A 
ATOM     12  C   UNL     1      10.039  -1.542   5.736  0.00  0.00    +0.048 A 
ATOM     13  C   UNL     1       8.774  -2.137   5.633  0.00  0.00    +0.061 A 
ATOM     14  N   UNL     1       8.602  -2.529   4.398  0.00  0.00    -0.169 NA
ATOM     15  C   UNL     1       7.780  -2.294   6.755  0.00  0.00    +0.067 C 
ATOM     16  C   UNL     1      11.992  -1.069   4.167  0.00  0.00    +0.066 C 
BRANCH   3  17
ATOM     17  C   UNL     1      12.825  -3.362   0.185  0.00  0.00    +0.055 C 
BRANCH  17  19
ATOM     18  C   UNL     1      15.037  -2.431  -0.508  0.00  0.00    +0.004 C 
ATOM     19  C   UNL     1      13.617  -2.077  -0.061  0.00  0.00    +0.003 C 
ENDBRANCH  17  19
ENDBRANCH   3  17
ENDBRANCH   1   7
BRANCH   1  20
ATOM     20  C   UNL     1       7.038  -0.884   1.148  0.00  0.00    +0.240 C 
ATOM     21  O   UNL     1       7.700  -0.397   0.256  0.00  0.00    -0.273 OA
ATOM     22  N   UNL     1       5.813  -0.394   1.423  0.00  0.00    -0.278 N 
ATOM     23  H   UNL     1       5.284  -0.783   2.136  0.00  0.00    +0.155 HD
BRANCH  22  24
ATOM     24  C   UNL     1       5.310   0.667   0.686  0.00  0.00    +0.086 A 
ATOM     25  C   UNL     1       4.085   1.304   0.817  0.00  0.00    +0.091 A 
ATOM     26  C   UNL     1       3.795   2.408  -0.089  0.00  0.00    -0.021 A 
ATOM     27  C   UNL     1       4.772   2.685  -0.979  0.00  0.00    -0.004 A 
ATOM     28  S   UNL     1       6.059   1.521  -0.622  0.00  0.00    -0.077 S 
ATOM     29  C   UNL     1       4.766   3.734  -2.047  0.00  0.00    +0.043 C 
ATOM     30  C   UNL     1       4.323   5.072  -1.440  0.00  0.00    +0.005 C 
ATOM     31  C   UNL     1       2.804   5.168  -1.542  0.00  0.00    +0.001 C 
ATOM     32  C   UNL     1       2.179   3.782  -1.405  0.00  0.00    +0.005 C 
ATOM     33  C   UNL     1       2.489   3.190  -0.034  0.00  0.00    +0.037 C 
BRANCH  25  34
ATOM     34  C   UNL     1       3.117   0.882   1.831  0.00  0.00    +0.342 C 
ATOM     35  O   UNL     1       2.289   0.031   1.565  0.00  0.00    -0.245 OA
BRANCH  34  36
ATOM     36  O   UNL     1       3.142   1.437   3.060  0.00  0.00    -0.461 OA
BRANCH  36  37
ATOM     37  C   UNL     1       2.153   0.970   4.015  0.00  0.00    +0.229 C 
ATOM     38  C   UNL     1       2.337   1.709   5.342  0.00  0.00    +0.048 C 
ENDBRANCH  36  37
ENDBRANCH  34  36
ENDBRANCH  25  34
ENDBRANCH  22  24
ENDBRANCH   1  20
TORSDOF 8
