REMARK  Name = ZINC00681801
REMARK  8 active torsions:
REMARK  status: ('A' for Active; 'I' for Inactive)
REMARK    1  A    between atoms: C_1  and  C_2
REMARK    2  A    between atoms: C_2  and  N_3
REMARK    3  A    between atoms: N_3  and  C_4
REMARK    4  A    between atoms: N_3  and  C_6
REMARK    5  A    between atoms: C_4  and  C_5
REMARK    6  A    between atoms: C_9  and  C_12
REMARK    7  A    between atoms: C_17  and  C_35
REMARK    8  A    between atoms: C_27  and  C_29
REMARK                            x       y       z     vdW  Elec       q    Type
REMARK                         _______ _______ _______ _____ _____    ______ ____
ROOT
ATOM      1  C   UNL     1      -2.899   5.209   3.971  0.00  0.00    +0.032 C 
ATOM      2  C   UNL     1      -3.616   4.020   3.334  0.00  0.00    +0.059 C 
ATOM      3  C   UNL     1      -3.291   3.956   1.850  0.00  0.00    +0.017 C 
ATOM      4  C   UNL     1      -2.085   4.338   1.405  0.00  0.00    +0.040 C 
ATOM      5  C   UNL     1      -1.610   4.283  -0.029  0.00  0.00    +0.182 C 
ATOM      6  N   UNL     1      -2.658   4.018  -0.992  0.00  0.00    -0.251 N 
ATOM      7  C   UNL     1      -3.349   2.808  -0.989  0.00  0.00    +0.059 A 
ATOM      8  C   UNL     1      -3.217   1.901  -2.029  0.00  0.00    +0.025 A 
ATOM      9  C   UNL     1      -3.860   0.678  -1.952  0.00  0.00    +0.002 A 
ATOM     10  C   UNL     1      -4.629   0.359  -0.847  0.00  0.00    +0.002 A 
ATOM     11  C   UNL     1      -4.780   1.271   0.184  0.00  0.00    +0.025 A 
ATOM     12  C   UNL     1      -4.153   2.501   0.098  0.00  0.00    +0.053 A 
ATOM     13  N   UNL     1      -4.300   3.481   1.074  0.00  0.00    -0.316 N 
ATOM     14  C   UNL     1      -2.971   4.958  -1.907  0.00  0.00    +0.252 C 
ATOM     15  O   UNL     1      -2.429   6.045  -1.871  0.00  0.00    -0.270 OA
ATOM     16  C   UNL     1      -1.121   4.853   2.304  0.00  0.00    +0.163 C 
ATOM     17  O   UNL     1      -0.033   5.181   1.873  0.00  0.00    -0.292 OA
ATOM     18  C   UNL     1      -1.393   5.009   3.771  0.00  0.00    +0.088 C 
ATOM     19  H   UNL     1      -5.185   3.852   1.210  0.00  0.00    +0.152 HD
ENDROOT
BRANCH   1  23
ATOM     20  C   UNL     1      -3.798   5.376   8.146  0.00  0.00    +0.030 A 
ATOM     21  C   UNL     1      -4.130   6.442   7.320  0.00  0.00    +0.023 A 
ATOM     22  C   UNL     1      -3.838   6.385   5.971  0.00  0.00    +0.006 A 
ATOM     23  C   UNL     1      -3.216   5.268   5.443  0.00  0.00    -0.043 A 
ATOM     24  C   UNL     1      -2.890   4.203   6.262  0.00  0.00    +0.006 A 
ATOM     25  C   UNL     1      -3.174   4.256   7.613  0.00  0.00    +0.023 A 
BRANCH  20  26
ATOM     26  N   UNL     1      -4.092   5.430   9.511  0.00  0.00    -0.330 N 
BRANCH  26  28
ATOM     27  C   UNL     1      -2.332   4.511  10.938  0.00  0.00    +0.024 C 
ATOM     28  C   UNL     1      -3.742   4.305  10.381  0.00  0.00    +0.102 C 
ENDBRANCH  26  28
BRANCH  26  29
ATOM     29  C   UNL     1      -4.752   6.612  10.071  0.00  0.00    +0.102 C 
ATOM     30  C   UNL     1      -6.269   6.426  10.013  0.00  0.00    +0.024 C 
ENDBRANCH  26  29
ENDBRANCH  20  26
ENDBRANCH   1  23
BRANCH  14  31
ATOM     31  C   UNL     1      -3.973   4.666  -2.953  0.00  0.00    +0.037 A 
ATOM     32  C   UNL     1      -3.760   5.089  -4.266  0.00  0.00    +0.013 A 
ATOM     33  C   UNL     1      -4.697   4.810  -5.238  0.00  0.00    +0.001 A 
ATOM     34  C   UNL     1      -5.852   4.120  -4.913  0.00  0.00    +0.000 A 
ATOM     35  C   UNL     1      -6.072   3.701  -3.612  0.00  0.00    +0.001 A 
ATOM     36  C   UNL     1      -5.140   3.970  -2.631  0.00  0.00    +0.013 A 
ENDBRANCH  14  31
BRANCH   5  37
ATOM     37  C   UNL     1      -0.567   3.202  -0.147  0.00  0.00    +0.130 A 
ATOM     38  C   UNL     1       0.765   3.392  -0.166  0.00  0.00    +0.047 A 
ATOM     39  C   UNL     1       1.359   2.116  -0.289  0.00  0.00    +0.041 A 
ATOM     40  C   UNL     1       0.355   1.221  -0.338  0.00  0.00    +0.195 A 
ATOM     41  O   UNL     1      -0.809   1.886  -0.257  0.00  0.00    -0.466 OA
ENDBRANCH   5  37
TORSDOF 6
