REMARK  Name = ZINC64143738
REMARK  7 active torsions:
REMARK  status: ('A' for Active; 'I' for Inactive)
REMARK    1  A    between atoms: C_4  and  N_17
REMARK    2  A    between atoms: C_5  and  C_7
REMARK    3  A    between atoms: N_9  and  C_10
REMARK    4  A    between atoms: C_10  and  C_11
REMARK    5  A    between atoms: C_11  and  C_12
REMARK    6  A    between atoms: N_17  and  S_18
REMARK    7  A    between atoms: S_18  and  C_21
REMARK                            x       y       z     vdW  Elec       q    Type
REMARK                         _______ _______ _______ _____ _____    ______ ____
ROOT
ATOM      1  C   UNL     1      -0.127   1.070   0.512  0.00  0.00    +0.001 A 
ATOM      2  C   UNL     1       0.994   1.879   0.406  0.00  0.00    +0.002 A 
ATOM      3  C   UNL     1       2.243   1.323   0.225  0.00  0.00    +0.025 A 
ATOM      4  C   UNL     1       2.385  -0.057   0.146  0.00  0.00    +0.060 A 
ATOM      5  C   UNL     1       1.253  -0.879   0.252  0.00  0.00    +0.059 A 
ATOM      6  C   UNL     1      -0.005  -0.300   0.436  0.00  0.00    +0.015 A 
ENDROOT
BRANCH   5   7
ATOM      7  C   UNL     1       1.390  -2.345   0.170  0.00  0.00    +0.246 C 
ATOM      8  O   UNL     1       2.486  -2.845   0.009  0.00  0.00    -0.270 OA
ATOM      9  N   UNL     1       0.299  -3.130   0.273  0.00  0.00    -0.311 N 
ATOM     10  H   UNL     1      -0.576  -2.731   0.401  0.00  0.00    +0.149 HD
BRANCH   9  11
ATOM     11  C   UNL     1       0.435  -4.587   0.191  0.00  0.00    +0.109 C 
BRANCH  11  12
ATOM     12  C   UNL     1      -0.942  -5.236   0.336  0.00  0.00    +0.061 C 
BRANCH  12  13
ATOM     13  C   UNL     1      -0.803  -6.734   0.252  0.00  0.00    -0.009 A 
ATOM     14  C   UNL     1      -0.597  -7.630   1.248  0.00  0.00    +0.011 A 
ATOM     15  C   UNL     1      -0.500  -8.973   0.933  0.00  0.00    +0.008 A 
ATOM     16  C   UNL     1      -0.614  -9.354  -0.362  0.00  0.00    +0.045 A 
ATOM     17  S   UNL     1      -0.873  -7.791  -1.186  0.00  0.00    -0.102 S 
ENDBRANCH  12  13
ENDBRANCH  11  12
ENDBRANCH   9  11
ENDBRANCH   5   7
BRANCH   4  18
ATOM     18  N   UNL     1       3.642  -0.620  -0.038  0.00  0.00    -0.216 N 
ATOM     19  H   UNL     1       3.741  -1.418  -0.581  0.00  0.00    +0.174 HD
BRANCH  18  20
ATOM     20  S   UNL     1       4.970   0.071   0.669  0.00  0.00    +0.072 S 
ATOM     21  O   UNL     1       6.066  -0.796   0.409  0.00  0.00    -0.150 OA
ATOM     22  O   UNL     1       4.972   1.438   0.281  0.00  0.00    -0.150 OA
BRANCH  20  23
ATOM     23  C   UNL     1       4.707   0.043   2.411  0.00  0.00    +0.110 A 
ATOM     24  C   UNL     1       4.036   1.172   3.043  0.00  0.00    +0.031 A 
ATOM     25  C   UNL     1       3.803   1.213   4.373  0.00  0.00    +0.027 A 
ATOM     26  C   UNL     1       4.231   0.098   5.215  0.00  0.00    +0.056 A 
ATOM     27  N   UNL     1       4.164  -0.172   6.494  0.00  0.00    -0.268 N 
ATOM     28  C   UNL     1       4.748  -1.398   6.710  0.00  0.00    +0.308 C 
ATOM     29  O   UNL     1       4.850  -1.941   7.790  0.00  0.00    -0.252 OA
ATOM     30  N   UNL     1       5.199  -1.915   5.519  0.00  0.00    -0.267 N 
ATOM     31  C   UNL     1       4.921  -1.062   4.566  0.00  0.00    +0.058 A 
ATOM     32  C   UNL     1       5.128  -1.028   3.119  0.00  0.00    +0.054 A 
ATOM     33  H   UNL     1       5.648  -2.768   5.404  0.00  0.00    +0.156 HD
ATOM     34  H   UNL     1       3.769   0.396   7.174  0.00  0.00    +0.156 HD
ENDBRANCH  20  23
ENDBRANCH  18  20
ENDBRANCH   4  18
TORSDOF 7
