REMARK  Name = ZINC35632332
REMARK  6 active torsions:
REMARK  status: ('A' for Active; 'I' for Inactive)
REMARK    1  A    between atoms: C_1  and  C_2
REMARK    2  A    between atoms: C_2  and  C_4
REMARK    3  A    between atoms: C_2  and  O_22
REMARK    4  A    between atoms: C_7  and  O_13
REMARK    5  A    between atoms: C_8  and  N_10
REMARK    6  A    between atoms: O_13  and  C_14
REMARK                            x       y       z     vdW  Elec       q    Type
REMARK                         _______ _______ _______ _____ _____    ______ ____
ROOT
ATOM      1  C   UNL     1      -1.330  -0.771  -0.029  0.00  0.00    -0.017 A 
ATOM      2  C   UNL     1      -2.091  -0.707  -1.182  0.00  0.00    +0.010 A 
ATOM      3  C   UNL     1      -3.414  -1.102  -1.161  0.00  0.00    +0.049 A 
ATOM      4  C   UNL     1      -3.980  -1.564   0.018  0.00  0.00    +0.159 A 
ATOM      5  C   UNL     1      -3.215  -1.628   1.174  0.00  0.00    +0.168 A 
ATOM      6  C   UNL     1      -1.890  -1.237   1.146  0.00  0.00    +0.042 A 
ENDROOT
BRANCH   5   7
ATOM      7  N   UNL     1      -3.815  -2.121   2.434  0.00  0.00    +0.060 N 
ATOM      8  O   UNL     1      -3.148  -2.177   3.440  0.00  0.00    -0.126 OA
ATOM      9  O   UNL     1      -4.973  -2.468   2.457  0.00  0.00    -0.126 OA
ENDBRANCH   5   7
BRANCH   1  11
ATOM     10  C   UNL     1       0.197   1.173   0.157  0.00  0.00    +0.043 C 
ATOM     11  C   UNL     1       0.113  -0.340  -0.055  0.00  0.00    +0.141 C 
BRANCH  11  12
ATOM     12  O   UNL     1       0.689  -0.676  -1.319  0.00  0.00    -0.387 OA
ATOM     13  H   UNL     1       1.619  -0.427  -1.407  0.00  0.00    +0.210 HD
ENDBRANCH  11  12
ENDBRANCH   1  11
BRANCH   4  14
ATOM     14  O   UNL     1      -5.282  -1.953   0.042  0.00  0.00    -0.452 OA
BRANCH  14  15
ATOM     15  C   UNL     1      -5.962  -1.977  -1.135  0.00  0.00    +0.147 A 
ATOM     16  C   UNL     1      -6.717  -0.880  -1.523  0.00  0.00    +0.049 A 
ATOM     17  C   UNL     1      -7.408  -0.906  -2.719  0.00  0.00    +0.023 A 
ATOM     18  C   UNL     1      -7.348  -2.026  -3.530  0.00  0.00    +0.043 A 
ATOM     19  C   UNL     1      -6.596  -3.121  -3.145  0.00  0.00    +0.043 A 
ATOM     20  C   UNL     1      -5.898  -3.097  -1.952  0.00  0.00    +0.085 A 
ATOM     21 CL   UNL     1      -4.949  -4.469  -1.473  0.00  0.00    -0.080 Cl
ATOM     22 CL   UNL     1      -8.218  -2.056  -5.032  0.00  0.00    -0.083 Cl
ENDBRANCH  14  15
ENDBRANCH   4  14
TORSDOF 5
