REMARK  Name = ZINC00045297
REMARK  3 active torsions:
REMARK  status: ('A' for Active; 'I' for Inactive)
REMARK    1  A    between atoms: C_1  and  C_2
REMARK    2  A    between atoms: C_16  and  C_17
REMARK    3  A    between atoms: N_19  and  N_20
REMARK                            x       y       z     vdW  Elec       q    Type
REMARK                         _______ _______ _______ _____ _____    ______ ____
ROOT
ATOM      1  C   UNL     1      -1.340  -1.282   0.144  0.00  0.00    +0.045 C 
ATOM      2  C   UNL     1      -2.589  -0.439   0.113  0.00  0.00    -0.030 A 
ATOM      3  C   UNL     1      -3.819  -1.025   0.131  0.00  0.00    +0.075 A 
ATOM      4  C   UNL     1      -4.972  -0.230   0.102  0.00  0.00    +0.258 A 
ATOM      5  O   UNL     1      -6.070  -0.762   0.118  0.00  0.00    -0.267 OA
ATOM      6  N   UNL     1      -4.886   1.113   0.055  0.00  0.00    -0.260 N 
ATOM      7  C   UNL     1      -5.875   2.096   0.018  0.00  0.00    +0.075 A 
ATOM      8  C   UNL     1      -7.262   2.041   0.017  0.00  0.00    +0.028 A 
ATOM      9  C   UNL     1      -7.996   3.209  -0.026  0.00  0.00    +0.002 A 
ATOM     10  C   UNL     1      -7.355   4.436  -0.067  0.00  0.00    +0.002 A 
ATOM     11  C   UNL     1      -5.977   4.502  -0.067  0.00  0.00    +0.028 A 
ATOM     12  C   UNL     1      -5.229   3.332  -0.024  0.00  0.00    +0.065 A 
ATOM     13  N   UNL     1      -3.863   3.081  -0.013  0.00  0.00    -0.339 N 
ATOM     14  H   UNL     1      -3.162   3.752  -0.035  0.00  0.00    +0.167 HD
ATOM     15  C   UNL     1      -3.675   1.731   0.041  0.00  0.00    +0.132 A 
ATOM     16  C   UNL     1      -2.499   0.966   0.064  0.00  0.00    +0.082 A 
ENDROOT
BRANCH  16  17
ATOM     17  C   UNL     1      -1.187   1.625   0.043  0.00  0.00    +0.261 C 
ATOM     18  O   UNL     1      -0.528   1.700   1.064  0.00  0.00    -0.269 OA
ATOM     19  N   UNL     1      -0.713   2.147  -1.105  0.00  0.00    -0.249 N 
ATOM     20  H   UNL     1      -1.203   2.023  -1.933  0.00  0.00    +0.169 HD
BRANCH  19  21
ATOM     21  N   UNL     1       0.456   2.853  -1.103  0.00  0.00    -0.254 NA
ATOM     22  H   UNL     1       1.211   2.303  -0.722  0.00  0.00    +0.140 HD
ATOM     23  H   UNL     1       0.681   3.184  -2.029  0.00  0.00    +0.140 HD
ENDBRANCH  19  21
ENDBRANCH  16  17
TORSDOF 2
