REMARK  Name = ZINC31057763
REMARK  8 active torsions:
REMARK  status: ('A' for Active; 'I' for Inactive)
REMARK    1  A    between atoms: C_1  and  C_2
REMARK    2  A    between atoms: C_8  and  N_15
REMARK    3  A    between atoms: C_11  and  C_13
REMARK    4  A    between atoms: C_11  and  C_14
REMARK    5  A    between atoms: C_16  and  C_18
REMARK    6  A    between atoms: N_23  and  C_25
REMARK    7  A    between atoms: C_25  and  C_26
REMARK    8  A    between atoms: C_28  and  C_31
REMARK                            x       y       z     vdW  Elec       q    Type
REMARK                         _______ _______ _______ _____ _____    ______ ____
ROOT
ATOM      1  C   UNL     1      -2.498   1.380  -2.889  0.00  0.00    +0.058 C 
ATOM      2  C   UNL     1      -3.067   2.774  -2.612  0.00  0.00    +0.009 C 
ATOM      3  C   UNL     1      -3.855   3.248  -3.836  0.00  0.00    -0.018 C 
ATOM      4  C   UNL     1      -4.962   2.239  -4.146  0.00  0.00    -0.078 C 
ATOM      5  N   UNL     1      -4.367   0.921  -4.404  0.00  0.00    +0.386 N 
ATOM      6  C   UNL     1      -3.645   0.424  -3.225  0.00  0.00    -0.065 C 
ATOM      7  H   UNL     1      -3.639   1.036  -5.220  0.00  0.00    -0.081 HD
ENDROOT
BRANCH   1   9
ATOM      8  N   UNL     1      -0.720   1.570  -1.180  0.00  0.00    -0.308 N 
ATOM      9  C   UNL     1      -1.771   0.881  -1.666  0.00  0.00    +0.215 C 
ATOM     10  O   UNL     1      -2.132  -0.140  -1.120  0.00  0.00    -0.276 OA
ATOM     11  H   UNL     1      -0.393   2.497  -1.675  0.00  0.00    +0.149 HD
BRANCH   8  19
ATOM     12  C   UNL     1      -4.296   1.916   2.428  0.00  0.00    +0.044 C 
ATOM     13  C   UNL     1      -2.790   1.964   2.399  0.00  0.00    -0.050 A 
ATOM     14  C   UNL     1      -2.092   2.441   3.493  0.00  0.00    +0.007 A 
ATOM     15  C   UNL     1      -0.713   2.485   3.465  0.00  0.00    +0.046 A 
ATOM     16  C   UNL     1      -0.021   2.051   2.338  0.00  0.00    +0.126 A 
ATOM     17  C   UNL     1      -0.723   1.571   1.246  0.00  0.00    +0.015 A 
ATOM     18  C   UNL     1      -2.107   1.530   1.280  0.00  0.00    +0.012 A 
ATOM     19  C   UNL     1      -0.013   1.086   0.008  0.00  0.00    +0.110 C 
ATOM     20  C   UNL     1       1.424   1.615  -0.003  0.00  0.00    +0.074 C 
ATOM     21  C   UNL     1       2.046   1.347   1.374  0.00  0.00    +0.107 C 
ATOM     22  O   UNL     1       1.335   2.115   2.346  0.00  0.00    -0.486 OA
ATOM     23  C   UNL     1       1.932  -0.142   1.709  0.00  0.00    +0.055 C 
ATOM     24  C   UNL     1       3.518   1.763   1.364  0.00  0.00    +0.055 C 
ENDBRANCH   8  19
ENDBRANCH   1   9
BRANCH   5  25
ATOM     25  C   UNL     1      -5.388  -0.041  -4.840  0.00  0.00    +0.022 C 
BRANCH  25  26
ATOM     26  C   UNL     1      -5.931   0.376  -6.182  0.00  0.00    +0.211 A 
ATOM     27  N   UNL     1      -5.464   0.023  -7.353  0.00  0.00    -0.192 NA
ATOM     28  C   UNL     1      -6.262   0.631  -8.262  0.00  0.00    +0.209 A 
ATOM     29  N   UNL     1      -7.155   1.318  -7.592  0.00  0.00    -0.056 NA
ATOM     30  O   UNL     1      -6.976   1.181  -6.400  0.00  0.00    -0.340 OA
BRANCH  28  31
ATOM     31  C   UNL     1      -6.146   0.541  -9.732  0.00  0.00    +0.060 A 
ATOM     32  C   UNL     1      -6.917   1.135 -10.697  0.00  0.00    +0.019 A 
ATOM     33  C   UNL     1      -6.616   0.903 -12.019  0.00  0.00    +0.008 A 
ATOM     34  C   UNL     1      -5.567   0.097 -12.329  0.00  0.00    +0.046 A 
ATOM     35  S   UNL     1      -4.960  -0.362 -10.714  0.00  0.00    -0.093 S 
ENDBRANCH  28  31
ENDBRANCH  25  26
ENDBRANCH   5  25
TORSDOF 5
