REMARK  Name = ZINC12887146
REMARK  7 active torsions:
REMARK  status: ('A' for Active; 'I' for Inactive)
REMARK    1  A    between atoms: C_1  and  C_2
REMARK    2  A    between atoms: C_2  and  C_3
REMARK    3  A    between atoms: C_2  and  C_4
REMARK    4  A    between atoms: C_2  and  N_62
REMARK    5  A    between atoms: C_4  and  N_5
REMARK    6  A    between atoms: C_6  and  C_8
REMARK    7  A    between atoms: C_20  and  C_23
REMARK                            x       y       z     vdW  Elec       q    Type
REMARK                         _______ _______ _______ _____ _____    ______ ____
ROOT
ATOM      1  C   UNL     1       2.071   6.090   1.785  0.00  0.00    +0.078 C 
ATOM      2  C   UNL     1       3.105   5.460   0.848  0.00  0.00    +0.031 C 
ATOM      3  C   UNL     1       3.263   3.978   1.193  0.00  0.00    +0.107 C 
ATOM      4  N   UNL     1       1.969   3.299   1.050  0.00  0.00    -0.314 N 
ATOM      5  C   UNL     1       0.972   3.856   1.974  0.00  0.00    +0.107 C 
ATOM      6  C   UNL     1       0.745   5.335   1.652  0.00  0.00    +0.031 C 
ATOM      7  C   UNL     1       2.103   1.927   1.229  0.00  0.00    +0.142 A 
ATOM      8  C   UNL     1       0.968   1.098   1.129  0.00  0.00    +0.049 A 
ATOM      9  C   UNL     1       1.087  -0.245   1.302  0.00  0.00    +0.053 A 
ATOM     10  C   UNL     1       2.355  -0.790   1.580  0.00  0.00    +0.178 A 
ATOM     11  N   UNL     1       2.796  -2.020   1.794  0.00  0.00    -0.128 NA
ATOM     12  N   UNL     1       4.066  -1.984   2.006  0.00  0.00    -0.123 NA
ATOM     13  C   UNL     1       4.500  -0.749   1.940  0.00  0.00    +0.258 A 
ATOM     14  N   UNL     1       3.442   0.044   1.670  0.00  0.00    -0.187 N 
ATOM     15  N   UNL     1       3.285   1.419   1.488  0.00  0.00    -0.148 NA
ENDROOT
BRANCH   1  17
ATOM     16  N   UNL     1       0.996   8.295   2.106  0.00  0.00    -0.316 N 
ATOM     17  C   UNL     1       1.867   7.536   1.412  0.00  0.00    +0.216 C 
ATOM     18  O   UNL     1       2.488   8.017   0.488  0.00  0.00    -0.276 OA
ATOM     19  H   UNL     1       0.499   7.910   2.845  0.00  0.00    +0.149 HD
BRANCH  16  20
ATOM     20  C   UNL     1       0.798   9.700   1.743  0.00  0.00    +0.092 C 
BRANCH  20  22
ATOM     21  C   UNL     1       0.475  10.389   4.123  0.00  0.00    -0.008 C 
ATOM     22  C   UNL     1      -0.168  10.352   2.735  0.00  0.00    -0.055 C 
ATOM     23  C   UNL     1      -0.481  11.779   2.280  0.00  0.00    -0.008 C 
BRANCH  22  29
ATOM     24  C   UNL     1      -2.021   9.455   1.461  0.00  0.00    -0.078 C 
ATOM     25  C   UNL     1      -3.229   8.519   1.532  0.00  0.00    -0.019 C 
ATOM     26  C   UNL     1      -4.245   9.080   2.531  0.00  0.00    -0.004 C 
ATOM     27  C   UNL     1      -3.572   9.237   3.897  0.00  0.00    -0.019 C 
ATOM     28  C   UNL     1      -2.353  10.152   3.757  0.00  0.00    -0.078 C 
ATOM     29  N   UNL     1      -1.403   9.545   2.801  0.00  0.00    +0.384 N 
ATOM     30  H   UNL     1      -1.167   8.599   3.123  0.00  0.00    -0.081 HD
ENDBRANCH  22  29
ENDBRANCH  20  22
ENDBRANCH  16  20
ENDBRANCH   1  17
BRANCH  13  31
ATOM     31  C   UNL     1       5.925  -0.297   2.132  0.00  0.00    +0.454 C 
ATOM     32  F   UNL     1       6.779  -1.401   2.055  0.00  0.00    -0.163 F 
ATOM     33  F   UNL     1       6.260   0.624   1.133  0.00  0.00    -0.163 F 
ATOM     34  F   UNL     1       6.057   0.308   3.387  0.00  0.00    -0.163 F 
ENDBRANCH  13  31
TORSDOF 5
