REMARK  Name = ZINC20977621
REMARK  4 active torsions:
REMARK  status: ('A' for Active; 'I' for Inactive)
REMARK    1  A    between atoms: N_10  and  S_11
REMARK    2  A    between atoms: S_11  and  C_14
REMARK    3  A    between atoms: C_17  and  C_19
REMARK    4  A    between atoms: C_21  and  C_24
REMARK                            x       y       z     vdW  Elec       q    Type
REMARK                         _______ _______ _______ _____ _____    ______ ____
ROOT
ATOM      1  C   UNL     1       6.157   0.831  -0.052  0.00  0.00    +0.147 A 
ATOM      2  C   UNL     1       5.513   2.027  -0.026  0.00  0.00    +0.037 A 
ATOM      3  C   UNL     1       4.137   2.049  -0.022  0.00  0.00    +0.020 A 
ATOM      4  C   UNL     1       3.460   0.858  -0.033  0.00  0.00    +0.043 A 
ATOM      5  S   UNL     1       4.796  -0.325  -0.064  0.00  0.00    -0.067 S 
ENDROOT
BRANCH   4   6
ATOM      6  C   UNL     1       2.002   0.616  -0.028  0.00  0.00    +0.120 A 
ATOM      7  C   UNL     1       1.343  -0.647  -0.046  0.00  0.00    +0.085 A 
ATOM      8  C   UNL     1       0.030  -0.330  -0.031  0.00  0.00    +0.240 A 
ATOM      9  O   UNL     1      -0.044   1.009  -0.007  0.00  0.00    -0.350 OA
ATOM     10  N   UNL     1       1.052   1.521  -0.005  0.00  0.00    -0.077 NA
BRANCH   8  11
ATOM     11  C   UNL     1      -1.129  -1.294  -0.041  0.00  0.00    +0.453 C 
ATOM     12  F   UNL     1      -1.478  -1.615   1.275  0.00  0.00    -0.163 F 
ATOM     13  F   UNL     1      -2.222  -0.703  -0.682  0.00  0.00    -0.163 F 
ATOM     14  F   UNL     1      -0.761  -2.458  -0.723  0.00  0.00    -0.163 F 
ENDBRANCH   8  11
ENDBRANCH   4   6
BRANCH   1  15
ATOM     15  S   UNL     1       7.888   0.505  -0.070  0.00  0.00    +0.081 S 
ATOM     16  O   UNL     1       8.053  -0.784  -0.645  0.00  0.00    -0.149 OA
ATOM     17  O   UNL     1       8.514   1.663  -0.604  0.00  0.00    -0.149 OA
BRANCH  15  27
ATOM     18  C   UNL     1       7.889  -3.201   3.567  0.00  0.00    +0.000 A 
ATOM     19  C   UNL     1       7.243  -2.998   2.361  0.00  0.00    +0.002 A 
ATOM     20  C   UNL     1       7.407  -1.808   1.683  0.00  0.00    +0.025 A 
ATOM     21  C   UNL     1       8.223  -0.813   2.212  0.00  0.00    +0.054 A 
ATOM     22  C   UNL     1       8.869  -1.016   3.421  0.00  0.00    -0.025 A 
ATOM     23  C   UNL     1       8.699  -2.214   4.094  0.00  0.00    +0.005 A 
ATOM     24  C   UNL     1       9.756   0.040   4.027  0.00  0.00    +0.038 C 
ATOM     25  C   UNL     1      10.217   1.029   2.957  0.00  0.00    +0.025 C 
ATOM     26  C   UNL     1       8.995   1.534   2.186  0.00  0.00    +0.132 C 
ATOM     27  N   UNL     1       8.381   0.385   1.507  0.00  0.00    -0.202 N 
ENDBRANCH  15  27
ENDBRANCH   1  15
TORSDOF 4
