REMARK  Name = ZINC04986549
REMARK  4 active torsions:
REMARK  status: ('A' for Active; 'I' for Inactive)
REMARK    1  A    between atoms: C_10  and  N_11
REMARK    2  A    between atoms: C_12  and  C_14
REMARK    3  A    between atoms: C_14  and  N_15
REMARK    4  A    between atoms: C_20  and  C_22
REMARK                            x       y       z     vdW  Elec       q    Type
REMARK                         _______ _______ _______ _____ _____    ______ ____
ROOT
ATOM      1  N   UNL     1      -2.513   3.781   0.047  0.00  0.00    -0.283 N 
ATOM      2  C   UNL     1      -3.658   3.076  -0.047  0.00  0.00    +0.239 C 
ATOM      3  O   UNL     1      -3.624   1.863  -0.054  0.00  0.00    -0.273 OA
ATOM      4  H   UNL     1      -2.544   4.747   0.133  0.00  0.00    +0.155 HD
ENDROOT
BRANCH   1  14
ATOM      5  C   UNL     1       2.116   4.831   1.762  0.00  0.00    +0.001 A 
ATOM      6  C   UNL     1       0.898   5.506   1.800  0.00  0.00    +0.001 A 
ATOM      7  C   UNL     1      -0.219   4.967   1.238  0.00  0.00    +0.010 A 
ATOM      8  C   UNL     1      -0.146   3.712   0.613  0.00  0.00    +0.003 A 
ATOM      9  C   UNL     1       1.092   3.025   0.574  0.00  0.00    -0.016 A 
ATOM     10  C   UNL     1       2.224   3.613   1.164  0.00  0.00    +0.008 A 
ATOM     11  C   UNL     1       1.167   1.769  -0.052  0.00  0.00    +0.008 A 
ATOM     12  C   UNL     1       0.054   1.224  -0.616  0.00  0.00    +0.002 A 
ATOM     13  C   UNL     1      -1.166   1.892  -0.590  0.00  0.00    +0.024 A 
ATOM     14  C   UNL     1      -1.283   3.122   0.021  0.00  0.00    +0.041 A 
ENDBRANCH   1  14
BRANCH   2  15
ATOM     15  C   UNL     1      -4.979   3.794  -0.144  0.00  0.00    +0.243 C 
BRANCH  15  16
ATOM     16  N   UNL     1      -6.063   2.812  -0.236  0.00  0.00    -0.220 N 
ATOM     17  C   UNL     1      -6.638   2.364   0.896  0.00  0.00    +0.268 A 
ATOM     18  O   UNL     1      -6.259   2.774   1.981  0.00  0.00    -0.266 OA
ATOM     19  C   UNL     1      -7.684   1.417   0.819  0.00  0.00    +0.074 A 
ATOM     20  C   UNL     1      -8.070   0.992  -0.417  0.00  0.00    +0.036 A 
ATOM     21  C   UNL     1      -7.403   1.523  -1.548  0.00  0.00    +0.098 A 
ATOM     22  N   UNL     1      -6.441   2.406  -1.394  0.00  0.00    -0.167 NA
BRANCH  21  23
ATOM     23  C   UNL     1      -7.792   1.088  -2.905  0.00  0.00    +0.039 A 
ATOM     24  C   UNL     1      -7.284   1.478  -4.115  0.00  0.00    +0.018 A 
ATOM     25  C   UNL     1      -7.810   0.927  -5.263  0.00  0.00    +0.008 A 
ATOM     26  C   UNL     1      -8.820   0.024  -5.161  0.00  0.00    +0.046 A 
ATOM     27  S   UNL     1      -9.054  -0.077  -3.394  0.00  0.00    -0.095 S 
ENDBRANCH  21  23
ENDBRANCH  15  16
ENDBRANCH   2  15
TORSDOF 4
