REMARK  Name = ZINC13273370
REMARK  11 active torsions:
REMARK  status: ('A' for Active; 'I' for Inactive)
REMARK    1  A    between atoms: C_1  and  C_2
REMARK    2  A    between atoms: C_2  and  N_3
REMARK    3  A    between atoms: C_4  and  C_28
REMARK    4  A    between atoms: C_7  and  S_8
REMARK    5  A    between atoms: S_8  and  C_9
REMARK    6  A    between atoms: C_12  and  C_18
REMARK    7  A    between atoms: C_14  and  N_15
REMARK    8  A    between atoms: C_18  and  C_20
REMARK    9  A    between atoms: C_25  and  C_26
REMARK   10  A    between atoms: C_28  and  C_29
REMARK   11  A    between atoms: C_29  and  C_30
REMARK                            x       y       z     vdW  Elec       q    Type
REMARK                         _______ _______ _______ _____ _____    ______ ____
ROOT
ATOM      1  C   UNL     1       2.282   5.085   2.629  0.00  0.00    +0.046 A 
ATOM      2  C   UNL     1       1.491   6.183   2.292  0.00  0.00    +0.018 A 
ATOM      3  C   UNL     1       1.853   7.436   2.695  0.00  0.00    +0.013 A 
ATOM      4  C   UNL     1       3.024   7.619   3.440  0.00  0.00    +0.025 A 
ATOM      5  C   UNL     1       3.818   6.515   3.773  0.00  0.00    +0.045 A 
ATOM      6  C   UNL     1       3.448   5.264   3.370  0.00  0.00    +0.141 A 
ENDROOT
BRANCH   6   7
ATOM      7  N   UNL     1       4.287   4.096   3.722  0.00  0.00    +0.058 N 
ATOM      8  O   UNL     1       5.306   4.252   4.370  0.00  0.00    -0.126 OA
ATOM      9  O   UNL     1       3.957   2.979   3.364  0.00  0.00    -0.126 OA
ENDBRANCH   6   7
BRANCH   4  10
ATOM     10  C   UNL     1       3.420   8.970   3.872  0.00  0.00    +0.194 C 
ATOM     11  O   UNL     1       4.487   9.142   4.429  0.00  0.00    -0.287 OA
BRANCH  10  12
ATOM     12  C   UNL     1       2.521  10.118   3.628  0.00  0.00    +0.036 A 
ATOM     13  C   UNL     1       2.794  11.017   2.599  0.00  0.00    +0.012 A 
ATOM     14  C   UNL     1       1.946  12.085   2.371  0.00  0.00    +0.001 A 
ATOM     15  C   UNL     1       0.831  12.276   3.167  0.00  0.00    +0.001 A 
ATOM     16  C   UNL     1       0.547  11.398   4.197  0.00  0.00    +0.016 A 
ATOM     17  C   UNL     1       1.385  10.313   4.438  0.00  0.00    +0.074 A 
BRANCH  17  18
ATOM     18  C   UNL     1       1.086   9.371   5.537  0.00  0.00    +0.387 C 
ATOM     19  O   UNL     1       1.872   8.488   5.811  0.00  0.00    -0.241 OA
ATOM     20  O   UNL     1      -0.060   9.493   6.235  0.00  0.00    -0.241 OA
ENDBRANCH  17  18
ENDBRANCH  10  12
ENDBRANCH   4  10
BRANCH   1  21
ATOM     21  S   UNL     1       1.808   3.469   2.111  0.00  0.00    -0.048 S 
BRANCH  21  26
ATOM     22  N   UNL     1       0.541   1.636   3.804  0.00  0.00    -0.306 N 
ATOM     23  C   UNL     1       0.210   1.584   5.129  0.00  0.00    +0.135 A 
ATOM     24  N   UNL     1       0.607   2.701   5.673  0.00  0.00    -0.133 NA
ATOM     25  N   UNL     1       1.162   3.449   4.787  0.00  0.00    -0.122 NA
ATOM     26  C   UNL     1       1.154   2.843   3.623  0.00  0.00    +0.196 A 
BRANCH  22  28
ATOM     27  C   UNL     1      -1.070   0.849   2.141  0.00  0.00    +0.027 C 
ATOM     28  C   UNL     1       0.294   0.608   2.790  0.00  0.00    +0.122 C 
ENDBRANCH  22  28
BRANCH  23  29
ATOM     29  C   UNL     1      -0.486   0.447   5.832  0.00  0.00    +0.085 C 
BRANCH  29  30
ATOM     30  C   UNL     1       0.556  -0.537   6.366  0.00  0.00    +0.103 C 
BRANCH  30  31
ATOM     31  C   UNL     1      -0.140  -1.674   7.068  0.00  0.00    +0.211 C 
ATOM     32  O   UNL     1      -1.351  -1.695   7.135  0.00  0.00    -0.276 OA
ATOM     33  N   UNL     1       0.583  -2.668   7.622  0.00  0.00    -0.329 N 
ATOM     34  H   UNL     1       1.552  -2.651   7.568  0.00  0.00    +0.145 HD
ATOM     35  H   UNL     1       0.135  -3.400   8.074  0.00  0.00    +0.145 HD
ENDBRANCH  30  31
ENDBRANCH  29  30
ENDBRANCH  23  29
ENDBRANCH  21  26
ENDBRANCH   1  21
TORSDOF 10
