REMARK  Name = ZINC00804101
REMARK  5 active torsions:
REMARK  status: ('A' for Active; 'I' for Inactive)
REMARK    1  A    between atoms: C_1  and  C_2
REMARK    2  A    between atoms: C_2  and  C_4
REMARK    3  A    between atoms: C_5  and  N_26
REMARK    4  A    between atoms: C_7  and  C_22
REMARK    5  A    between atoms: C_9  and  C_13
REMARK                            x       y       z     vdW  Elec       q    Type
REMARK                         _______ _______ _______ _____ _____    ______ ____
ROOT
ATOM      1  C   UNL     1      -0.080   1.431   2.408  0.00  0.00    +0.077 A 
ATOM      2  C   UNL     1      -0.792   1.508   3.594  0.00  0.00    +0.052 A 
ATOM      3  C   UNL     1      -0.313   0.744   4.733  0.00  0.00    +0.041 A 
ATOM      4  C   UNL     1      -0.869   0.660   6.037  0.00  0.00    +0.068 A 
ATOM      5  C   UNL     1      -0.257  -0.115   6.973  0.00  0.00    +0.041 A 
ATOM      6  C   UNL     1       0.907  -0.823   6.655  0.00  0.00    +0.073 A 
ATOM      7  N   UNL     1       1.426  -0.743   5.436  0.00  0.00    -0.239 NA
ATOM      8  C   UNL     1       0.865  -0.005   4.503  0.00  0.00    +0.112 A 
ATOM      9  S   UNL     1       1.266   0.333   2.807  0.00  0.00    -0.064 S 
ENDROOT
BRANCH   6  10
ATOM     10  C   UNL     1       1.564  -1.663   7.683  0.00  0.00    +0.004 A 
ATOM     11  C   UNL     1       0.968  -1.833   8.932  0.00  0.00    +0.014 A 
ATOM     12  C   UNL     1       1.580  -2.616   9.888  0.00  0.00    +0.050 A 
ATOM     13  C   UNL     1       2.789  -3.237   9.612  0.00  0.00    +0.166 A 
ATOM     14  C   UNL     1       3.390  -3.071   8.364  0.00  0.00    +0.167 A 
ATOM     15  C   UNL     1       2.778  -2.291   7.401  0.00  0.00    +0.059 A 
ATOM     16  O   UNL     1       4.559  -3.777   8.346  0.00  0.00    -0.453 OA
ATOM     17  C   UNL     1       4.464  -4.704   9.443  0.00  0.00    +0.466 C 
ATOM     18  O   UNL     1       3.582  -4.047  10.372  0.00  0.00    -0.453 OA
ENDBRANCH   6  10
BRANCH   4  19
ATOM     19  C   UNL     1      -2.123   1.422   6.380  0.00  0.00    +0.418 C 
ATOM     20  F   UNL     1      -2.545   1.070   7.667  0.00  0.00    -0.166 F 
ATOM     21  F   UNL     1      -1.862   2.796   6.335  0.00  0.00    -0.166 F 
ATOM     22  F   UNL     1      -3.127   1.108   5.458  0.00  0.00    -0.166 F 
ENDBRANCH   4  19
BRANCH   1  24
ATOM     23  C   UNL     1       0.563   1.856   0.007  0.00  0.00    +0.092 C 
ATOM     24  C   UNL     1      -0.350   2.070   1.187  0.00  0.00    +0.168 C 
ATOM     25  O   UNL     1      -1.320   2.795   1.082  0.00  0.00    -0.292 OA
ENDBRANCH   1  24
BRANCH   2  26
ATOM     26  N   UNL     1      -1.931   2.288   3.689  0.00  0.00    -0.356 N 
ATOM     27  H   UNL     1      -2.430   2.518   2.889  0.00  0.00    +0.142 HD
ATOM     28  H   UNL     1      -2.231   2.605   4.555  0.00  0.00    +0.142 HD
ENDBRANCH   2  26
TORSDOF 4
