REMARK  Name = ZINC36657798
REMARK  9 active torsions:
REMARK  status: ('A' for Active; 'I' for Inactive)
REMARK    1  A    between atoms: C_1  and  C_2
REMARK    2  A    between atoms: C_5  and  S_8
REMARK    3  A    between atoms: S_8  and  N_11
REMARK    4  A    between atoms: C_14  and  C_17
REMARK    5  A    between atoms: C_23  and  C_25
REMARK    6  A    between atoms: C_25  and  C_26
REMARK    7  A    between atoms: C_29  and  C_32
REMARK    8  A    between atoms: C_32  and  C_33
REMARK    9  A    between atoms: C_32  and  C_34
REMARK                            x       y       z     vdW  Elec       q    Type
REMARK                         _______ _______ _______ _____ _____    ______ ____
ROOT
ATOM      1  C   UNL     1       4.498  -8.132  -0.077  0.00  0.00    +0.224 C 
ATOM      2  O   UNL     1       4.276  -8.895  -0.994  0.00  0.00    -0.275 OA
ATOM      3  N   UNL     1       5.316  -8.505   0.927  0.00  0.00    -0.238 N 
ATOM      4  C   UNL     1       5.905  -9.761   0.912  0.00  0.00    +0.314 A 
ATOM      5  N   UNL     1       5.758 -10.676  -0.013  0.00  0.00    -0.092 NA
ATOM      6  N   UNL     1       6.450 -11.714   0.301  0.00  0.00    -0.111 NA
ATOM      7  C   UNL     1       7.061 -11.503   1.431  0.00  0.00    +0.223 A 
ATOM      8  O   UNL     1       6.737 -10.263   1.842  0.00  0.00    -0.409 OA
ATOM      9  H   UNL     1       5.493  -7.895   1.660  0.00  0.00    +0.159 HD
ENDROOT
BRANCH   1  13
ATOM     10  N   UNL     1       1.651  -4.999  -0.034  0.00  0.00    -0.177 NA
ATOM     11  C   UNL     1       2.364  -5.199  -1.304  0.00  0.00    +0.110 C 
ATOM     12  C   UNL     1       2.984  -6.599  -1.306  0.00  0.00    +0.030 C 
ATOM     13  C   UNL     1       3.858  -6.767  -0.061  0.00  0.00    +0.078 C 
ATOM     14  C   UNL     1       2.995  -6.624   1.194  0.00  0.00    +0.030 C 
ATOM     15  C   UNL     1       2.376  -5.218   1.225  0.00  0.00    +0.110 C 
BRANCH  10  16
ATOM     16  S   UNL     1       0.063  -4.530  -0.023  0.00  0.00    +0.061 S 
ATOM     17  O   UNL     1      -0.476  -4.950   1.223  0.00  0.00    -0.153 OA
ATOM     18  O   UNL     1      -0.490  -4.937  -1.267  0.00  0.00    -0.153 OA
BRANCH  16  23
ATOM     19  C   UNL     1      -0.018   1.503   0.010  0.00  0.00    +0.044 C 
ATOM     20  C   UNL     1       0.002  -0.004   0.002  0.00  0.00    -0.050 A 
ATOM     21  C   UNL     1       0.006  -0.689  -1.199  0.00  0.00    +0.005 A 
ATOM     22  C   UNL     1       0.025  -2.071  -1.206  0.00  0.00    +0.029 A 
ATOM     23  C   UNL     1       0.040  -2.768  -0.013  0.00  0.00    +0.105 A 
ATOM     24  C   UNL     1       0.037  -2.084   1.188  0.00  0.00    +0.029 A 
ATOM     25  C   UNL     1       0.023  -0.702   1.195  0.00  0.00    +0.005 A 
ENDBRANCH  16  23
ENDBRANCH  10  16
ENDBRANCH   1  13
BRANCH   7  26
ATOM     26  C   UNL     1       7.971 -12.470   2.145  0.00  0.00    +0.132 C 
BRANCH  26  27
ATOM     27  C   UNL     1       9.389 -12.261   1.681  0.00  0.00    -0.038 A 
ATOM     28  C   UNL     1       9.871 -12.963   0.592  0.00  0.00    +0.004 A 
ATOM     29  C   UNL     1      11.172 -12.772   0.166  0.00  0.00    +0.004 A 
ATOM     30  C   UNL     1      11.991 -11.878   0.829  0.00  0.00    -0.045 A 
ATOM     31  C   UNL     1      11.509 -11.175   1.918  0.00  0.00    +0.004 A 
ATOM     32  C   UNL     1      10.207 -11.363   2.341  0.00  0.00    +0.004 A 
BRANCH  30  33
ATOM     33  C   UNL     1      13.410 -11.670   0.366  0.00  0.00    +0.013 C 
ATOM     34  C   UNL     1      13.610 -10.204  -0.024  0.00  0.00    +0.012 C 
ATOM     35  C   UNL     1      14.374 -12.032   1.497  0.00  0.00    +0.012 C 
ENDBRANCH  30  33
ENDBRANCH  26  27
ENDBRANCH   7  26
TORSDOF 6
