REMARK  Name = ZINC09917036
REMARK  12 active torsions:
REMARK  status: ('A' for Active; 'I' for Inactive)
REMARK    1  A    between atoms: C_1  and  C_2
REMARK    2  A    between atoms: C_2  and  O_3
REMARK    3  A    between atoms: O_3  and  C_4
REMARK    4  A    between atoms: C_7  and  C_23
REMARK    5  A    between atoms: C_9  and  C_10
REMARK    6  A    between atoms: N_12  and  C_13
REMARK    7  A    between atoms: C_13  and  C_14
REMARK    8  A    between atoms: C_19  and  C_20
REMARK    9  A    between atoms: C_20  and  N_64
REMARK   10  A    between atoms: C_21  and  N_64
REMARK   11  A    between atoms: C_22  and  N_64
REMARK   12  A    between atoms: C_23  and  N_24
REMARK                            x       y       z     vdW  Elec       q    Type
REMARK                         _______ _______ _______ _____ _____    ______ ____
ROOT
ATOM      1  C   UNL     1      -2.049   1.212  -0.180  0.00  0.00    +0.133 A 
ATOM      2  C   UNL     1      -0.950   0.417   0.109  0.00  0.00    +0.047 A 
ATOM      3  C   UNL     1       0.207   0.989   0.600  0.00  0.00    +0.009 A 
ATOM      4  C   UNL     1       0.279   2.356   0.811  0.00  0.00    -0.029 A 
ATOM      5  C   UNL     1      -0.806   3.160   0.534  0.00  0.00    +0.022 A 
ATOM      6  C   UNL     1      -1.983   2.594   0.038  0.00  0.00    +0.079 A 
ENDROOT
BRANCH   6   7
ATOM      7  C   UNL     1      -3.148   3.449  -0.261  0.00  0.00    +0.248 C 
ATOM      8  O   UNL     1      -4.170   2.954  -0.693  0.00  0.00    -0.270 OA
ATOM      9  N   UNL     1      -3.078   4.779  -0.056  0.00  0.00    -0.307 N 
ATOM     10  H   UNL     1      -2.262   5.175   0.289  0.00  0.00    +0.149 HD
BRANCH   9  11
ATOM     11  C   UNL     1      -4.234   5.628  -0.352  0.00  0.00    +0.140 C 
BRANCH  11  12
ATOM     12  C   UNL     1      -3.899   7.063  -0.038  0.00  0.00    -0.029 A 
ATOM     13  C   UNL     1      -4.220   7.593   1.198  0.00  0.00    +0.005 A 
ATOM     14  C   UNL     1      -3.907   8.908   1.489  0.00  0.00    +0.000 A 
ATOM     15  C   UNL     1      -3.283   9.696   0.540  0.00  0.00    +0.000 A 
ATOM     16  C   UNL     1      -2.967   9.167  -0.698  0.00  0.00    +0.002 A 
ATOM     17  C   UNL     1      -3.275   7.851  -0.986  0.00  0.00    -0.059 A 
BRANCH  17  18
ATOM     18  C   UNL     1      -2.930   7.275  -2.336  0.00  0.00    -0.043 C 
BRANCH  18  21
ATOM     19  C   UNL     1      -1.618   5.533  -3.388  0.00  0.00    -0.096 C 
ATOM     20  C   UNL     1      -0.536   7.184  -1.986  0.00  0.00    -0.096 C 
ATOM     21  N   UNL     1      -1.762   6.383  -2.187  0.00  0.00    +0.379 N 
ATOM     22  H   UNL     1      -1.904   5.780  -1.367  0.00  0.00    -0.082 HD
ENDBRANCH  18  21
ENDBRANCH  17  18
ENDBRANCH  11  12
ENDBRANCH   9  11
ENDBRANCH   6   7
BRANCH   1  23
ATOM     23  O   UNL     1      -3.185   0.652  -0.668  0.00  0.00    -0.491 OA
BRANCH  23  25
ATOM     24  C   UNL     1      -4.536  -1.209  -1.411  0.00  0.00    +0.048 C 
ATOM     25  C   UNL     1      -3.180  -0.764  -0.859  0.00  0.00    +0.226 C 
ENDBRANCH  23  25
ENDBRANCH   1  23
BRANCH   4  26
ATOM     26  C   UNL     1       1.548   2.967   1.347  0.00  0.00    +0.152 C 
BRANCH  26  27
ATOM     27  N   UNL     1       2.419   3.341   0.230  0.00  0.00    -0.230 N 
ATOM     28  C   UNL     1       3.346   2.533  -0.316  0.00  0.00    +0.254 C 
ATOM     29  O   UNL     1       3.589   1.396   0.033  0.00  0.00    -0.270 OA
ATOM     30  C   UNL     1       4.017   3.261  -1.414  0.00  0.00    +0.049 A 
ATOM     31  C   UNL     1       5.025   2.944  -2.311  0.00  0.00    +0.014 A 
ATOM     32  C   UNL     1       5.437   3.885  -3.241  0.00  0.00    +0.001 A 
ATOM     33  C   UNL     1       4.850   5.136  -3.280  0.00  0.00    +0.001 A 
ATOM     34  C   UNL     1       3.841   5.467  -2.389  0.00  0.00    +0.014 A 
ATOM     35  C   UNL     1       3.418   4.536  -1.453  0.00  0.00    +0.049 A 
ATOM     36  C   UNL     1       2.401   4.539  -0.381  0.00  0.00    +0.254 C 
ATOM     37  O   UNL     1       1.671   5.468  -0.099  0.00  0.00    -0.270 OA
ENDBRANCH  26  27
ENDBRANCH   4  26
TORSDOF 9
