REMARK  Name = ZINC59056367
REMARK  7 active torsions:
REMARK  status: ('A' for Active; 'I' for Inactive)
REMARK    1  A    between atoms: C_1  and  C_2
REMARK    2  A    between atoms: C_5  and  N_8
REMARK    3  A    between atoms: C_9  and  C_27
REMARK    4  A    between atoms: N_11  and  C_17
REMARK    5  A    between atoms: C_12  and  C_14
REMARK    6  A    between atoms: C_14  and  C_16
REMARK    7  A    between atoms: C_30  and  C_32
REMARK                            x       y       z     vdW  Elec       q    Type
REMARK                         _______ _______ _______ _____ _____    ______ ____
ROOT
ATOM      1  N   UNL     1      -0.489  -3.897   0.415  0.00  0.00    -0.197 N 
ATOM      2  C   UNL     1      -0.141  -5.127   1.145  0.00  0.00    +0.227 C 
ATOM      3  N   UNL     1       0.386  -6.027   0.105  0.00  0.00    -0.255 N 
ATOM      4  C   UNL     1       0.322  -5.321  -1.100  0.00  0.00    +0.188 C 
ATOM      5  N   UNL     1      -0.173  -4.130  -0.929  0.00  0.00    -0.158 NA
ENDROOT
BRANCH   3   6
ATOM      6  C   UNL     1       0.855  -7.325   0.287  0.00  0.00    +0.045 A 
ATOM      7  C   UNL     1      -0.031  -8.376   0.405  0.00  0.00    +0.024 A 
ATOM      8  C   UNL     1       0.428  -9.676   0.587  0.00  0.00    +0.002 A 
ATOM      9  C   UNL     1       1.761  -9.949   0.654  0.00  0.00    +0.008 A 
ATOM     10  C   UNL     1       2.697  -8.907   0.538  0.00  0.00    -0.016 A 
ATOM     11  C   UNL     1       2.243  -7.579   0.347  0.00  0.00    +0.004 A 
ATOM     12  C   UNL     1       3.179  -6.541   0.226  0.00  0.00    +0.010 A 
ATOM     13  C   UNL     1       4.510  -6.822   0.289  0.00  0.00    +0.001 A 
ATOM     14  C   UNL     1       4.958  -8.129   0.471  0.00  0.00    +0.001 A 
ATOM     15  C   UNL     1       4.079  -9.159   0.604  0.00  0.00    +0.008 A 
ENDBRANCH   3   6
BRANCH   1  20
ATOM     16  C   UNL     1      -2.701   0.840   2.607  0.00  0.00    +0.044 C 
ATOM     17  C   UNL     1      -2.113  -0.419   2.024  0.00  0.00    -0.050 A 
ATOM     18  C   UNL     1      -1.732  -0.452   0.695  0.00  0.00    +0.005 A 
ATOM     19  C   UNL     1      -1.193  -1.604   0.157  0.00  0.00    +0.025 A 
ATOM     20  C   UNL     1      -1.033  -2.731   0.954  0.00  0.00    +0.054 A 
ATOM     21  C   UNL     1      -1.416  -2.695   2.290  0.00  0.00    +0.025 A 
ATOM     22  C   UNL     1      -1.950  -1.537   2.821  0.00  0.00    +0.005 A 
ENDBRANCH   1  20
BRANCH   2  23
ATOM     23  C   UNL     1       0.912  -4.843   2.185  0.00  0.00    +0.030 A 
ATOM     24  C   UNL     1       0.906  -5.136   3.508  0.00  0.00    +0.015 A 
ATOM     25  C   UNL     1       1.996  -4.777   4.279  0.00  0.00    +0.011 A 
ATOM     26  C   UNL     1       3.038  -4.143   3.689  0.00  0.00    -0.013 A 
ATOM     27  S   UNL     1       2.496  -4.042   1.991  0.00  0.00    -0.095 S 
ATOM     28  C   UNL     1       4.324  -3.655   4.305  0.00  0.00    +0.051 C 
ENDBRANCH   2  23
BRANCH   4  29
ATOM     29  C   UNL     1       0.739  -5.839  -2.350  0.00  0.00    +0.194 C 
ATOM     30  O   UNL     1       1.187  -6.965  -2.422  0.00  0.00    -0.289 OA
ATOM     31  C   UNL     1       0.627  -4.992  -3.592  0.00  0.00    +0.095 C 
ENDBRANCH   4  29
TORSDOF 4
