REMARK  Name = ZINC09823174
REMARK  6 active torsions:
REMARK  status: ('A' for Active; 'I' for Inactive)
REMARK    1  A    between atoms: C_6  and  C_7
REMARK    2  A    between atoms: C_7  and  N_8
REMARK    3  A    between atoms: N_17  and  C_18
REMARK    4  A    between atoms: C_18  and  C_19
REMARK    5  A    between atoms: C_19  and  N_20
REMARK    6  A    between atoms: C_21  and  C_23
REMARK                            x       y       z     vdW  Elec       q    Type
REMARK                         _______ _______ _______ _____ _____    ______ ____
ROOT
ATOM      1  N   UNL     1     -10.381  -2.554   3.816  0.00  0.00    -0.294 N 
ATOM      2  C   UNL     1      -9.045  -2.390   3.981  0.00  0.00    +0.204 A 
ATOM      3  N   UNL     1      -8.399  -1.348   3.547  0.00  0.00    -0.218 NA
ATOM      4  C   UNL     1      -9.018  -0.350   2.897  0.00  0.00    +0.165 A 
ATOM      5  C   UNL     1     -10.403  -0.431   2.678  0.00  0.00    +0.103 A 
ATOM      6  C   UNL     1     -11.111  -1.611   3.175  0.00  0.00    +0.265 A 
ATOM      7  O   UNL     1     -12.312  -1.740   3.018  0.00  0.00    -0.267 OA
ATOM      8  C   UNL     1     -10.785   0.732   1.985  0.00  0.00    +0.150 A 
ATOM      9  N   UNL     1      -9.724   1.467   1.801  0.00  0.00    -0.177 NA
ATOM     10  N   UNL     1      -8.607   0.823   2.349  0.00  0.00    -0.245 N 
ENDROOT
BRANCH   1  11
ATOM     11  C   UNL     1     -11.038  -3.757   4.334  0.00  0.00    +0.161 C 
BRANCH  11  17
ATOM     12  C   UNL     1     -10.658  -3.798   6.808  0.00  0.00    +0.007 A 
ATOM     13  C   UNL     1     -11.076  -3.566   8.104  0.00  0.00    +0.020 A 
ATOM     14  C   UNL     1     -12.339  -3.054   8.342  0.00  0.00    +0.041 A 
ATOM     15  C   UNL     1     -13.181  -2.771   7.282  0.00  0.00    +0.020 A 
ATOM     16  C   UNL     1     -12.759  -2.998   5.985  0.00  0.00    +0.007 A 
ATOM     17  C   UNL     1     -11.497  -3.509   5.748  0.00  0.00    -0.028 A 
ATOM     18 CL   UNL     1     -12.867  -2.768   9.971  0.00  0.00    -0.084 Cl
ENDBRANCH  11  17
ENDBRANCH   1  11
BRANCH  10  19
ATOM     19  C   UNL     1      -7.233   1.330   2.338  0.00  0.00    +0.164 C 
BRANCH  19  20
ATOM     20  C   UNL     1      -6.517   0.837   1.080  0.00  0.00    +0.127 C 
BRANCH  20  21
ATOM     21  N   UNL     1      -5.143   1.344   1.069  0.00  0.00    -0.313 N 
ATOM     22  C   UNL     1      -4.318   1.035   0.049  0.00  0.00    +0.219 C 
ATOM     23  O   UNL     1      -4.714   0.337  -0.861  0.00  0.00    -0.275 OA
ATOM     24  H   UNL     1      -4.826   1.902   1.797  0.00  0.00    +0.149 HD
BRANCH  22  25
ATOM     25  C   UNL     1      -2.904   1.556   0.038  0.00  0.00    +0.048 C 
ATOM     26  C   UNL     1      -2.188   1.063  -1.221  0.00  0.00    +0.019 C 
ATOM     27  C   UNL     1      -0.753   1.593  -1.232  0.00  0.00    -0.009 C 
ATOM     28  C   UNL     1      -0.013   1.086   0.008  0.00  0.00    +0.007 C 
ATOM     29  C   UNL     1      -0.729   1.579   1.267  0.00  0.00    -0.009 C 
ATOM     30  C   UNL     1      -2.164   1.050   1.278  0.00  0.00    +0.019 C 
ATOM     31  C   UNL     1      -0.750   3.109   1.275  0.00  0.00    +0.007 C 
ATOM     32  C   UNL     1      -1.490   3.616   0.036  0.00  0.00    -0.009 C 
ATOM     33  C   UNL     1      -0.773   3.123  -1.223  0.00  0.00    +0.007 C 
ATOM     34  C   UNL     1      -2.925   3.086   0.047  0.00  0.00    +0.019 C 
ENDBRANCH  22  25
ENDBRANCH  20  21
ENDBRANCH  19  20
ENDBRANCH  10  19
TORSDOF 6
