REMARK  Name = ZINC23296871
REMARK  8 active torsions:
REMARK  status: ('A' for Active; 'I' for Inactive)
REMARK    1  A    between atoms: C_1  and  C_2
REMARK    2  A    between atoms: C_5  and  N_8
REMARK    3  A    between atoms: C_9  and  C_30
REMARK    4  A    between atoms: C_10  and  N_14
REMARK    5  A    between atoms: C_11  and  C_13
REMARK    6  A    between atoms: C_15  and  C_17
REMARK    7  A    between atoms: C_17  and  N_18
REMARK    8  A    between atoms: C_20  and  C_26
REMARK                            x       y       z     vdW  Elec       q    Type
REMARK                         _______ _______ _______ _____ _____    ______ ____
ROOT
ATOM      1  N   UNL     1       3.331   0.444  -0.553  0.00  0.00    -0.281 N 
ATOM      2  C   UNL     1       4.152   1.509  -0.467  0.00  0.00    +0.237 C 
ATOM      3  O   UNL     1       3.732   2.566  -0.047  0.00  0.00    -0.274 OA
ATOM      4  H   UNL     1       3.707  -0.510  -0.953  0.00  0.00    +0.155 HD
ENDROOT
BRANCH   1   7
ATOM      5  N   UNL     1       0.104   0.218   0.932  0.00  0.00    -0.235 N 
ATOM      6  C   UNL     1       1.395  -0.200   0.830  0.00  0.00    +0.063 A 
ATOM      7  C   UNL     1       1.993   0.551  -0.131  0.00  0.00    +0.078 A 
ATOM      8  C   UNL     1       1.039   1.452  -0.628  0.00  0.00    +0.082 A 
ATOM      9  N   UNL     1      -0.087   1.252   0.007  0.00  0.00    -0.170 NA
ATOM     10  C   UNL     1       1.273   2.475  -1.710  0.00  0.00    +0.069 C 
ATOM     11  C   UNL     1       2.043  -1.296   1.635  0.00  0.00    +0.068 C 
BRANCH   5  16
ATOM     12  C   UNL     1      -3.811  -1.861   4.477  0.00  0.00    +0.044 C 
ATOM     13  C   UNL     1      -2.771  -1.308   3.536  0.00  0.00    -0.050 A 
ATOM     14  C   UNL     1      -2.767   0.039   3.225  0.00  0.00    +0.005 A 
ATOM     15  C   UNL     1      -1.816   0.548   2.363  0.00  0.00    +0.028 A 
ATOM     16  C   UNL     1      -0.863  -0.295   1.807  0.00  0.00    +0.066 A 
ATOM     17  C   UNL     1      -0.873  -1.649   2.117  0.00  0.00    +0.028 A 
ATOM     18  C   UNL     1      -1.823  -2.151   2.984  0.00  0.00    +0.005 A 
ENDBRANCH   5  16
ENDBRANCH   1   7
BRANCH   2  19
ATOM     19  C   UNL     1       5.593   1.386  -0.892  0.00  0.00    +0.220 C 
BRANCH  19  20
ATOM     20  N   UNL     1       6.269   2.672  -0.703  0.00  0.00    -0.305 N 
ATOM     21  C   UNL     1       6.876   2.944   0.481  0.00  0.00    +0.102 A 
ATOM     22  C   UNL     1       7.507   4.124   0.679  0.00  0.00    +0.073 A 
ATOM     23  C   UNL     1       7.539   5.082  -0.345  0.00  0.00    +0.039 A 
ATOM     24  C   UNL     1       6.929   4.808  -1.534  0.00  0.00    +0.106 A 
ATOM     25  C   UNL     1       6.287   3.568  -1.708  0.00  0.00    +0.270 A 
ATOM     26  O   UNL     1       5.740   3.308  -2.768  0.00  0.00    -0.266 OA
ATOM     27 CL   UNL     1       6.952   5.972  -2.821  0.00  0.00    -0.078 Cl
BRANCH  22  28
ATOM     28  C   UNL     1       8.175   4.409   2.000  0.00  0.00    +0.419 C 
ATOM     29  F   UNL     1       9.532   4.079   1.917  0.00  0.00    -0.166 F 
ATOM     30  F   UNL     1       8.044   5.768   2.305  0.00  0.00    -0.166 F 
ATOM     31  F   UNL     1       7.569   3.645   3.003  0.00  0.00    -0.166 F 
ENDBRANCH  22  28
ENDBRANCH  19  20
ENDBRANCH   2  19
TORSDOF 5
