REMARK  Name = ZINC66870175
REMARK  6 active torsions:
REMARK  status: ('A' for Active; 'I' for Inactive)
REMARK    1  A    between atoms: C_1  and  C_2
REMARK    2  A    between atoms: C_5  and  S_7
REMARK    3  A    between atoms: S_7  and  N_10
REMARK    4  A    between atoms: N_10  and  C_11
REMARK    5  A    between atoms: C_14  and  O_17
REMARK    6  A    between atoms: C_18  and  C_20
REMARK                            x       y       z     vdW  Elec       q    Type
REMARK                         _______ _______ _______ _____ _____    ______ ____
ROOT
ATOM      1  N   UNL     1       1.375  -4.749  -1.444  0.00  0.00    -0.135 N 
ATOM      2  C   UNL     1       0.350  -4.925  -2.302  0.00  0.00    +0.263 C 
ATOM      3  O   UNL     1       0.510  -4.717  -3.490  0.00  0.00    -0.269 OA
ENDROOT
BRANCH   2   4
ATOM      4  C   UNL     1      -0.960  -5.367  -1.803  0.00  0.00    +0.068 C 
ATOM      5  C   UNL     1      -1.929  -5.677  -2.660  0.00  0.00    -0.065 C 
ATOM      6  C   UNL     1      -1.625  -5.904  -4.125  0.00  0.00    +0.031 C 
ATOM      7  C   UNL     1      -2.234  -7.245  -4.547  0.00  0.00    +0.004 C 
ATOM      8  C   UNL     1      -3.725  -7.256  -4.203  0.00  0.00    +0.001 C 
ATOM      9  C   UNL     1      -3.908  -7.157  -2.687  0.00  0.00    +0.004 C 
ATOM     10  C   UNL     1      -3.361  -5.819  -2.194  0.00  0.00    +0.031 C 
ENDBRANCH   2   4
BRANCH   1  11
ATOM     11  C   UNL     1       2.588  -4.220  -1.901  0.00  0.00    +0.060 A 
ATOM     12  C   UNL     1       3.392  -3.483  -1.041  0.00  0.00    +0.029 A 
ATOM     13  C   UNL     1       4.588  -2.961  -1.492  0.00  0.00    +0.047 A 
ATOM     14  C   UNL     1       4.987  -3.173  -2.804  0.00  0.00    +0.117 A 
ATOM     15  C   UNL     1       4.184  -3.908  -3.663  0.00  0.00    +0.047 A 
ATOM     16  C   UNL     1       2.991  -4.436  -3.212  0.00  0.00    +0.029 A 
BRANCH  14  17
ATOM     17  O   UNL     1       6.165  -2.659  -3.247  0.00  0.00    -0.507 OA
ATOM     18  H   UNL     1       6.921  -3.250  -3.130  0.00  0.00    +0.292 HD
ENDBRANCH  14  17
ENDBRANCH   1  11
BRANCH   1  19
ATOM     19  S   UNL     1       1.199  -5.160   0.150  0.00  0.00    +0.088 S 
ATOM     20  O   UNL     1       2.504  -5.181   0.711  0.00  0.00    -0.149 OA
ATOM     21  O   UNL     1       0.336  -6.289   0.186  0.00  0.00    -0.149 OA
BRANCH  19  26
ATOM     22  C   UNL     1      -0.804  -0.353   2.958  0.00  0.00    +0.051 C 
ATOM     23  C   UNL     1      -0.559  -1.643   2.219  0.00  0.00    -0.011 A 
ATOM     24  C   UNL     1      -1.459  -2.543   1.752  0.00  0.00    +0.013 A 
ATOM     25  C   UNL     1      -1.001  -3.670   1.095  0.00  0.00    +0.037 A 
ATOM     26  C   UNL     1       0.335  -3.841   0.936  0.00  0.00    +0.147 A 
ATOM     27  S   UNL     1       0.990  -2.379   1.724  0.00  0.00    -0.073 S 
ENDBRANCH  19  26
ENDBRANCH   1  19
TORSDOF 5
