REMARK  Name = ZINC12895733
REMARK  8 active torsions:
REMARK  status: ('A' for Active; 'I' for Inactive)
REMARK    1  A    between atoms: C_1  and  C_2
REMARK    2  A    between atoms: C_9  and  O_20
REMARK    3  A    between atoms: C_12  and  C_14
REMARK    4  A    between atoms: C_23  and  O_40
REMARK    5  A    between atoms: C_24  and  C_31
REMARK    6  A    between atoms: C_27  and  O_30
REMARK    7  A    between atoms: N_32  and  N_33
REMARK    8  A    between atoms: N_33  and  C_34
REMARK                            x       y       z     vdW  Elec       q    Type
REMARK                         _______ _______ _______ _____ _____    ______ ____
ROOT
ATOM      1  C   UNL     1       5.993   9.225  -4.443  0.00  0.00    +0.014 C 
ATOM      2  C   UNL     1       4.671   9.349  -3.633  0.00  0.00    +0.004 C 
ATOM      3  C   UNL     1       5.095   9.640  -2.218  0.00  0.00    +0.010 C 
ATOM      4  C   UNL     1       4.036   9.301  -1.174  0.00  0.00    +0.005 C 
ATOM      5  C   UNL     1       3.682   7.821  -1.323  0.00  0.00    +0.009 C 
ATOM      6  C   UNL     1       3.022   7.613  -2.682  0.00  0.00    +0.025 C 
ATOM      7  C   UNL     1       3.935   8.019  -3.829  0.00  0.00    +0.075 C 
ATOM      8  C   UNL     1       3.049   8.259  -5.084  0.00  0.00    +0.036 C 
ATOM      9  C   UNL     1       2.676   9.752  -5.019  0.00  0.00    +0.011 C 
ATOM     10  C   UNL     1       3.864  10.446  -4.322  0.00  0.00    +0.027 C 
ATOM     11  C   UNL     1       1.671   8.316  -2.730  0.00  0.00    +0.009 C 
ATOM     12  C   UNL     1       0.763   7.718  -1.645  0.00  0.00    +0.036 C 
ATOM     13  C   UNL     1       1.391   7.967  -0.277  0.00  0.00    +0.079 C 
ATOM     14  C   UNL     1       2.780   7.345  -0.189  0.00  0.00    +0.039 C 
ATOM     15  C   UNL     1       3.395   7.723   1.164  0.00  0.00    +0.018 C 
ATOM     16  C   UNL     1       2.521   7.213   2.307  0.00  0.00    +0.032 C 
ATOM     17  C   UNL     1       1.096   7.749   2.190  0.00  0.00    +0.117 C 
ATOM     18  C   UNL     1       0.495   7.400   0.828  0.00  0.00    +0.067 C 
ENDROOT
BRANCH  10  19
ATOM     19  C   UNL     1       3.375  11.521  -3.386  0.00  0.00    -0.022 C 
ATOM     20  C   UNL     1       2.139  11.656  -2.910  0.00  0.00    +0.094 C 
ATOM     21  C   UNL     1       2.078  12.827  -2.032  0.00  0.00    +0.332 C 
ATOM     22  O   UNL     1       1.084  13.207  -1.444  0.00  0.00    -0.246 OA
ATOM     23  O   UNL     1       3.284  13.422  -1.975  0.00  0.00    -0.457 OA
ATOM     24  C   UNL     1       4.192  12.657  -2.815  0.00  0.00    +0.264 C 
ENDBRANCH  10  19
BRANCH   7  25
ATOM     25  O   UNL     1       4.889   6.962  -4.092  0.00  0.00    -0.388 OA
ATOM     26  H   UNL     1       4.485   6.116  -4.327  0.00  0.00    +0.210 HD
ENDBRANCH   7  25
BRANCH  17  27
ATOM     27  O   UNL     1       0.287   7.175   3.222  0.00  0.00    -0.392 OA
ATOM     28  H   UNL     1       0.606   7.354   4.117  0.00  0.00    +0.210 HD
ENDBRANCH  17  27
BRANCH  14  29
ATOM     29  C   UNL     1       2.688   5.837  -0.262  0.00  0.00    +0.113 C 
ATOM     30  N   UNL     1       1.546   5.270  -0.382  0.00  0.00    -0.194 NA
BRANCH  30  31
ATOM     31  N   UNL     1       1.461   3.873  -0.450  0.00  0.00    -0.238 N 
ATOM     32  H   UNL     1       2.267   3.336  -0.406  0.00  0.00    +0.174 HD
BRANCH  31  33
ATOM     33  C   UNL     1       0.216   3.256  -0.580  0.00  0.00    +0.048 A 
ATOM     34  C   UNL     1       0.130   1.870  -0.648  0.00  0.00    +0.025 A 
ATOM     35  C   UNL     1      -1.103   1.263  -0.777  0.00  0.00    +0.002 A 
ATOM     36  C   UNL     1      -2.251   2.031  -0.845  0.00  0.00    +0.000 A 
ATOM     37  C   UNL     1      -2.170   3.410  -0.773  0.00  0.00    +0.002 A 
ATOM     38  C   UNL     1      -0.940   4.024  -0.643  0.00  0.00    +0.025 A 
ENDBRANCH  31  33
ENDBRANCH  30  31
ENDBRANCH  14  29
BRANCH  13  39
ATOM     39  O   UNL     1       1.485   9.385  -0.067  0.00  0.00    -0.388 OA
ATOM     40  H   UNL     1       0.636   9.846  -0.110  0.00  0.00    +0.210 HD
ENDBRANCH  13  39
TORSDOF 7
