REMARK  Name = ZINC35861964
REMARK  8 active torsions:
REMARK  status: ('A' for Active; 'I' for Inactive)
REMARK    1  A    between atoms: C_4  and  C_7
REMARK    2  A    between atoms: C_11  and  O_25
REMARK    3  A    between atoms: C_18  and  C_20
REMARK    4  A    between atoms: O_25  and  C_26
REMARK    5  A    between atoms: C_26  and  C_27
REMARK    6  A    between atoms: C_30  and  C_32
REMARK    7  A    between atoms: N_34  and  C_35
REMARK    8  A    between atoms: C_35  and  C_36
REMARK                            x       y       z     vdW  Elec       q    Type
REMARK                         _______ _______ _______ _____ _____    ______ ____
ROOT
ATOM      1  C   UNL     1       3.605  -0.659  -0.092  0.00  0.00    +0.137 C 
ATOM      2  C   UNL     1       3.965  -0.961   1.341  0.00  0.00    -0.016 A 
ATOM      3  C   UNL     1       4.314   0.105   2.158  0.00  0.00    +0.051 A 
ATOM      4  C   UNL     1       4.644  -0.106   3.486  0.00  0.00    +0.121 A 
ATOM      5  C   UNL     1       4.624  -1.395   4.000  0.00  0.00    +0.046 A 
ATOM      6  C   UNL     1       4.281  -2.452   3.184  0.00  0.00    +0.007 A 
ATOM      7  C   UNL     1       3.955  -2.240   1.849  0.00  0.00    -0.040 A 
ATOM      8  C   UNL     1       3.617  -3.448   1.015  0.00  0.00    +0.054 C 
ATOM      9  C   UNL     1       2.837  -3.045  -0.235  0.00  0.00    +0.113 C 
ATOM     10  N   UNL     1       3.535  -1.909  -0.857  0.00  0.00    -0.286 N 
ATOM     11  C   UNL     1       4.088  -2.013  -2.082  0.00  0.00    +0.254 C 
ATOM     12  O   UNL     1       3.921  -3.022  -2.741  0.00  0.00    -0.269 OA
ENDROOT
BRANCH   1  16
ATOM     13  C   UNL     1      -0.189   1.302  -0.220  0.00  0.00    +0.000 A 
ATOM     14  C   UNL     1      -0.061   0.084   0.421  0.00  0.00    +0.000 A 
ATOM     15  C   UNL     1       1.166  -0.551   0.463  0.00  0.00    +0.006 A 
ATOM     16  C   UNL     1       2.266   0.032  -0.138  0.00  0.00    -0.023 A 
ATOM     17  C   UNL     1       2.139   1.250  -0.780  0.00  0.00    +0.006 A 
ATOM     18  C   UNL     1       0.912   1.885  -0.820  0.00  0.00    +0.000 A 
ENDBRANCH   1  16
BRANCH  11  19
ATOM     19  C   UNL     1       4.889  -0.910  -2.620  0.00  0.00    +0.074 A 
ATOM     20  C   UNL     1       5.416  -0.752  -3.893  0.00  0.00    +0.021 A 
ATOM     21  C   UNL     1       6.133   0.401  -4.104  0.00  0.00    +0.008 A 
ATOM     22  C   UNL     1       6.276   1.284  -3.085  0.00  0.00    +0.046 A 
ATOM     23  S   UNL     1       5.435   0.582  -1.811  0.00  0.00    -0.092 S 
ENDBRANCH  11  19
BRANCH   4  24
ATOM     24  O   UNL     1       4.987   0.941   4.280  0.00  0.00    -0.484 OA
BRANCH  24  25
ATOM     25  C   UNL     1       5.316   0.645   5.639  0.00  0.00    +0.303 C 
BRANCH  25  26
ATOM     26  C   UNL     1       5.667   1.920   6.361  0.00  0.00    +0.143 A 
ATOM     27  C   UNL     1       4.798   2.713   7.025  0.00  0.00    +0.049 A 
ATOM     28  C   UNL     1       5.535   3.788   7.547  0.00  0.00    +0.055 A 
ATOM     29  C   UNL     1       6.832   3.594   7.170  0.00  0.00    +0.190 A 
ATOM     30  O   UNL     1       6.893   2.451   6.454  0.00  0.00    -0.452 OA
BRANCH  29  31
ATOM     31  C   UNL     1       7.963   4.471   7.490  0.00  0.00    +0.279 C 
ATOM     32  O   UNL     1       7.785   5.478   8.150  0.00  0.00    -0.267 OA
ATOM     33  N   UNL     1       9.200   4.162   7.053  0.00  0.00    -0.309 N 
ATOM     34  H   UNL     1       9.343   3.359   6.527  0.00  0.00    +0.149 HD
BRANCH  33  35
ATOM     35  C   UNL     1      10.330   5.038   7.373  0.00  0.00    +0.108 C 
BRANCH  35  36
ATOM     36  C   UNL     1      11.610   4.463   6.763  0.00  0.00    +0.006 C 
ATOM     37  C   UNL     1      12.718   4.028   7.724  0.00  0.00    +0.005 C 
ATOM     38  C   UNL     1      12.887   5.296   6.885  0.00  0.00    +0.005 C 
ENDBRANCH  35  36
ENDBRANCH  33  35
ENDBRANCH  29  31
ENDBRANCH  25  26
ENDBRANCH  24  25
ENDBRANCH   4  24
TORSDOF 8
