REMARK  Name = ZINC36642828
REMARK  13 active torsions:
REMARK  status: ('A' for Active; 'I' for Inactive)
REMARK    1  A    between atoms: C_1  and  C_2
REMARK    2  A    between atoms: C_2  and  N_3
REMARK    3  A    between atoms: N_3  and  C_4
REMARK    4  A    between atoms: N_3  and  C_6
REMARK    5  A    between atoms: C_4  and  C_5
REMARK    6  A    between atoms: C_6  and  C_7
REMARK    7  A    between atoms: C_7  and  N_8
REMARK    8  A    between atoms: C_12  and  O_20
REMARK    9  A    between atoms: C_15  and  O_18
REMARK   10  A    between atoms: O_18  and  C_19
REMARK   11  A    between atoms: O_20  and  C_21
REMARK   12  A    between atoms: C_22  and  C_24
REMARK   13  A    between atoms: C_26  and  C_36
REMARK                            x       y       z     vdW  Elec       q    Type
REMARK                         _______ _______ _______ _____ _____    ______ ____
ROOT
ATOM      1  N   UNL     1       0.998  -2.998   2.866  0.00  0.00    -0.249 N 
ATOM      2  C   UNL     1       1.744  -3.542   1.831  0.00  0.00    +0.168 A 
ATOM      3  N   UNL     1       2.673  -2.975   1.100  0.00  0.00    -0.221 NA
ATOM      4  C   UNL     1       3.325  -3.633   0.115  0.00  0.00    +0.125 A 
ATOM      5  C   UNL     1       4.342  -3.140  -0.743  0.00  0.00    +0.147 A 
ATOM      6  C   UNL     1       4.905  -3.948  -1.701  0.00  0.00    +0.051 A 
ATOM      7  C   UNL     1       4.503  -5.267  -1.864  0.00  0.00    +0.050 A 
ATOM      8  C   UNL     1       3.512  -5.781  -1.043  0.00  0.00    +0.136 A 
ATOM      9  C   UNL     1       2.942  -4.977  -0.080  0.00  0.00    +0.086 A 
ATOM     10  S   UNL     1       1.689  -5.198   1.160  0.00  0.00    -0.048 S 
ATOM     11  C   UNL     1       0.205  -3.790   3.615  0.00  0.00    +0.266 C 
ATOM     12  O   UNL     1      -0.542  -3.299   4.434  0.00  0.00    -0.271 OA
ENDROOT
BRANCH  11  13
ATOM     13  C   UNL     1       0.249  -5.286   3.434  0.00  0.00    +0.299 C 
ATOM     14  C   UNL     1       1.427  -5.868   4.227  0.00  0.00    +0.220 C 
ATOM     15  O   UNL     1       1.240  -5.547   5.609  0.00  0.00    -0.481 OA
ATOM     16  C   UNL     1      -0.002  -5.760   6.124  0.00  0.00    +0.163 A 
ATOM     17  C   UNL     1      -0.168  -5.822   7.500  0.00  0.00    +0.049 A 
ATOM     18  C   UNL     1      -1.423  -6.034   8.037  0.00  0.00    +0.004 A 
ATOM     19  C   UNL     1      -2.517  -6.184   7.205  0.00  0.00    +0.004 A 
ATOM     20  C   UNL     1      -2.359  -6.125   5.834  0.00  0.00    +0.049 A 
ATOM     21  C   UNL     1      -1.101  -5.915   5.288  0.00  0.00    +0.163 A 
ATOM     22  O   UNL     1      -0.960  -5.867   3.934  0.00  0.00    -0.472 OA
ATOM     23  C   UNL     1       2.737  -5.257   3.727  0.00  0.00    +0.056 C 
ENDBRANCH  11  13
BRANCH   8  24
ATOM     24  O   UNL     1       3.104  -7.070  -1.187  0.00  0.00    -0.494 OA
ATOM     25  C   UNL     1       3.740  -7.842  -2.208  0.00  0.00    +0.277 C 
ENDBRANCH   8  24
BRANCH   5  26
ATOM     26  O   UNL     1       4.763  -1.853  -0.616  0.00  0.00    -0.493 OA
ATOM     27  C   UNL     1       5.790  -1.416  -1.508  0.00  0.00    +0.277 C 
ENDBRANCH   5  26
BRANCH   1  28
ATOM     28  C   UNL     1       1.071  -1.562   3.144  0.00  0.00    +0.097 C 
BRANCH  28  29
ATOM     29  C   UNL     1      -0.063  -0.841   2.413  0.00  0.00    -0.059 C 
BRANCH  29  30
ATOM     30  N   UNL     1      -0.069   0.577   2.794  0.00  0.00    +0.380 N 
ATOM     31  H   UNL     1      -0.122   0.655   3.798  0.00  0.00    -0.082 HD
BRANCH  30  33
ATOM     32  C   UNL     1       1.217   2.661   2.820  0.00  0.00    -0.017 C 
ATOM     33  C   UNL     1       1.164   1.217   2.317  0.00  0.00    -0.082 C 
ENDBRANCH  30  33
BRANCH  30  34
ATOM     34  C   UNL     1      -1.231   1.242   2.189  0.00  0.00    -0.082 C 
ATOM     35  C   UNL     1      -2.515   0.698   2.819  0.00  0.00    -0.017 C 
ENDBRANCH  30  34
ENDBRANCH  29  30
ENDBRANCH  28  29
ENDBRANCH   1  28
TORSDOF 8
