REMARK  Name = ZINC42040411
REMARK  5 active torsions:
REMARK  status: ('A' for Active; 'I' for Inactive)
REMARK    1  A    between atoms: C_3  and  C_11
REMARK    2  A    between atoms: N_13  and  C_14
REMARK    3  A    between atoms: C_14  and  C_15
REMARK    4  A    between atoms: C_15  and  C_16
REMARK    5  A    between atoms: C_16  and  N_17
REMARK                            x       y       z     vdW  Elec       q    Type
REMARK                         _______ _______ _______ _____ _____    ______ ____
ROOT
ATOM      1  C   UNL     1       4.854   4.335  -0.022  0.00  0.00    +0.106 C 
ENDROOT
BRANCH   1   4
ATOM      2  C   UNL     1       3.645   2.219  -0.021  0.00  0.00    +0.245 C 
ATOM      3  O   UNL     1       4.715   1.641  -0.035  0.00  0.00    -0.270 OA
ATOM      4  N   UNL     1       3.607   3.566  -0.014  0.00  0.00    -0.311 N 
ATOM      5  H   UNL     1       2.753   4.027  -0.004  0.00  0.00    +0.149 HD
BRANCH   2   8
ATOM      6  C   UNL     1      -0.017   1.374   0.010  0.00  0.00    +0.003 A 
ATOM      7  C   UNL     1       1.164   2.099   0.002  0.00  0.00    +0.014 A 
ATOM      8  C   UNL     1       2.390   1.445  -0.013  0.00  0.00    +0.047 A 
ATOM      9  C   UNL     1       2.423   0.032  -0.021  0.00  0.00    +0.032 A 
ATOM     10  C   UNL     1       3.469  -0.916  -0.037  0.00  0.00    +0.143 A 
ATOM     11  N   UNL     1       2.949  -2.111  -0.038  0.00  0.00    -0.181 NA
ATOM     12  N   UNL     1       1.552  -2.018  -0.024  0.00  0.00    -0.277 N 
ATOM     13  H   UNL     1       0.931  -2.763  -0.022  0.00  0.00    +0.189 HD
ATOM     14  C   UNL     1       1.215  -0.688  -0.013  0.00  0.00    +0.066 A 
ATOM     15  C   UNL     1       0.002  -0.004   0.002  0.00  0.00    +0.028 A 
ENDBRANCH   2   8
ENDBRANCH   1   4
BRANCH   1  16
ATOM     16  C   UNL     1       4.532   5.830  -0.012  0.00  0.00    +0.038 C 
BRANCH  16  17
ATOM     17  C   UNL     1       5.834   6.633  -0.021  0.00  0.00    +0.119 C 
BRANCH  17  18
ATOM     18  N   UNL     1       5.525   8.065  -0.010  0.00  0.00    -0.224 N 
ATOM     19  C   UNL     1       5.349   8.812  -1.122  0.00  0.00    +0.246 C 
ATOM     20  O   UNL     1       5.413   8.441  -2.274  0.00  0.00    -0.273 OA
ATOM     21  C   UNL     1       5.055  10.204  -0.623  0.00  0.00    +0.113 C 
ATOM     22  C   UNL     1       3.676  10.680  -1.100  0.00  0.00    +0.035 C 
ATOM     23  C   UNL     1       3.868  12.200  -1.343  0.00  0.00    +0.003 C 
ATOM     24  C   UNL     1       5.302  12.277  -1.925  0.00  0.00    +0.003 C 
ATOM     25  C   UNL     1       6.090  11.208  -1.136  0.00  0.00    +0.035 C 
ATOM     26  N   UNL     1       5.099  10.088   0.836  0.00  0.00    -0.285 N 
ATOM     27  C   UNL     1       5.377   8.795   1.103  0.00  0.00    +0.309 C 
ATOM     28  O   UNL     1       5.484   8.345   2.226  0.00  0.00    -0.252 OA
ATOM     29  H   UNL     1       4.955  10.797   1.481  0.00  0.00    +0.151 HD
ENDBRANCH  17  18
ENDBRANCH  16  17
ENDBRANCH   1  16
TORSDOF 5
