REMARK  Name = ZINC35592232
REMARK  15 active torsions:
REMARK  status: ('A' for Active; 'I' for Inactive)
REMARK    1  A    between atoms: C_1  and  C_2
REMARK    2  A    between atoms: C_2  and  C_3
REMARK    3  A    between atoms: C_2  and  N_4
REMARK    4  A    between atoms: N_7  and  C_8
REMARK    5  A    between atoms: N_7  and  C_13
REMARK    6  A    between atoms: C_8  and  C_9
REMARK    7  A    between atoms: C_9  and  N_10
REMARK    8  A    between atoms: N_10  and  C_11
REMARK    9  A    between atoms: N_10  and  C_12
REMARK   10  A    between atoms: C_13  and  C_14
REMARK   11  A    between atoms: C_19  and  O_20
REMARK   12  A    between atoms: O_20  and  S_21
REMARK   13  A    between atoms: S_21  and  C_24
REMARK   14  A    between atoms: C_27  and  N_30
REMARK   15  A    between atoms: C_31  and  C_33
REMARK                            x       y       z     vdW  Elec       q    Type
REMARK                         _______ _______ _______ _____ _____    ______ ____
ROOT
ATOM      1  C   UNL     1      -4.756  -0.347  -0.630  0.00  0.00    +0.016 A 
ATOM      2  C   UNL     1      -4.481   1.006  -0.580  0.00  0.00    +0.029 A 
ATOM      3  C   UNL     1      -5.039   1.861  -1.513  0.00  0.00    +0.042 A 
ATOM      4  C   UNL     1      -5.874   1.363  -2.498  0.00  0.00    +0.023 A 
ATOM      5  C   UNL     1      -6.151   0.011  -2.551  0.00  0.00    +0.050 A 
ATOM      6  C   UNL     1      -5.588  -0.849  -1.620  0.00  0.00    +0.162 A 
ATOM      7 CL   UNL     1      -4.692   3.561  -1.448  0.00  0.00    -0.084 Cl
ENDROOT
BRANCH   1   8
ATOM      8  C   UNL     1      -4.147  -1.279   0.387  0.00  0.00    +0.148 C 
BRANCH   8  12
ATOM      9  N   UNL     1      -1.607  -0.223   0.557  0.00  0.00    -0.297 N 
ATOM     10  C   UNL     1      -1.761  -1.395  -0.091  0.00  0.00    +0.303 C 
ATOM     11  O   UNL     1      -0.796  -1.952  -0.577  0.00  0.00    -0.253 OA
ATOM     12  N   UNL     1      -2.985  -1.950  -0.199  0.00  0.00    -0.283 N 
ATOM     13  H   UNL     1      -2.377   0.221   0.946  0.00  0.00    +0.150 HD
BRANCH   9  15
ATOM     14  C   UNL     1      -0.417   1.892   0.859  0.00  0.00    +0.027 C 
ATOM     15  C   UNL     1      -0.277   0.379   0.676  0.00  0.00    +0.068 C 
ATOM     16  C   UNL     1       0.447  -0.216   1.885  0.00  0.00    +0.027 C 
ENDBRANCH   9  15
BRANCH  12  17
ATOM     17  C   UNL     1      -3.152  -3.223  -0.904  0.00  0.00    +0.091 C 
BRANCH  17  18
ATOM     18  C   UNL     1      -2.997  -4.378   0.087  0.00  0.00    -0.060 C 
BRANCH  18  19
ATOM     19  N   UNL     1      -3.165  -5.655  -0.619  0.00  0.00    +0.377 N 
ATOM     20  C   UNL     1      -2.074  -5.826  -1.588  0.00  0.00    -0.097 C 
ATOM     21  C   UNL     1      -3.136  -6.759   0.350  0.00  0.00    -0.097 C 
ATOM     22  H   UNL     1      -4.049  -5.657  -1.105  0.00  0.00    -0.083 HD
ENDBRANCH  18  19
ENDBRANCH  17  18
ENDBRANCH  12  17
ENDBRANCH   8  12
ENDBRANCH   1   8
BRANCH   6  23
ATOM     23  O   UNL     1      -5.855  -2.180  -1.674  0.00  0.00    -0.342 OA
BRANCH  23  24
ATOM     24  S   UNL     1      -7.077  -2.600  -0.869  0.00  0.00    +0.151 S 
ATOM     25  O   UNL     1      -7.090  -4.021  -0.862  0.00  0.00    -0.131 OA
ATOM     26  O   UNL     1      -7.058  -1.832   0.327  0.00  0.00    -0.131 OA
BRANCH  24  27
ATOM     27  C   UNL     1      -8.499  -2.088  -1.775  0.00  0.00    +0.128 A 
ATOM     28  C   UNL     1      -9.037  -0.832  -1.561  0.00  0.00    +0.032 A 
ATOM     29  C   UNL     1     -10.151  -0.427  -2.270  0.00  0.00    +0.025 A 
ATOM     30  C   UNL     1     -10.731  -1.283  -3.197  0.00  0.00    +0.033 A 
ATOM     31  C   UNL     1     -10.188  -2.544  -3.409  0.00  0.00    +0.025 A 
ATOM     32  C   UNL     1      -9.071  -2.940  -2.701  0.00  0.00    +0.032 A 
BRANCH  30  33
ATOM     33  N   UNL     1     -11.861  -0.877  -3.916  0.00  0.00    -0.286 N 
ATOM     34  C   UNL     1     -12.012   0.418  -4.258  0.00  0.00    +0.214 C 
ATOM     35  O   UNL     1     -11.126   1.214  -4.027  0.00  0.00    -0.276 OA
ATOM     36  C   UNL     1     -13.282   0.878  -4.926  0.00  0.00    +0.109 C 
ATOM     37  H   UNL     1     -12.535  -1.527  -4.168  0.00  0.00    +0.155 HD
ENDBRANCH  30  33
ENDBRANCH  24  27
ENDBRANCH  23  24
ENDBRANCH   6  23
TORSDOF 10
