REMARK  Name = ZINC13898083
REMARK  10 active torsions:
REMARK  status: ('A' for Active; 'I' for Inactive)
REMARK    1  A    between atoms: C_1  and  C_2
REMARK    2  A    between atoms: C_5  and  C_8
REMARK    3  A    between atoms: C_11  and  S_19
REMARK    4  A    between atoms: N_12  and  C_13
REMARK    5  A    between atoms: S_19  and  C_20
REMARK    6  A    between atoms: C_20  and  C_21
REMARK    7  A    between atoms: N_23  and  N_24
REMARK    8  A    between atoms: C_25  and  C_26
REMARK    9  A    between atoms: C_25  and  C_27
REMARK   10  A    between atoms: C_30  and  N_33
REMARK                            x       y       z     vdW  Elec       q    Type
REMARK                         _______ _______ _______ _____ _____    ______ ____
ROOT
ATOM      1  C   UNL     1      -2.501   0.983  -0.131  0.00  0.00    +0.169 A 
ATOM      2  N   UNL     1      -2.643  -0.299   0.109  0.00  0.00    -0.128 NA
ATOM      3  N   UNL     1      -3.890  -0.589   0.227  0.00  0.00    -0.122 NA
ATOM      4  C   UNL     1      -4.622   0.491   0.070  0.00  0.00    +0.197 A 
ATOM      5  N   UNL     1      -3.764   1.532  -0.158  0.00  0.00    -0.270 N 
ENDROOT
BRANCH   1  10
ATOM      6  C   UNL     1       2.463   3.792  -0.892  0.00  0.00    +0.044 C 
ATOM      7  C   UNL     1       1.164   3.055  -0.695  0.00  0.00    -0.050 A 
ATOM      8  C   UNL     1      -0.024   3.632  -1.109  0.00  0.00    +0.004 A 
ATOM      9  C   UNL     1      -1.218   2.963  -0.932  0.00  0.00    +0.012 A 
ATOM     10  C   UNL     1      -1.225   1.704  -0.329  0.00  0.00    +0.020 A 
ATOM     11  C   UNL     1      -0.023   1.126   0.082  0.00  0.00    +0.012 A 
ATOM     12  C   UNL     1       1.163   1.806  -0.101  0.00  0.00    +0.004 A 
ENDBRANCH   1  10
BRANCH   5  13
ATOM     13  C   UNL     1      -4.100   2.875  -0.377  0.00  0.00    +0.051 A 
ATOM     14  C   UNL     1      -3.775   3.837   0.571  0.00  0.00    +0.026 A 
ATOM     15  C   UNL     1      -4.102   5.160   0.350  0.00  0.00    +0.002 A 
ATOM     16  C   UNL     1      -4.764   5.527  -0.808  0.00  0.00    +0.000 A 
ATOM     17  C   UNL     1      -5.094   4.571  -1.751  0.00  0.00    +0.002 A 
ATOM     18  C   UNL     1      -4.764   3.246  -1.538  0.00  0.00    +0.026 A 
ENDBRANCH   5  13
BRANCH   4  19
ATOM     19  S   UNL     1      -6.380   0.583   0.147  0.00  0.00    -0.076 S 
BRANCH  19  20
ATOM     20  C   UNL     1      -6.771  -1.152   0.482  0.00  0.00    +0.174 C 
BRANCH  20  21
ATOM     21  C   UNL     1      -8.265  -1.319   0.592  0.00  0.00    +0.242 C 
ATOM     22  O   UNL     1      -8.993  -0.358   0.456  0.00  0.00    -0.273 OA
ATOM     23  N   UNL     1      -8.791  -2.534   0.840  0.00  0.00    -0.206 N 
ATOM     24  H   UNL     1      -8.208  -3.302   0.948  0.00  0.00    +0.177 HD
BRANCH  23  25
ATOM     25  N   UNL     1     -10.180  -2.689   0.942  0.00  0.00    -0.185 NA
ATOM     26  C   UNL     1     -10.686  -3.859   1.181  0.00  0.00    +0.063 C 
ATOM     27  C   UNL     1      -9.781  -5.052   1.349  0.00  0.00    +0.068 C 
BRANCH  26  28
ATOM     28  C   UNL     1     -12.148  -4.022   1.288  0.00  0.00    -0.002 A 
ATOM     29  C   UNL     1     -12.697  -5.282   1.540  0.00  0.00    +0.012 A 
ATOM     30  C   UNL     1     -14.065  -5.426   1.645  0.00  0.00    +0.033 A 
ATOM     31  C   UNL     1     -14.893  -4.328   1.490  0.00  0.00    +0.126 A 
ATOM     32  C   UNL     1     -14.357  -3.078   1.235  0.00  0.00    +0.033 A 
ATOM     33  C   UNL     1     -12.990  -2.919   1.133  0.00  0.00    +0.012 A 
BRANCH  31  34
ATOM     34  N   UNL     1     -16.361  -4.491   1.598  0.00  0.00    +0.056 N 
ATOM     35  O   UNL     1     -17.092  -3.527   1.462  0.00  0.00    -0.126 OA
ATOM     36  O   UNL     1     -16.836  -5.590   1.823  0.00  0.00    -0.126 OA
ENDBRANCH  31  34
ENDBRANCH  26  28
ENDBRANCH  23  25
ENDBRANCH  20  21
ENDBRANCH  19  20
ENDBRANCH   4  19
TORSDOF 8
