REMARK  Name = ZINC16927309
REMARK  6 active torsions:
REMARK  status: ('A' for Active; 'I' for Inactive)
REMARK    1  A    between atoms: C_2  and  C_3
REMARK    2  A    between atoms: C_3  and  N_4
REMARK    3  A    between atoms: C_8  and  C_9
REMARK    4  A    between atoms: N_18  and  C_19
REMARK    5  A    between atoms: C_22  and  C_26
REMARK    6  A    between atoms: C_23  and  O_25
REMARK                            x       y       z     vdW  Elec       q    Type
REMARK                         _______ _______ _______ _____ _____    ______ ____
ROOT
ATOM      1  N   UNL     1      -4.568   4.444  -1.502  0.00  0.00    -0.242 N 
ATOM      2  C   UNL     1      -5.486   3.710  -2.107  0.00  0.00    +0.259 C 
ATOM      3  O   UNL     1      -6.662   4.022  -2.091  0.00  0.00    -0.269 OA
ATOM      4  C   UNL     1      -5.020   2.490  -2.798  0.00  0.00    +0.078 C 
ATOM      5  C   UNL     1      -5.733   1.564  -3.485  0.00  0.00    +0.028 C 
ATOM      6  S   UNL     1      -3.262   2.565  -2.485  0.00  0.00    -0.049 S 
ATOM      7  C   UNL     1      -3.241   4.077  -1.536  0.00  0.00    +0.169 C 
ATOM      8  N   UNL     1      -2.209   4.691  -0.996  0.00  0.00    -0.225 NA
ENDROOT
BRANCH   5   9
ATOM      9  C   UNL     1      -5.037   0.511  -4.239  0.00  0.00    -0.023 A 
ATOM     10  C   UNL     1      -5.760  -0.548  -4.800  0.00  0.00    +0.008 A 
ATOM     11  C   UNL     1      -5.100  -1.531  -5.506  0.00  0.00    +0.002 A 
ATOM     12  C   UNL     1      -3.726  -1.473  -5.662  0.00  0.00    +0.015 A 
ATOM     13  C   UNL     1      -3.003  -0.429  -5.110  0.00  0.00    +0.018 A 
ATOM     14  C   UNL     1      -3.649   0.566  -4.405  0.00  0.00    +0.023 A 
ATOM     15 BR   UNL     1      -1.126  -0.361  -5.331  0.00  0.00    -0.050 Br
ENDBRANCH   5   9
BRANCH   8  16
ATOM     16  C   UNL     1      -0.958   4.168  -1.133  0.00  0.00    +0.070 A 
ATOM     17  C   UNL     1      -0.749   2.795  -0.943  0.00  0.00    +0.029 A 
ATOM     18  C   UNL     1       0.500   2.266  -1.073  0.00  0.00    +0.021 A 
ATOM     19  C   UNL     1       1.583   3.091  -1.409  0.00  0.00    +0.105 A 
ATOM     20  C   UNL     1       1.380   4.468  -1.606  0.00  0.00    +0.133 A 
ATOM     21  C   UNL     1       0.114   5.001  -1.467  0.00  0.00    +0.074 A 
BRANCH  19  22
ATOM     22  C   UNL     1       2.927   2.516  -1.553  0.00  0.00    +0.390 C 
ATOM     23  O   UNL     1       3.866   3.232  -1.844  0.00  0.00    -0.240 OA
ATOM     24  O   UNL     1       3.120   1.196  -1.364  0.00  0.00    -0.240 OA
ENDBRANCH  19  22
BRANCH  20  25
ATOM     25  O   UNL     1       2.425   5.270  -1.930  0.00  0.00    -0.506 OA
ATOM     26  H   UNL     1       2.574   5.357  -2.881  0.00  0.00    +0.292 HD
ENDBRANCH  20  25
ENDBRANCH   8  16
BRANCH   1  27
ATOM     27  C   UNL     1      -4.965   5.662  -0.792  0.00  0.00    +0.142 C 
BRANCH  27  29
ATOM     28  C   UNL     1      -5.987   7.581  -1.904  0.00  0.00    +0.005 C 
ATOM     29  C   UNL     1      -4.924   6.832  -1.741  0.00  0.00    -0.015 C 
ENDBRANCH  27  29
ENDBRANCH   1  27
TORSDOF 6
