REMARK  Name = ZINC39664029
REMARK  8 active torsions:
REMARK  status: ('A' for Active; 'I' for Inactive)
REMARK    1  A    between atoms: C_1  and  O_2
REMARK    2  A    between atoms: O_2  and  C_3
REMARK    3  A    between atoms: C_6  and  C_9
REMARK    4  A    between atoms: C_9  and  C_11
REMARK    5  A    between atoms: C_9  and  N_36
REMARK    6  A    between atoms: C_11  and  N_12
REMARK    7  A    between atoms: C_13  and  C_15
REMARK    8  A    between atoms: C_26  and  C_28
REMARK                            x       y       z     vdW  Elec       q    Type
REMARK                         _______ _______ _______ _____ _____    ______ ____
ROOT
ATOM      1  C   UNL     1       6.216  -5.072   6.121  0.00  0.00    +0.100 C 
ATOM      2  C   UNL     1       6.399  -4.180   7.368  0.00  0.00    +0.121 C 
ATOM      3  N   UNL     1       7.617  -4.706   8.029  0.00  0.00    -0.296 N 
ATOM      4  C   UNL     1       8.534  -5.029   6.910  0.00  0.00    +0.115 C 
ATOM      5  C   UNL     1       7.619  -5.628   5.823  0.00  0.00    -0.004 C 
ATOM      6  C   UNL     1       7.615  -7.151   5.915  0.00  0.00    -0.010 C 
ATOM      7  C   UNL     1       9.006  -7.682   5.560  0.00  0.00    -0.082 C 
ATOM      8  N   UNL     1       9.362  -7.256   4.201  0.00  0.00    +0.379 N 
ATOM      9  C   UNL     1       9.454  -5.792   4.143  0.00  0.00    -0.082 C 
ATOM     10  C   UNL     1       8.082  -5.180   4.440  0.00  0.00    -0.010 C 
ATOM     11  C   UNL     1       7.841  -4.856   9.350  0.00  0.00    +0.249 C 
ATOM     12  O   UNL     1       6.947  -4.644  10.146  0.00  0.00    -0.270 OA
ATOM     13  H   UNL     1      10.252  -7.658   3.946  0.00  0.00    -0.086 HD
ATOM     14  H   UNL     1       8.655  -7.573   3.554  0.00  0.00    -0.086 HD
ENDROOT
BRANCH  11  15
ATOM     15  C   UNL     1       9.171  -5.277   9.829  0.00  0.00    +0.072 A 
ATOM     16  C   UNL     1      10.324  -4.851   9.165  0.00  0.00    +0.019 A 
ATOM     17  C   UNL     1      11.563  -5.247   9.617  0.00  0.00    +0.039 A 
ATOM     18  C   UNL     1      11.670  -6.069  10.730  0.00  0.00    +0.126 A 
ATOM     19  C   UNL     1      10.533  -6.496  11.395  0.00  0.00    +0.077 A 
ATOM     20  C   UNL     1       9.284  -6.101  10.955  0.00  0.00    +0.138 A 
ATOM     21  F   UNL     1       8.174  -6.513  11.606  0.00  0.00    -0.205 F 
ATOM     22  F   UNL     1      12.889  -6.454  11.167  0.00  0.00    -0.205 F 
ENDBRANCH  11  15
BRANCH   1  24
ATOM     23  N   UNL     1       5.100  -4.857   3.924  0.00  0.00    -0.316 N 
ATOM     24  C   UNL     1       5.718  -4.253   4.958  0.00  0.00    +0.218 C 
ATOM     25  O   UNL     1       5.874  -3.050   4.953  0.00  0.00    -0.275 OA
ATOM     26  H   UNL     1       4.975  -5.819   3.928  0.00  0.00    +0.149 HD
BRANCH  23  27
ATOM     27  C   UNL     1       4.616  -4.061   2.793  0.00  0.00    +0.093 C 
BRANCH  27  28
ATOM     28  C   UNL     1       3.848  -4.963   1.825  0.00  0.00    -0.020 C 
BRANCH  28  32
ATOM     29  C   UNL     1       0.456  -6.632   3.818  0.00  0.00    +0.120 A 
ATOM     30  C   UNL     1       1.610  -7.386   3.662  0.00  0.00    +0.046 A 
ATOM     31  C   UNL     1       2.705  -6.844   3.017  0.00  0.00    +0.005 A 
ATOM     32  C   UNL     1       2.652  -5.552   2.528  0.00  0.00    -0.059 A 
ATOM     33  C   UNL     1       1.503  -4.798   2.683  0.00  0.00    +0.005 A 
ATOM     34  C   UNL     1       0.403  -5.337   3.322  0.00  0.00    +0.046 A 
BRANCH  29  36
ATOM     35  C   UNL     1      -0.496  -8.501   4.937  0.00  0.00    +0.277 C 
ATOM     36  O   UNL     1      -0.622  -7.162   4.452  0.00  0.00    -0.495 OA
ENDBRANCH  29  36
ENDBRANCH  28  32
BRANCH  28  37
ATOM     37  N   UNL     1       3.399  -4.173   0.671  0.00  0.00    +0.385 N 
ATOM     38  C   UNL     1       4.565  -3.750  -0.145  0.00  0.00    -0.078 C 
ATOM     39  C   UNL     1       3.939  -3.459  -1.533  0.00  0.00    -0.020 C 
ATOM     40  C   UNL     1       2.864  -4.562  -1.665  0.00  0.00    -0.020 C 
ATOM     41  C   UNL     1       2.562  -5.004  -0.221  0.00  0.00    -0.078 C 
ATOM     42  H   UNL     1       2.880  -3.366   0.983  0.00  0.00    -0.081 HD
ENDBRANCH  28  37
ENDBRANCH  27  28
ENDBRANCH  23  27
ENDBRANCH   1  24
TORSDOF 7
