REMARK  Name = ZINC29412058
REMARK  14 active torsions:
REMARK  status: ('A' for Active; 'I' for Inactive)
REMARK    1  A    between atoms: C_1  and  C_2
REMARK    2  A    between atoms: C_4  and  C_36
REMARK    3  A    between atoms: C_6  and  C_8
REMARK    4  A    between atoms: C_9  and  C_23
REMARK    5  A    between atoms: C_12  and  C_18
REMARK    6  A    between atoms: N_20  and  C_21
REMARK    7  A    between atoms: N_20  and  C_22
REMARK    8  A    between atoms: C_23  and  C_24
REMARK    9  A    between atoms: C_24  and  N_25
REMARK   10  A    between atoms: N_25  and  C_26
REMARK   11  A    between atoms: C_26  and  C_27
REMARK   12  A    between atoms: C_27  and  C_28
REMARK   13  A    between atoms: C_28  and  C_29
REMARK   14  A    between atoms: C_29  and  C_30
REMARK                            x       y       z     vdW  Elec       q    Type
REMARK                         _______ _______ _______ _____ _____    ______ ____
ROOT
ATOM      1  C   UNL     1       0.162   1.555   0.715  0.00  0.00    +0.051 A 
ATOM      2  C   UNL     1      -0.891   2.350   1.027  0.00  0.00    -0.016 A 
ATOM      3  C   UNL     1      -0.562   3.695   0.555  0.00  0.00    +0.004 A 
ATOM      4  C   UNL     1      -1.231   4.918   0.586  0.00  0.00    +0.023 A 
ATOM      5  C   UNL     1      -0.627   6.040   0.028  0.00  0.00    +0.038 A 
ATOM      6  C   UNL     1       0.642   5.936  -0.558  0.00  0.00    +0.015 A 
ATOM      7  C   UNL     1       1.298   4.742  -0.590  0.00  0.00    +0.027 A 
ATOM      8  C   UNL     1       0.714   3.604  -0.038  0.00  0.00    +0.047 A 
ATOM      9  N   UNL     1       1.126   2.298   0.074  0.00  0.00    -0.354 N 
ATOM     10  H   UNL     1       2.058   1.818  -0.261  0.00  0.00    +0.166 HD
ENDROOT
BRANCH   1  16
ATOM     11  C   UNL     1      -1.911  -2.984   0.784  0.00  0.00    +0.044 C 
ATOM     12  C   UNL     1      -0.737  -2.077   1.048  0.00  0.00    -0.050 A 
ATOM     13  C   UNL     1       0.434  -2.597   1.570  0.00  0.00    +0.006 A 
ATOM     14  C   UNL     1       1.516  -1.771   1.816  0.00  0.00    -0.050 A 
ATOM     15  C   UNL     1       1.434  -0.422   1.541  0.00  0.00    +0.013 A 
ATOM     16  C   UNL     1       0.256   0.109   1.013  0.00  0.00    -0.001 A 
ATOM     17  C   UNL     1      -0.833  -0.728   0.773  0.00  0.00    +0.013 A 
ATOM     18  C   UNL     1       2.787  -2.346   2.386  0.00  0.00    +0.044 C 
ENDBRANCH   1  16
BRANCH   5  19
ATOM     19  C   UNL     1      -1.323   7.342   0.054  0.00  0.00    +0.246 C 
ATOM     20  O   UNL     1      -2.537   7.384  -0.014  0.00  0.00    -0.270 OA
ATOM     21  N   UNL     1      -0.614   8.484   0.153  0.00  0.00    -0.304 N 
ATOM     22  C   UNL     1      -1.308   9.769   0.274  0.00  0.00    +0.132 C 
ATOM     23  C   UNL     1       0.850   8.440   0.139  0.00  0.00    +0.132 C 
ENDBRANCH   5  19
BRANCH   2  24
ATOM     24  C   UNL     1      -2.157   1.929   1.729  0.00  0.00    +0.019 C 
BRANCH  24  25
ATOM     25  C   UNL     1      -1.980   2.089   3.240  0.00  0.00    -0.078 C 
BRANCH  25  26
ATOM     26  N   UNL     1      -3.214   1.679   3.924  0.00  0.00    +0.379 N 
ATOM     27  H   UNL     1      -4.048   2.309   3.583  0.00  0.00    -0.086 HD
ATOM     28  H   UNL     1      -3.431   0.626   3.689  0.00  0.00    -0.086 HD
BRANCH  26  29
ATOM     29  C   UNL     1      -3.080   1.819   5.380  0.00  0.00    -0.083 C 
BRANCH  29  30
ATOM     30  C   UNL     1      -4.382   1.383   6.055  0.00  0.00    -0.019 C 
BRANCH  30  31
ATOM     31  C   UNL     1      -4.243   1.529   7.572  0.00  0.00    +0.003 C 
BRANCH  31  32
ATOM     32  C   UNL     1      -5.545   1.093   8.248  0.00  0.00    +0.035 C 
BRANCH  32  33
ATOM     33  C   UNL     1      -5.408   1.237   9.742  0.00  0.00    -0.045 A 
ATOM     34  C   UNL     1      -4.939   0.187  10.516  0.00  0.00    +0.023 A 
ATOM     35  C   UNL     1      -4.823   0.357  11.882  0.00  0.00    +0.111 A 
ATOM     36  N   UNL     1      -5.161   1.498  12.451  0.00  0.00    -0.263 NA
ATOM     37  C   UNL     1      -5.615   2.516  11.747  0.00  0.00    +0.111 A 
ATOM     38  C   UNL     1      -5.753   2.421  10.375  0.00  0.00    +0.023 A 
ENDBRANCH  32  33
ENDBRANCH  31  32
ENDBRANCH  30  31
ENDBRANCH  29  30
ENDBRANCH  26  29
ENDBRANCH  25  26
ENDBRANCH  24  25
ENDBRANCH   2  24
TORSDOF 10
