REMARK  Name = ZINC48852530
REMARK  3 active torsions:
REMARK  status: ('A' for Active; 'I' for Inactive)
REMARK    1  A    between atoms: C_6  and  C_7
REMARK    2  A    between atoms: N_16  and  C_17
REMARK    3  A    between atoms: C_17  and  C_18
REMARK                            x       y       z     vdW  Elec       q    Type
REMARK                         _______ _______ _______ _____ _____    ______ ____
ROOT
ATOM      1  C   UNL     1      -1.296  -0.773   0.014  0.00  0.00    +0.166 C 
ATOM      2  C   UNL     1      -1.619  -1.245  -1.409  0.00  0.00    +0.145 C 
ATOM      3  N   UNL     1      -2.778  -2.149  -1.346  0.00  0.00    -0.281 N 
ATOM      4  C   UNL     1      -2.740  -3.256  -0.378  0.00  0.00    +0.137 C 
ATOM      5  C   UNL     1      -2.364  -2.686   0.994  0.00  0.00    +0.179 C 
ATOM      6  O   UNL     1      -1.169  -1.910   0.871  0.00  0.00    -0.369 OA
ATOM      7  C   UNL     1      -3.844  -1.968  -2.151  0.00  0.00    +0.302 C 
ATOM      8  O   UNL     1      -4.752  -2.776  -2.150  0.00  0.00    -0.253 OA
ATOM      9  N   UNL     1      -3.902  -0.890  -2.959  0.00  0.00    -0.299 N 
ATOM     10  H   UNL     1      -3.147  -0.285  -3.015  0.00  0.00    +0.150 HD
ENDROOT
BRANCH   1  16
ATOM     11  C   UNL     1      -0.022   1.381   0.015  0.00  0.00    +0.007 A 
ATOM     12  C   UNL     1       1.164   2.090   0.009  0.00  0.00    +0.020 A 
ATOM     13  C   UNL     1       2.372   1.416  -0.005  0.00  0.00    +0.041 A 
ATOM     14  C   UNL     1       2.392   0.033  -0.013  0.00  0.00    +0.020 A 
ATOM     15  C   UNL     1       1.204  -0.675  -0.007  0.00  0.00    +0.007 A 
ATOM     16  C   UNL     1      -0.002  -0.001   0.007  0.00  0.00    -0.017 A 
ATOM     17 CL   UNL     1       3.863   2.305  -0.013  0.00  0.00    -0.084 Cl
ENDBRANCH   1  16
BRANCH   9  18
ATOM     18  C   UNL     1      -5.107  -0.633  -3.751  0.00  0.00    +0.109 C 
BRANCH  18  19
ATOM     19  C   UNL     1      -4.914   0.642  -4.575  0.00  0.00    +0.006 C 
ATOM     20  C   UNL     1      -5.838   1.824  -4.274  0.00  0.00    +0.005 C 
ATOM     21  C   UNL     1      -6.020   1.019  -5.562  0.00  0.00    +0.005 C 
ENDBRANCH  18  19
ENDBRANCH   9  18
TORSDOF 3
