REMARK  Name = ZINC39466672
REMARK  7 active torsions:
REMARK  status: ('A' for Active; 'I' for Inactive)
REMARK    1  A    between atoms: C_1  and  O_2
REMARK    2  A    between atoms: O_2  and  C_3
REMARK    3  A    between atoms: C_5  and  N_32
REMARK    4  A    between atoms: N_16  and  C_19
REMARK    5  A    between atoms: C_19  and  C_20
REMARK    6  A    between atoms: C_25  and  C_26
REMARK    7  A    between atoms: C_33  and  C_35
REMARK                            x       y       z     vdW  Elec       q    Type
REMARK                         _______ _______ _______ _____ _____    ______ ____
ROOT
ATOM      1  C   UNL     1      -1.977  -0.345  -0.120  0.00  0.00    +0.153 C 
ATOM      2  C   UNL     1      -2.617  -0.545  -1.512  0.00  0.00    +0.133 C 
ATOM      3  C   UNL     1      -2.280  -1.969  -1.902  0.00  0.00    -0.021 A 
ATOM      4  C   UNL     1      -2.315  -2.593  -3.138  0.00  0.00    +0.006 A 
ATOM      5  C   UNL     1      -1.960  -3.922  -3.256  0.00  0.00    +0.000 A 
ATOM      6  C   UNL     1      -1.568  -4.634  -2.138  0.00  0.00    +0.000 A 
ATOM      7  C   UNL     1      -1.533  -4.014  -0.904  0.00  0.00    +0.004 A 
ATOM      8  C   UNL     1      -1.888  -2.681  -0.782  0.00  0.00    -0.034 A 
ATOM      9  C   UNL     1      -1.932  -1.780   0.435  0.00  0.00    +0.021 C 
ATOM     10  C   UNL     1      -0.682  -1.971   1.290  0.00  0.00    -0.005 C 
ATOM     11  C   UNL     1      -0.778  -1.084   2.534  0.00  0.00    -0.078 C 
ATOM     12  N   UNL     1      -1.977  -1.443   3.301  0.00  0.00    +0.380 N 
ATOM     13  C   UNL     1      -3.180  -1.169   2.506  0.00  0.00    -0.078 C 
ATOM     14  C   UNL     1      -3.185  -2.060   1.261  0.00  0.00    -0.005 C 
ATOM     15  H   UNL     1      -1.946  -2.424   3.534  0.00  0.00    -0.082 HD
ENDROOT
BRANCH   2  16
ATOM     16  N   UNL     1      -4.069  -0.368  -1.433  0.00  0.00    -0.299 N 
ATOM     17  C   UNL     1      -4.763   0.001  -2.529  0.00  0.00    +0.280 C 
ATOM     18  O   UNL     1      -4.183   0.187  -3.582  0.00  0.00    -0.267 OA
ATOM     19  H   UNL     1      -4.531  -0.516  -0.594  0.00  0.00    +0.150 HD
BRANCH  17  20
ATOM     20  C   UNL     1      -6.216   0.179  -2.450  0.00  0.00    +0.189 A 
ATOM     21  C   UNL     1      -7.037   0.543  -3.479  0.00  0.00    +0.054 A 
ATOM     22  C   UNL     1      -8.339   0.591  -2.959  0.00  0.00    +0.042 A 
ATOM     23  C   UNL     1      -8.258   0.259  -1.652  0.00  0.00    +0.196 A 
ATOM     24  O   UNL     1      -6.978   0.006  -1.350  0.00  0.00    -0.458 OA
ENDBRANCH  17  20
ENDBRANCH   2  16
BRANCH   1  26
ATOM     25  C   UNL     1      -0.604   1.620  -0.143  0.00  0.00    +0.194 C 
ATOM     26  O   UNL     1      -0.659   0.195  -0.240  0.00  0.00    -0.377 OA
ENDBRANCH   1  26
BRANCH  12  27
ATOM     27  C   UNL     1      -2.019  -0.651   4.538  0.00  0.00    -0.064 C 
BRANCH  27  28
ATOM     28  C   UNL     1      -3.199  -1.111   5.398  0.00  0.00    +0.062 C 
ATOM     29  C   UNL     1      -2.951  -2.502   5.946  0.00  0.00    +0.115 C 
ATOM     30  N   UNL     1      -2.942  -2.380   7.232  0.00  0.00    -0.161 NA
ATOM     31  N   UNL     1      -3.154  -1.068   7.642  0.00  0.00    -0.158 NA
ATOM     32  C   UNL     1      -3.317  -0.257   6.645  0.00  0.00    +0.051 C 
BRANCH  32  33
ATOM     33  C   UNL     1      -3.569   1.228   6.708  0.00  0.00    +0.036 C 
ATOM     34  C   UNL     1      -3.483   1.698   8.161  0.00  0.00    +0.009 C 
ATOM     35  C   UNL     1      -3.739   3.205   8.225  0.00  0.00    +0.001 C 
ATOM     36  C   UNL     1      -5.133   3.510   7.672  0.00  0.00    +0.000 C 
ATOM     37  C   UNL     1      -5.220   3.039   6.219  0.00  0.00    +0.001 C 
ATOM     38  C   UNL     1      -4.963   1.532   6.155  0.00  0.00    +0.009 C 
ENDBRANCH  32  33
ENDBRANCH  27  28
ENDBRANCH  12  27
TORSDOF 6
