REMARK  Name = ZINC29200826
REMARK  13 active torsions:
REMARK  status: ('A' for Active; 'I' for Inactive)
REMARK    1  A    between atoms: C_1  and  C_2
REMARK    2  A    between atoms: C_5  and  S_8
REMARK    3  A    between atoms: S_8  and  N_11
REMARK    4  A    between atoms: N_11  and  C_12
REMARK    5  A    between atoms: C_12  and  C_14
REMARK    6  A    between atoms: C_12  and  C_18
REMARK    7  A    between atoms: C_14  and  C_15
REMARK    8  A    between atoms: C_15  and  C_16
REMARK    9  A    between atoms: C_15  and  C_17
REMARK   10  A    between atoms: N_20  and  C_21
REMARK   11  A    between atoms: C_24  and  N_27
REMARK   12  A    between atoms: N_30  and  C_31
REMARK   13  A    between atoms: C_31  and  C_32
REMARK                            x       y       z     vdW  Elec       q    Type
REMARK                         _______ _______ _______ _____ _____    ______ ____
ROOT
ATOM      1  C   UNL     1       2.082  -2.405  -0.332  0.00  0.00    +0.236 C 
ATOM      2  O   UNL     1       2.779  -1.475   0.015  0.00  0.00    -0.274 OA
ATOM      3  N   UNL     1       0.758  -2.224  -0.510  0.00  0.00    -0.284 N 
ATOM      4  H   UNL     1       0.112  -3.084  -0.742  0.00  0.00    +0.155 HD
ENDROOT
BRANCH   3   5
ATOM      5  C   UNL     1       0.205  -0.942  -0.400  0.00  0.00    +0.034 A 
ATOM      6  C   UNL     1      -1.084  -0.781   0.091  0.00  0.00    +0.025 A 
ATOM      7  C   UNL     1      -1.629   0.482   0.199  0.00  0.00    +0.025 A 
ATOM      8  C   UNL     1      -0.889   1.593  -0.183  0.00  0.00    +0.035 A 
ATOM      9  C   UNL     1       0.400   1.432  -0.675  0.00  0.00    +0.025 A 
ATOM     10  C   UNL     1       0.945   0.169  -0.783  0.00  0.00    +0.025 A 
BRANCH   8  11
ATOM     11  N   UNL     1      -1.442   2.875  -0.074  0.00  0.00    -0.269 N 
ATOM     12  C   UNL     1      -2.300   3.156   0.927  0.00  0.00    +0.304 C 
ATOM     13  O   UNL     1      -2.524   2.325   1.786  0.00  0.00    -0.253 OA
ATOM     14  N   UNL     1      -2.909   4.357   0.976  0.00  0.00    -0.296 N 
ATOM     15  H   UNL     1      -1.176   3.653  -0.805  0.00  0.00    +0.156 HD
ATOM     16  H   UNL     1      -2.706   5.109   0.199  0.00  0.00    +0.151 HD
BRANCH  14  17
ATOM     17  C   UNL     1      -3.841   4.662   2.063  0.00  0.00    +0.132 C 
BRANCH  17  18
ATOM     18  C   UNL     1      -4.380   6.058   1.887  0.00  0.00    -0.016 C 
ATOM     19  C   UNL     1      -5.674   6.260   1.841  0.00  0.00    +0.005 C 
ENDBRANCH  17  18
ENDBRANCH  14  17
ENDBRANCH   8  11
ENDBRANCH   3   5
BRANCH   1  20
ATOM     20  C   UNL     1       2.695  -3.762  -0.564  0.00  0.00    +0.163 C 
BRANCH  20  21
ATOM     21  N   UNL     1       4.136  -3.697  -0.306  0.00  0.00    -0.178 NA
ATOM     22  H   UNL     1       4.838  -3.549  -1.139  0.00  0.00    +0.149 HD
BRANCH  21  23
ATOM     23  S   UNL     1       4.727  -4.091   1.190  0.00  0.00    +0.059 S 
ATOM     24  O   UNL     1       6.141  -3.970   1.113  0.00  0.00    -0.153 OA
ATOM     25  O   UNL     1       3.951  -3.368   2.137  0.00  0.00    -0.153 OA
BRANCH  23  30
ATOM     26  C   UNL     1       3.544  -9.938   2.095  0.00  0.00    +0.044 C 
ATOM     27  C   UNL     1       3.840  -8.477   1.869  0.00  0.00    -0.050 A 
ATOM     28  C   UNL     1       5.071  -8.090   1.374  0.00  0.00    +0.005 A 
ATOM     29  C   UNL     1       5.342  -6.750   1.167  0.00  0.00    +0.029 A 
ATOM     30  C   UNL     1       4.382  -5.798   1.454  0.00  0.00    +0.105 A 
ATOM     31  C   UNL     1       3.152  -6.186   1.954  0.00  0.00    +0.029 A 
ATOM     32  C   UNL     1       2.880  -7.525   2.156  0.00  0.00    +0.005 A 
ENDBRANCH  23  30
ENDBRANCH  21  23
ENDBRANCH  20  21
BRANCH  20  33
ATOM     33  C   UNL     1       2.456  -4.188  -2.014  0.00  0.00    +0.032 C 
BRANCH  33  34
ATOM     34  C   UNL     1       2.935  -5.628  -2.208  0.00  0.00    -0.015 C 
ATOM     35  C   UNL     1       2.548  -6.111  -3.607  0.00  0.00    +0.007 C 
ATOM     36  C   UNL     1       4.456  -5.685  -2.051  0.00  0.00    +0.007 C 
ENDBRANCH  33  34
ENDBRANCH  20  33
ENDBRANCH   1  20
TORSDOF 10
