REMARK  Name = ZINC63659385
REMARK  11 active torsions:
REMARK  status: ('A' for Active; 'I' for Inactive)
REMARK    1  A    between atoms: C_1  and  C_2
REMARK    2  A    between atoms: C_4  and  C_14
REMARK    3  A    between atoms: C_7  and  O_12
REMARK    4  A    between atoms: O_12  and  C_13
REMARK    5  A    between atoms: C_14  and  C_15
REMARK    6  A    between atoms: C_15  and  N_16
REMARK    7  A    between atoms: N_16  and  C_17
REMARK    8  A    between atoms: N_16  and  C_23
REMARK    9  A    between atoms: C_17  and  C_18
REMARK   10  A    between atoms: C_23  and  N_25
REMARK   11  A    between atoms: N_25  and  C_26
REMARK                            x       y       z     vdW  Elec       q    Type
REMARK                         _______ _______ _______ _____ _____    ______ ____
ROOT
ATOM      1  N   UNL     1      -5.008  -1.011  -1.457  0.00  0.00    -0.305 N 
ENDROOT
BRANCH   1   2
ATOM      2  C   UNL     1      -5.825   0.052  -1.313  0.00  0.00    +0.138 C 
ATOM      3  S   UNL     1      -5.850   0.919   0.163  0.00  0.00    -0.018 S 
BRANCH   2   4
ATOM      4  N   UNL     1      -6.622   0.432  -2.332  0.00  0.00    -0.297 N 
ATOM      5  H   UNL     1      -6.551  -0.008  -3.193  0.00  0.00    +0.154 HD
BRANCH   4   6
ATOM      6  C   UNL     1      -7.552   1.460  -2.146  0.00  0.00    +0.034 A 
ATOM      7  C   UNL     1      -7.737   2.418  -3.135  0.00  0.00    +0.023 A 
ATOM      8  C   UNL     1      -8.655   3.432  -2.949  0.00  0.00    +0.003 A 
ATOM      9  C   UNL     1      -9.391   3.496  -1.780  0.00  0.00    +0.020 A 
ATOM     10  C   UNL     1      -9.209   2.543  -0.792  0.00  0.00    +0.043 A 
ATOM     11  C   UNL     1      -8.296   1.522  -0.975  0.00  0.00    +0.043 A 
ATOM     12 CL   UNL     1     -10.134   2.627   0.675  0.00  0.00    -0.083 Cl
ENDBRANCH   4   6
ENDBRANCH   2   4
ENDBRANCH   1   2
BRANCH   1  13
ATOM     13  C   UNL     1      -4.142  -1.424  -0.350  0.00  0.00    +0.111 C 
BRANCH  13  14
ATOM     14  C   UNL     1      -2.798  -0.700  -0.457  0.00  0.00    +0.052 C 
BRANCH  14  17
ATOM     15  C   UNL     1      -0.480   0.858   1.187  0.00  0.00    +0.035 C 
ATOM     16  C   UNL     1      -0.496  -0.654   0.956  0.00  0.00    +0.103 C 
ATOM     17  C   UNL     1      -1.907  -1.125   0.681  0.00  0.00    -0.037 C 
ATOM     18  C   UNL     1      -2.207  -2.003   1.665  0.00  0.00    +0.003 A 
ATOM     19  C   UNL     1      -3.405  -2.796   1.959  0.00  0.00    +0.055 A 
ATOM     20  C   UNL     1      -3.417  -3.611   3.042  0.00  0.00    +0.121 A 
ATOM     21  C   UNL     1      -2.313  -3.728   3.905  0.00  0.00    +0.047 A 
ATOM     22  C   UNL     1      -1.167  -3.039   3.717  0.00  0.00    +0.029 A 
ATOM     23  C   UNL     1      -1.045  -2.127   2.575  0.00  0.00    +0.043 A 
ATOM     24  N   UNL     1      -0.065  -1.356   2.170  0.00  0.00    -0.378 N 
ATOM     25  H   UNL     1       0.800  -1.265   2.600  0.00  0.00    +0.160 HD
BRANCH  20  26
ATOM     26  O   UNL     1      -4.534  -4.340   3.302  0.00  0.00    -0.495 OA
ATOM     27  C   UNL     1      -4.503  -5.185   4.454  0.00  0.00    +0.277 C 
ENDBRANCH  20  26
ENDBRANCH  14  17
ENDBRANCH  13  14
ENDBRANCH   1  13
BRANCH   1  28
ATOM     28  C   UNL     1      -4.987  -1.753  -2.720  0.00  0.00    +0.181 C 
BRANCH  28  29
ATOM     29  C   UNL     1      -6.007  -2.862  -2.668  0.00  0.00    +0.122 A 
ATOM     30  C   UNL     1      -7.292  -2.768  -3.055  0.00  0.00    +0.046 A 
ATOM     31  C   UNL     1      -7.879  -4.035  -2.834  0.00  0.00    +0.041 A 
ATOM     32  C   UNL     1      -6.918  -4.827  -2.326  0.00  0.00    +0.195 A 
ATOM     33  O   UNL     1      -5.785  -4.113  -2.233  0.00  0.00    -0.466 OA
ENDBRANCH  28  29
ENDBRANCH   1  28
TORSDOF 9
