REMARK  Name = ZINC67555366
REMARK  4 active torsions:
REMARK  status: ('A' for Active; 'I' for Inactive)
REMARK    1  A    between atoms: C_1  and  C_2
REMARK    2  A    between atoms: C_4  and  N_8
REMARK    3  A    between atoms: N_5  and  C_7
REMARK    4  A    between atoms: C_15  and  C_18
REMARK                            x       y       z     vdW  Elec       q    Type
REMARK                         _______ _______ _______ _____ _____    ______ ____
ROOT
ATOM      1  N   UNL     1       0.039  -3.240  -1.543  0.00  0.00    -0.254 N 
ATOM      2  C   UNL     1       0.031  -3.097  -2.884  0.00  0.00    +0.308 C 
ATOM      3  O   UNL     1      -0.078  -1.991  -3.376  0.00  0.00    -0.252 OA
ATOM      4  N   UNL     1       0.143  -4.181  -3.677  0.00  0.00    -0.280 N 
ATOM      5  C   UNL     1       0.160  -5.538  -3.109  0.00  0.00    +0.137 C 
ATOM      6  C   UNL     1       1.367  -6.288  -3.683  0.00  0.00    +0.179 C 
ATOM      7  O   UNL     1       1.342  -6.197  -5.110  0.00  0.00    -0.369 OA
ATOM      8  C   UNL     1       1.455  -4.864  -5.614  0.00  0.00    +0.166 C 
ATOM      9  C   UNL     1       0.247  -4.041  -5.139  0.00  0.00    +0.145 C 
ATOM     10  H   UNL     1       0.049  -4.127  -1.150  0.00  0.00    +0.158 HD
ENDROOT
BRANCH   1  14
ATOM     11  C   UNL     1       0.001   1.503   0.010  0.00  0.00    +0.067 C 
ATOM     12  C   UNL     1       0.015  -0.004   0.002  0.00  0.00    +0.062 A 
ATOM     13  C   UNL     1       0.018  -0.816  -1.135  0.00  0.00    +0.068 A 
ATOM     14  C   UNL     1       0.032  -2.113  -0.722  0.00  0.00    +0.124 A 
ATOM     15  N   UNL     1       0.039  -2.110   0.631  0.00  0.00    -0.253 N 
ATOM     16  N   UNL     1       0.034  -0.776   1.058  0.00  0.00    -0.175 NA
ATOM     17  C   UNL     1       0.054  -3.292   1.495  0.00  0.00    +0.174 C 
ENDBRANCH   1  14
BRANCH   8  18
ATOM     18  C   UNL     1       1.480  -4.896  -7.120  0.00  0.00    -0.017 A 
ATOM     19  C   UNL     1       0.649  -5.761  -7.807  0.00  0.00    +0.007 A 
ATOM     20  C   UNL     1       0.672  -5.790  -9.189  0.00  0.00    +0.015 A 
ATOM     21  C   UNL     1       1.526  -4.953  -9.884  0.00  0.00    +0.018 A 
ATOM     22  C   UNL     1       2.357  -4.088  -9.197  0.00  0.00    +0.015 A 
ATOM     23  C   UNL     1       2.330  -4.056  -7.815  0.00  0.00    +0.007 A 
ATOM     24 BR   UNL     1       1.558  -4.993 -11.775  0.00  0.00    -0.050 Br
ENDBRANCH   8  18
TORSDOF 2
