REMARK  Name = ZINC12372929
REMARK  5 active torsions:
REMARK  status: ('A' for Active; 'I' for Inactive)
REMARK    1  A    between atoms: C_6  and  C_7
REMARK    2  A    between atoms: C_7  and  N_59
REMARK    3  A    between atoms: C_13  and  C_15
REMARK    4  A    between atoms: C_15  and  C_16
REMARK    5  A    between atoms: N_18  and  C_19
REMARK                            x       y       z     vdW  Elec       q    Type
REMARK                         _______ _______ _______ _____ _____    ______ ____
ROOT
ATOM      1  C   UNL     1       1.052   3.006   7.414  0.00  0.00    -0.058 C 
ATOM      2  C   UNL     1       1.410   1.615   6.888  0.00  0.00    +0.085 C 
ATOM      3  N   UNL     1       0.227   0.974   6.322  0.00  0.00    -0.318 N 
ATOM      4  C   UNL     1      -0.868   1.654   5.966  0.00  0.00    +0.200 C 
ATOM      5  O   UNL     1      -1.796   1.046   5.475  0.00  0.00    -0.278 OA
ATOM      6  C   UNL     1      -0.998   3.139   6.150  0.00  0.00    +0.028 C 
ATOM      7  H   UNL     1       0.235   0.012   6.199  0.00  0.00    +0.149 HD
ATOM      8  N   UNL     1       0.341   3.729   6.341  0.00  0.00    +0.391 N 
ATOM      9  H   UNL     1       0.873   3.642   5.467  0.00  0.00    -0.080 HD
ENDROOT
BRANCH   8  10
ATOM     10  C   UNL     1       0.219   5.162   6.690  0.00  0.00    -0.042 C 
BRANCH  10  16
ATOM     11  C   UNL     1       2.070   5.694   8.287  0.00  0.00    +0.004 A 
ATOM     12  C   UNL     1       3.328   6.196   8.565  0.00  0.00    +0.038 A 
ATOM     13  C   UNL     1       4.100   6.729   7.547  0.00  0.00    +0.123 A 
ATOM     14  C   UNL     1       3.614   6.754   6.251  0.00  0.00    +0.038 A 
ATOM     15  C   UNL     1       2.358   6.246   5.975  0.00  0.00    +0.004 A 
ATOM     16  C   UNL     1       1.588   5.715   6.992  0.00  0.00    -0.064 A 
ATOM     17  F   UNL     1       5.327   7.224   7.817  0.00  0.00    -0.205 F 
ENDBRANCH  10  16
ENDBRANCH   8  10
BRANCH   6  18
ATOM     18  C   UNL     1      -1.638   3.752   4.903  0.00  0.00    +0.089 C 
BRANCH  18  19
ATOM     19  C   UNL     1      -0.749   3.509   3.711  0.00  0.00    +0.212 C 
ATOM     20  O   UNL     1       0.340   2.997   3.861  0.00  0.00    -0.276 OA
ATOM     21  N   UNL     1      -1.163   3.861   2.478  0.00  0.00    -0.310 N 
ATOM     22  H   UNL     1      -2.035   4.270   2.357  0.00  0.00    +0.149 HD
BRANCH  21  23
ATOM     23  C   UNL     1      -0.299   3.625   1.319  0.00  0.00    +0.035 C 
ATOM     24  C   UNL     1      -0.006   2.128   1.198  0.00  0.00    +0.029 C 
ATOM     25  C   UNL     1       0.897   1.881  -0.013  0.00  0.00    -0.008 C 
ATOM     26  C   UNL     1       0.194   2.368  -1.281  0.00  0.00    +0.007 C 
ATOM     27  C   UNL     1      -0.099   3.865  -1.160  0.00  0.00    -0.008 C 
ATOM     28  C   UNL     1      -1.002   4.111   0.050  0.00  0.00    +0.029 C 
ATOM     29  C   UNL     1       1.215   4.628  -0.980  0.00  0.00    +0.007 C 
ATOM     30  C   UNL     1       1.918   4.142   0.289  0.00  0.00    -0.008 C 
ATOM     31  C   UNL     1       2.211   2.645   0.167  0.00  0.00    +0.007 C 
ATOM     32  C   UNL     1       1.015   4.388   1.499  0.00  0.00    +0.029 C 
ENDBRANCH  21  23
ENDBRANCH  18  19
ENDBRANCH   6  18
TORSDOF 5
