REMARK  Name = ZINC15922728
REMARK  4 active torsions:
REMARK  status: ('A' for Active; 'I' for Inactive)
REMARK    1  A    between atoms: C_4  and  N_21
REMARK    2  A    between atoms: C_6  and  C_7
REMARK    3  A    between atoms: C_8  and  C_9
REMARK    4  A    between atoms: N_11  and  C_12
REMARK                            x       y       z     vdW  Elec       q    Type
REMARK                         _______ _______ _______ _____ _____    ______ ____
ROOT
ATOM      1  C   UNL     1       3.561   3.481  -0.116  0.00  0.00    +0.241 C 
ATOM      2  O   UNL     1       2.500   4.077  -0.102  0.00  0.00    -0.270 OA
ATOM      3  N   UNL     1       3.579   2.136  -0.021  0.00  0.00    -0.282 N 
ATOM      4  H   UNL     1       4.425   1.667   0.045  0.00  0.00    +0.155 HD
ENDROOT
BRANCH   3   5
ATOM      5  C   UNL     1       2.379   1.419  -0.019  0.00  0.00    +0.034 A 
ATOM      6  C   UNL     1       2.268   0.249   0.721  0.00  0.00    +0.023 A 
ATOM      7  C   UNL     1       1.081  -0.455   0.720  0.00  0.00    +0.006 A 
ATOM      8  C   UNL     1      -0.001   0.001  -0.016  0.00  0.00    -0.044 A 
ATOM      9  C   UNL     1       0.106   1.165  -0.754  0.00  0.00    -0.042 A 
ATOM     10  C   UNL     1       1.295   1.874  -0.755  0.00  0.00    +0.027 A 
ATOM     11  C   UNL     1      -1.202   1.445  -1.462  0.00  0.00    +0.036 C 
ATOM     12  C   UNL     1      -2.248   0.573  -0.736  0.00  0.00    +0.009 C 
ATOM     13  C   UNL     1      -1.389  -0.581  -0.178  0.00  0.00    +0.036 C 
ENDBRANCH   3   5
BRANCH   1  15
ATOM     14  C   UNL     1       4.798   5.569  -0.329  0.00  0.00    +0.013 C 
ATOM     15  C   UNL     1       4.816   4.223  -0.234  0.00  0.00    +0.068 C 
BRANCH  14  21
ATOM     16  C   UNL     1       7.281   5.633  -0.464  0.00  0.00    +0.009 A 
ATOM     17  C   UNL     1       8.460   6.339  -0.576  0.00  0.00    +0.023 A 
ATOM     18  C   UNL     1       8.437   7.721  -0.672  0.00  0.00    +0.071 A 
ATOM     19  C   UNL     1       7.231   8.403  -0.657  0.00  0.00    +0.145 A 
ATOM     20  C   UNL     1       6.044   7.710  -0.552  0.00  0.00    +0.042 A 
ATOM     21  C   UNL     1       6.060   6.315  -0.448  0.00  0.00    -0.023 A 
ATOM     22 CL   UNL     1       9.926   8.602  -0.813  0.00  0.00    -0.081 Cl
BRANCH  19  23
ATOM     23  N   UNL     1       7.217   9.880  -0.760  0.00  0.00    +0.058 N 
ATOM     24  O   UNL     1       6.158  10.481  -0.746  0.00  0.00    -0.126 OA
ATOM     25  O   UNL     1       8.264  10.494  -0.858  0.00  0.00    -0.126 OA
ENDBRANCH  19  23
ENDBRANCH  14  21
ENDBRANCH   1  15
TORSDOF 4
