REMARK  Name = ZINC34262671
REMARK  11 active torsions:
REMARK  status: ('A' for Active; 'I' for Inactive)
REMARK    1  A    between atoms: C_1  and  C_2
REMARK    2  A    between atoms: C_13  and  O_15
REMARK    3  A    between atoms: N_21  and  O_22
REMARK    4  A    between atoms: O_22  and  C_23
REMARK    5  A    between atoms: C_23  and  C_24
REMARK    6  A    between atoms: N_26  and  CA_27
REMARK    7  A    between atoms: CA_27  and  CB_29
REMARK    8  A    between atoms: CA_27  and  C_34
REMARK    9  A    between atoms: CB_29  and  CG_30
REMARK   10  A    between atoms: CG_30  and  CD_31
REMARK   11  A    between atoms: C_39  and  C_40
REMARK                            x       y       z     vdW  Elec       q    Type
REMARK                         _______ _______ _______ _____ _____    ______ ____
ROOT
ATOM      1  C   UNK A   0      -0.019   1.526   0.010  0.00  0.00    +0.014 C 
ATOM      2  C   UNK A   0       0.002  -0.004   0.002  0.00  0.00    -0.003 C 
ATOM      3  C   UNK A   0       0.595  -0.568  -1.292  0.00  0.00    +0.010 C 
ATOM      4  C   UNK A   0       2.102  -0.332  -1.336  0.00  0.00    +0.005 C 
ATOM      5  C   UNK A   0       2.756  -1.083  -0.170  0.00  0.00    +0.002 C 
ATOM      6  C   UNK A   0       2.216  -0.518   1.141  0.00  0.00    -0.003 C 
ATOM      7  C   UNK A   0       0.733  -0.586   1.224  0.00  0.00    +0.001 C 
ATOM      8  C   UNK A   0       0.240  -2.036   1.327  0.00  0.00    +0.007 C 
ATOM      9  C   UNK A   0      -1.145  -2.060   0.650  0.00  0.00    +0.032 C 
ATOM     10  C   UNK A   0      -1.419  -0.620   0.162  0.00  0.00    +0.121 C 
ATOM     11  C   UNK A   0       2.843  -1.272   2.320  0.00  0.00    +0.008 C 
ATOM     12  C   UNK A   0       4.351  -1.014   2.339  0.00  0.00    +0.031 C 
ATOM     13  C   UNK A   0       4.928  -1.405   0.991  0.00  0.00    -0.062 C 
ATOM     14  C   UNK A   0       5.996  -2.194   0.980  0.00  0.00    +0.026 C 
ATOM     15  C   UNK A   0       6.606  -2.591  -0.301  0.00  0.00    +0.080 C 
ATOM     16  N   UNK A   0       7.358  -3.641  -0.403  0.00  0.00    -0.089 NA
ATOM     17  C   UNK A   0       6.306  -1.704  -1.494  0.00  0.00    +0.059 C 
ATOM     18  C   UNK A   0       4.793  -1.493  -1.536  0.00  0.00    +0.017 C 
ATOM     19  C   UNK A   0       4.275  -0.890  -0.258  0.00  0.00    -0.007 C 
ATOM     20  C   UNK A   0       4.556   0.612  -0.339  0.00  0.00    +0.016 C 
ENDROOT
BRANCH  10  21
ATOM     21  O   UNK A   0      -2.103  -0.637  -1.092  0.00  0.00    -0.391 OA
ATOM     22  H   UNK A   0      -2.994  -1.012  -1.050  0.00  0.00    +0.210 HD
ENDBRANCH  10  21
BRANCH  16  23
ATOM     23  O   UNK A   0       7.925  -3.986  -1.654  0.00  0.00    -0.384 OA
BRANCH  23  24
ATOM     24  C   UNK A   0       8.731  -5.166  -1.620  0.00  0.00    +0.358 C 
BRANCH  24  25
ATOM     25  C   UNK A   0       9.280  -5.439  -2.997  0.00  0.00    +0.254 C 
ATOM     26  O   UNK A   0       9.008  -4.696  -3.916  0.00  0.00    -0.272 OA
ATOM     27  N   GLN A   1      10.073  -6.508  -3.207  0.00  0.00    -0.299 N 
ATOM     28  H   GLN A   1      10.291  -7.102  -2.471  0.00  0.00    +0.150 HD
BRANCH  27  29
ATOM     29  CA  GLN A   1      10.607  -6.772  -4.545  0.00  0.00    +0.187 C 
BRANCH  29  30
ATOM     30  C   GLN A   1       9.594  -7.549  -5.345  0.00  0.00    +0.376 C 
ATOM     31  O   GLN A   1       8.525  -7.853  -4.844  0.00  0.00    -0.244 OA
ATOM     32  OXT GLN A   1       9.843  -7.873  -6.494  0.00  0.00    -0.244 OA
ENDBRANCH  29  30
BRANCH  29  33
ATOM     33  CB  GLN A   1      11.897  -7.587  -4.428  0.00  0.00    +0.043 C 
BRANCH  33  34
ATOM     34  CG  GLN A   1      12.967  -6.750  -3.724  0.00  0.00    +0.098 C 
BRANCH  34  35
ATOM     35  CD  GLN A   1      14.237  -7.552  -3.608  0.00  0.00    +0.211 C 
ATOM     36  OE1 GLN A   1      14.283  -8.682  -4.045  0.00  0.00    -0.276 OA
ATOM     37  NE2 GLN A   1      15.323  -7.014  -3.018  0.00  0.00    -0.329 N 
ATOM     38 HE21 GLN A   1      15.287  -6.110  -2.668  0.00  0.00    +0.145 HD
ATOM     39 HE22 GLN A   1      16.141  -7.530  -2.944  0.00  0.00    +0.145 HD
ENDBRANCH  34  35
ENDBRANCH  33  34
ENDBRANCH  29  33
ENDBRANCH  27  29
ENDBRANCH  24  25
ENDBRANCH  23  24
ENDBRANCH  16  23
TORSDOF 9
