REMARK  Name = ZINC05733449
REMARK  10 active torsions:
REMARK  status: ('A' for Active; 'I' for Inactive)
REMARK    1  A    between atoms: C_3  and  N_34
REMARK    2  A    between atoms: C_6  and  C_7
REMARK    3  A    between atoms: C_7  and  S_8
REMARK    4  A    between atoms: S_8  and  C_9
REMARK    5  A    between atoms: N_15  and  C_18
REMARK    6  A    between atoms: C_20  and  O_32
REMARK    7  A    between atoms: C_22  and  O_31
REMARK    8  A    between atoms: C_24  and  C_27
REMARK    9  A    between atoms: C_27  and  O_28
REMARK   10  A    between atoms: O_28  and  P_29
REMARK                            x       y       z     vdW  Elec       q    Type
REMARK                         _______ _______ _______ _____ _____    ______ ____
ROOT
ATOM      1  C   UNL     1       4.998  -4.249   7.454  0.00  0.00    +0.192 A 
ATOM      2  N   UNL     1       4.273  -5.361   7.491  0.00  0.00    -0.205 NA
ATOM      3  C   UNL     1       3.143  -5.465   6.801  0.00  0.00    +0.148 A 
ATOM      4  C   UNL     1       2.724  -4.370   6.025  0.00  0.00    +0.147 A 
ATOM      5  C   UNL     1       3.524  -3.216   6.016  0.00  0.00    +0.169 A 
ATOM      6  N   UNL     1       4.641  -3.196   6.736  0.00  0.00    -0.202 NA
ATOM      7  N   UNL     1       2.889  -2.322   5.191  0.00  0.00    -0.285 N 
ATOM      8  C   UNL     1       1.753  -2.924   4.733  0.00  0.00    +0.203 A 
ATOM      9  N   UNL     1       1.661  -4.127   5.220  0.00  0.00    -0.231 NA
ATOM     10  N   UNL     1       2.393  -6.627   6.847  0.00  0.00    -0.341 N 
ATOM     11  H   UNL     1       1.481  -6.422   7.202  0.00  0.00    +0.144 HD
ATOM     12  H   UNL     1       2.691  -7.377   7.386  0.00  0.00    +0.144 HD
ENDROOT
BRANCH   7  13
ATOM     13  C   UNL     1       3.344  -0.968   4.867  0.00  0.00    +0.253 C 
ATOM     14  C   UNL     1       2.812   0.044   5.906  0.00  0.00    +0.195 C 
ATOM     15  C   UNL     1       2.492   1.305   5.072  0.00  0.00    +0.178 C 
ATOM     16  C   UNL     1       2.869   0.905   3.628  0.00  0.00    +0.178 C 
ATOM     17  O   UNL     1       2.781  -0.536   3.609  0.00  0.00    -0.346 OA
BRANCH  15  18
ATOM     18  O   UNL     1       1.101   1.622   5.157  0.00  0.00    -0.386 OA
ATOM     19  H   UNL     1       0.810   1.880   6.042  0.00  0.00    +0.210 HD
ENDBRANCH  15  18
BRANCH  14  20
ATOM     20  O   UNL     1       3.813   0.332   6.883  0.00  0.00    -0.385 OA
ATOM     21  H   UNL     1       3.533   0.962   7.561  0.00  0.00    +0.210 HD
ENDBRANCH  14  20
BRANCH  16  22
ATOM     22  C   UNL     1       1.878   1.512   2.632  0.00  0.00    +0.206 C 
BRANCH  22  23
ATOM     23  O   UNL     1       2.268   1.166   1.301  0.00  0.00    -0.281 OA
BRANCH  23  24
ATOM     24  P   UNL     1       1.451   1.638  -0.003  0.00  0.00    +0.532 P 
ATOM     25  O   UNL     1       1.314   3.111   0.006  0.00  0.00    -0.222 OA
ATOM     26  O   UNL     1      -0.011   0.963   0.007  0.00  0.00    -0.115 OA
ATOM     27  O   UNL     1       2.243   1.181  -1.328  0.00  0.00    -0.115 OA
ENDBRANCH  23  24
ENDBRANCH  22  23
ENDBRANCH  16  22
ENDBRANCH   7  13
BRANCH   1  28
ATOM     28  S   UNL     1       6.489  -4.175   8.391  0.00  0.00    -0.081 S 
BRANCH  28  29
ATOM     29  C   UNL     1       6.473  -5.823   9.137  0.00  0.00    +0.112 C 
BRANCH  29  35
ATOM     30  C   UNL     1       8.859  -6.504   9.474  0.00  0.00    +0.007 A 
ATOM     31  C   UNL     1       9.977  -6.653  10.272  0.00  0.00    +0.033 A 
ATOM     32  C   UNL     1       9.926  -6.300  11.607  0.00  0.00    +0.126 A 
ATOM     33  C   UNL     1       8.757  -5.793  12.144  0.00  0.00    +0.033 A 
ATOM     34  C   UNL     1       7.640  -5.639  11.344  0.00  0.00    +0.007 A 
ATOM     35  C   UNL     1       7.691  -5.991  10.009  0.00  0.00    -0.037 A 
BRANCH  32  36
ATOM     36  N   UNL     1      11.123  -6.465  12.463  0.00  0.00    +0.056 N 
ATOM     37  O   UNL     1      11.077  -6.154  13.640  0.00  0.00    -0.126 OA
ATOM     38  O   UNL     1      12.152  -6.912  11.990  0.00  0.00    -0.126 OA
ENDBRANCH  32  36
ENDBRANCH  29  35
ENDBRANCH  28  29
ENDBRANCH   1  28
TORSDOF 10
