REMARK  Name = ZINC38648691
REMARK  5 active torsions:
REMARK  status: ('A' for Active; 'I' for Inactive)
REMARK    1  A    between atoms: C_1  and  O_2
REMARK    2  A    between atoms: O_2  and  C_3
REMARK    3  A    between atoms: C_5  and  C_10
REMARK    4  A    between atoms: C_8  and  O_9
REMARK    5  A    between atoms: N_25  and  C_26
REMARK                            x       y       z     vdW  Elec       q    Type
REMARK                         _______ _______ _______ _____ _____    ______ ____
ROOT
ATOM      1  C   UNL     1       2.403   0.379  -4.230  0.00  0.00    +0.145 C 
ATOM      2  C   UNL     1       3.887   0.420  -4.073  0.00  0.00    +0.072 A 
ATOM      3  C   UNL     1       4.730   0.928  -2.986  0.00  0.00    +0.199 A 
ATOM      4  O   UNL     1       4.289   1.268  -1.902  0.00  0.00    -0.287 OA
ATOM      5  C   UNL     1       6.173   0.988  -3.330  0.00  0.00    +0.066 A 
ATOM      6  C   UNL     1       7.076   1.630  -2.483  0.00  0.00    +0.035 A 
ATOM      7  C   UNL     1       8.410   1.680  -2.821  0.00  0.00    +0.042 A 
ATOM      8  C   UNL     1       8.851   1.094  -4.001  0.00  0.00    +0.023 A 
ATOM      9  C   UNL     1       7.970   0.456  -4.844  0.00  0.00    +0.048 A 
ATOM     10  C   UNL     1       6.614   0.390  -4.522  0.00  0.00    +0.140 A 
ATOM     11  O   UNL     1       5.771  -0.252  -5.364  0.00  0.00    -0.450 OA
ATOM     12  C   UNL     1       4.440  -0.132  -5.194  0.00  0.00    +0.199 A 
ATOM     13  C   UNL     1       3.348  -0.533  -6.098  0.00  0.00    +0.283 C 
ATOM     14  O   UNL     1       3.501  -1.053  -7.185  0.00  0.00    -0.267 OA
ATOM     15  N   UNL     1       2.153  -0.238  -5.543  0.00  0.00    -0.279 N 
ATOM     16 CL   UNL     1       9.542   2.477  -1.773  0.00  0.00    -0.084 Cl
ENDROOT
BRANCH  15  17
ATOM     17  C   UNL     1       0.839  -0.490  -6.140  0.00  0.00    +0.100 C 
ATOM     18  C   UNL     1       0.735   0.261  -7.478  0.00  0.00    +0.047 C 
ATOM     19  C   UNL     1      -0.520  -0.264  -8.231  0.00  0.00    +0.168 C 
ATOM     20  S   UNL     1      -0.397  -2.068  -7.875  0.00  0.00    -0.029 S 
ATOM     21  O   UNL     1       0.323  -2.698  -8.925  0.00  0.00    -0.174 OA
ATOM     22  O   UNL     1      -1.682  -2.557  -7.516  0.00  0.00    -0.174 OA
ATOM     23  C   UNL     1       0.664  -2.010  -6.375  0.00  0.00    +0.188 C 
ENDBRANCH  15  17
BRANCH   1  26
ATOM     24  C   UNL     1       0.606  -0.608  -1.056  0.00  0.00    +0.162 A 
ATOM     25  C   UNL     1       1.173   0.159  -2.062  0.00  0.00    +0.055 A 
ATOM     26  C   UNL     1       1.787  -0.456  -3.137  0.00  0.00    -0.019 A 
ATOM     27  C   UNL     1       1.837  -1.836  -3.212  0.00  0.00    +0.009 A 
ATOM     28  C   UNL     1       1.273  -2.606  -2.212  0.00  0.00    +0.049 A 
ATOM     29  C   UNL     1       0.662  -1.996  -1.129  0.00  0.00    +0.158 A 
BRANCH  24  31
ATOM     30  C   UNL     1      -0.017   1.425   0.010  0.00  0.00    +0.277 C 
ATOM     31  O   UNL     1       0.002  -0.004   0.002  0.00  0.00    -0.491 OA
ENDBRANCH  24  31
BRANCH  29  32
ATOM     32  O   UNL     1       0.112  -2.753  -0.142  0.00  0.00    -0.503 OA
ATOM     33  H   UNL     1      -0.816  -2.979  -0.291  0.00  0.00    +0.292 HD
ENDBRANCH  29  32
ENDBRANCH   1  26
TORSDOF 4
