REMARK  Name = ZINC43721686
REMARK  10 active torsions:
REMARK  status: ('A' for Active; 'I' for Inactive)
REMARK    1  A    between atoms: C_1  and  C_2
REMARK    2  A    between atoms: C_14  and  C_16
REMARK    3  A    between atoms: C_24  and  C_39
REMARK    4  A    between atoms: C_25  and  C_34
REMARK    5  A    between atoms: C_27  and  C_32
REMARK    6  A    between atoms: C_27  and  C_33
REMARK    7  A    between atoms: C_28  and  O_31
REMARK    8  A    between atoms: C_34  and  C_35
REMARK    9  A    between atoms: C_35  and  O_37
REMARK   10  A    between atoms: O_37  and  C_38
REMARK                            x       y       z     vdW  Elec       q    Type
REMARK                         _______ _______ _______ _____ _____    ______ ____
ROOT
ATOM      1  C   UNL     1      -0.057   1.193  -0.129  0.00  0.00    +0.018 C 
ATOM      2  C   UNL     1      -0.238  -0.341  -0.103  0.00  0.00    +0.043 C 
ATOM      3  C   UNL     1      -1.706  -0.625   0.197  0.00  0.00    +0.014 C 
ATOM      4  C   UNL     1      -2.125  -0.161   1.585  0.00  0.00    +0.009 C 
ATOM      5  C   UNL     1      -1.187  -0.579   2.707  0.00  0.00    +0.026 C 
ATOM      6  C   UNL     1       0.242  -0.240   2.291  0.00  0.00    -0.040 C 
ATOM      7  C   UNL     1       1.021   0.552   2.983  0.00  0.00    +0.011 C 
ATOM      8  C   UNL     1       0.650  -0.924   0.996  0.00  0.00    +0.110 C 
ATOM      9  C   UNL     1       2.121  -0.644   0.688  0.00  0.00    +0.160 C 
ATOM     10  C   UNL     1       2.391  -1.085  -0.737  0.00  0.00    +0.311 C 
ATOM     11  O   UNL     1       3.319  -1.810  -1.000  0.00  0.00    -0.251 OA
ATOM     12  O   UNL     1       1.559  -0.635  -1.698  0.00  0.00    -0.456 OA
ATOM     13  C   UNL     1       0.160  -0.861  -1.481  0.00  0.00    +0.218 C 
ATOM     14  O   UNL     1       0.456  -2.317   1.163  0.00  0.00    -0.364 OA
ATOM     15  C   UNL     1      -0.727  -2.834   1.732  0.00  0.00    +0.129 C 
ATOM     16  C   UNL     1      -1.212  -2.099   2.969  0.00  0.00    +0.005 C 
ATOM     17  C   UNL     1      -0.358  -2.365   4.202  0.00  0.00    +0.017 C 
ATOM     18  C   UNL     1       0.130  -3.789   4.398  0.00  0.00    -0.005 C 
ATOM     19  C   UNL     1       0.586  -4.441   3.099  0.00  0.00    +0.123 C 
ATOM     20  C   UNL     1      -0.509  -4.324   2.043  0.00  0.00    +0.064 C 
ATOM     21  C   UNL     1       1.343  -3.749   5.354  0.00  0.00    +0.014 C 
ATOM     22  C   UNL     1      -0.947  -4.651   5.066  0.00  0.00    +0.014 C 
ATOM     23  C   UNL     1      -2.665  -2.506   3.271  0.00  0.00    +0.014 C 
ENDROOT
BRANCH  13  24
ATOM     24  C   UNL     1      -0.153  -2.324  -1.662  0.00  0.00    +0.031 A 
ATOM     25  C   UNL     1      -1.264  -2.869  -2.344  0.00  0.00    +0.048 A 
ATOM     26  C   UNL     1      -1.152  -4.207  -2.265  0.00  0.00    +0.195 A 
ATOM     27  O   UNL     1      -0.037  -4.499  -1.575  0.00  0.00    -0.471 OA
ATOM     28  C   UNL     1       0.576  -3.361  -1.211  0.00  0.00    +0.202 A 
ENDBRANCH  13  24
BRANCH  19  29
ATOM     29  O   UNL     1       0.879  -5.822   3.332  0.00  0.00    -0.391 OA
ATOM     30  H   UNL     1       1.177  -6.300   2.546  0.00  0.00    +0.210 HD
ENDBRANCH  19  29
BRANCH  17  31
ATOM     31  C   UNL     1      -1.163  -1.961   5.454  0.00  0.00    +0.125 C 
BRANCH  31  32
ATOM     32  C   UNL     1      -2.367  -2.857   5.588  0.00  0.00    +0.307 C 
ATOM     33  O   UNL     1      -2.532  -3.768   4.811  0.00  0.00    -0.251 OA
BRANCH  32  34
ATOM     34  O   UNL     1      -3.257  -2.643   6.569  0.00  0.00    -0.468 OA
ATOM     35  C   UNL     1      -4.375  -3.530   6.637  0.00  0.00    +0.280 C 
ENDBRANCH  32  34
ENDBRANCH  31  32
ENDBRANCH  17  31
TORSDOF 5
