REMARK  Name = ZINC38705091
REMARK  9 active torsions:
REMARK  status: ('A' for Active; 'I' for Inactive)
REMARK    1  A    between atoms: C_1  and  C_2
REMARK    2  A    between atoms: C_2  and  C_3
REMARK    3  A    between atoms: C_6  and  C_9
REMARK    4  A    between atoms: C_12  and  C_27
REMARK    5  A    between atoms: N_19  and  C_20
REMARK    6  A    between atoms: C_20  and  C_21
REMARK    7  A    between atoms: C_28  and  C_35
REMARK    8  A    between atoms: C_30  and  C_34
REMARK    9  A    between atoms: C_32  and  O_33
REMARK                            x       y       z     vdW  Elec       q    Type
REMARK                         _______ _______ _______ _____ _____    ______ ____
ROOT
ATOM      1  C   UNL     1       2.496  -1.717   4.540  0.00  0.00    +0.142 C 
ATOM      2  C   UNL     1       2.992  -0.684   5.514  0.00  0.00    +0.035 A 
ATOM      3  C   UNL     1       3.796   0.439   5.735  0.00  0.00    +0.102 A 
ATOM      4  N   UNL     1       3.659   0.779   7.002  0.00  0.00    -0.173 NA
ATOM      5  N   UNL     1       2.849  -0.018   7.602  0.00  0.00    -0.272 N 
ATOM      6  H   UNL     1       2.598   0.043   8.537  0.00  0.00    +0.189 HD
ATOM      7  C   UNL     1       2.391  -0.962   6.727  0.00  0.00    +0.126 A 
ATOM      8  C   UNL     1       1.528  -2.137   6.562  0.00  0.00    +0.266 C 
ATOM      9  O   UNL     1       0.859  -2.636   7.447  0.00  0.00    -0.268 OA
ATOM     10  N   UNL     1       1.583  -2.585   5.294  0.00  0.00    -0.281 N 
ENDROOT
BRANCH   3  11
ATOM     11  C   UNL     1       4.647   1.122   4.729  0.00  0.00    +0.047 A 
ATOM     12  C   UNL     1       4.601   2.507   4.598  0.00  0.00    -0.037 A 
ATOM     13  C   UNL     1       5.394   3.138   3.661  0.00  0.00    +0.007 A 
ATOM     14  C   UNL     1       6.237   2.397   2.851  0.00  0.00    -0.047 A 
ATOM     15  C   UNL     1       6.291   1.022   2.973  0.00  0.00    +0.049 A 
ATOM     16  C   UNL     1       5.504   0.377   3.913  0.00  0.00    +0.127 A 
ATOM     17  C   UNL     1       7.100   3.095   1.831  0.00  0.00    +0.044 C 
ATOM     18  C   UNL     1       3.684   3.318   5.478  0.00  0.00    +0.044 C 
BRANCH  16  19
ATOM     19  O   UNL     1       5.561  -0.975   4.038  0.00  0.00    -0.506 OA
ATOM     20  H   UNL     1       4.981  -1.451   3.428  0.00  0.00    +0.292 HD
ENDBRANCH  16  19
ENDBRANCH   3  11
BRANCH   1  24
ATOM     21  C   UNL     1       0.411   0.172   1.325  0.00  0.00    -0.048 A 
ATOM     22  C   UNL     1       1.650  -0.400   1.104  0.00  0.00    +0.004 A 
ATOM     23  C   UNL     1       2.325  -1.011   2.144  0.00  0.00    +0.006 A 
ATOM     24  C   UNL     1       1.761  -1.050   3.406  0.00  0.00    -0.022 A 
ATOM     25  C   UNL     1       0.522  -0.477   3.627  0.00  0.00    +0.006 A 
ATOM     26  C   UNL     1      -0.150   0.138   2.588  0.00  0.00    +0.004 A 
BRANCH  21  28
ATOM     27  C   UNL     1       0.068   2.315   0.127  0.00  0.00    +0.009 C 
ATOM     28  C   UNL     1      -0.325   0.838   0.192  0.00  0.00    +0.032 C 
ENDBRANCH  21  28
ENDBRANCH   1  24
BRANCH  10  29
ATOM     29  C   UNL     1       0.855  -3.738   4.757  0.00  0.00    +0.145 C 
BRANCH  29  30
ATOM     30  C   UNL     1       1.694  -4.980   4.918  0.00  0.00    -0.012 A 
ATOM     31  C   UNL     1       2.578  -5.364   3.921  0.00  0.00    +0.008 A 
ATOM     32  C   UNL     1       3.329  -6.513   4.112  0.00  0.00    +0.020 A 
ATOM     33  C   UNL     1       3.173  -7.233   5.281  0.00  0.00    +0.111 A 
ATOM     34  N   UNL     1       2.322  -6.838   6.208  0.00  0.00    -0.263 NA
ATOM     35  C   UNL     1       1.596  -5.747   6.063  0.00  0.00    +0.115 A 
ENDBRANCH  29  30
ENDBRANCH  10  29
TORSDOF 6
