REMARK  Name = ZINC03143883
REMARK  7 active torsions:
REMARK  status: ('A' for Active; 'I' for Inactive)
REMARK    1  A    between atoms: C_8  and  C_10
REMARK    2  A    between atoms: C_13  and  N_17
REMARK    3  A    between atoms: C_15  and  O_16
REMARK    4  A    between atoms: C_18  and  C_19
REMARK    5  A    between atoms: C_22  and  O_25
REMARK    6  A    between atoms: O_25  and  C_26
REMARK    7  A    between atoms: C_26  and  C_28
REMARK                            x       y       z     vdW  Elec       q    Type
REMARK                         _______ _______ _______ _____ _____    ______ ____
ROOT
ATOM      1  N   UNL     1      -1.242   1.978   0.007  0.00  0.00    -0.255 NA
ATOM      2  C   UNL     1      -2.184   1.667  -0.841  0.00  0.00    +0.119 C 
ENDROOT
BRANCH   1   6
ATOM      3  C   UNL     1       2.355  -0.067  -0.081  0.00  0.00    +0.078 A 
ATOM      4  C   UNL     1       1.146  -0.764  -0.157  0.00  0.00    +0.019 A 
ATOM      5  C   UNL     1      -0.039  -0.088  -0.126  0.00  0.00    +0.029 A 
ATOM      6  C   UNL     1      -0.053   1.307  -0.018  0.00  0.00    +0.067 A 
ATOM      7  C   UNL     1       1.149   2.014   0.059  0.00  0.00    +0.074 A 
ATOM      8  C   UNL     1       2.351   1.332   0.028  0.00  0.00    +0.131 A 
BRANCH   3  16
ATOM      9  C   UNL     1       7.147  -3.623  -0.274  0.00  0.00    +0.002 A 
ATOM     10  C   UNL     1       7.843  -2.427  -0.168  0.00  0.00    +0.004 A 
ATOM     11  C   UNL     1       7.165  -1.228  -0.086  0.00  0.00    +0.048 A 
ATOM     12  C   UNL     1       5.779  -1.214  -0.110  0.00  0.00    +0.156 A 
ATOM     13  C   UNL     1       5.071  -2.422  -0.217  0.00  0.00    +0.110 A 
ATOM     14  C   UNL     1       5.770  -3.628  -0.299  0.00  0.00    +0.031 A 
ATOM     15  N   UNL     1       3.751  -2.102  -0.215  0.00  0.00    -0.209 NA
ATOM     16  C   UNL     1       3.634  -0.800  -0.116  0.00  0.00    +0.232 A 
ATOM     17  O   UNL     1       4.853  -0.231  -0.055  0.00  0.00    -0.435 OA
ENDBRANCH   3  16
BRANCH   8  18
ATOM     18  O   UNL     1       3.523   2.013   0.102  0.00  0.00    -0.506 OA
ATOM     19  H   UNL     1       3.878   2.279  -0.757  0.00  0.00    +0.292 HD
ENDBRANCH   8  18
ENDBRANCH   1   6
BRANCH   2  20
ATOM     20  C   UNL     1      -3.465   2.390  -0.814  0.00  0.00    -0.007 A 
ATOM     21  C   UNL     1      -3.678   3.407   0.123  0.00  0.00    +0.013 A 
ATOM     22  C   UNL     1      -4.877   4.084   0.140  0.00  0.00    +0.047 A 
ATOM     23  C   UNL     1      -5.878   3.751  -0.764  0.00  0.00    +0.132 A 
ATOM     24  C   UNL     1      -5.674   2.738  -1.693  0.00  0.00    +0.047 A 
ATOM     25  C   UNL     1      -4.477   2.059  -1.722  0.00  0.00    +0.013 A 
BRANCH  23  26
ATOM     26  O   UNL     1      -7.061   4.418  -0.740  0.00  0.00    -0.422 OA
BRANCH  26  27
ATOM     27  C   UNL     1      -8.143   3.730  -0.328  0.00  0.00    +0.344 C 
ATOM     28  O   UNL     1      -8.018   2.599   0.100  0.00  0.00    -0.245 OA
BRANCH  27  29
ATOM     29  C   UNL     1      -9.481   4.348  -0.395  0.00  0.00    +0.060 A 
ATOM     30  C   UNL     1      -9.628   5.650  -0.881  0.00  0.00    +0.018 A 
ATOM     31  C   UNL     1     -10.881   6.221  -0.948  0.00  0.00    +0.039 A 
ATOM     32  C   UNL     1     -11.993   5.510  -0.523  0.00  0.00    +0.123 A 
ATOM     33  C   UNL     1     -11.853   4.220  -0.035  0.00  0.00    +0.039 A 
ATOM     34  C   UNL     1     -10.605   3.637   0.031  0.00  0.00    +0.018 A 
ATOM     35  F   UNL     1     -13.218   6.076  -0.586  0.00  0.00    -0.205 F 
ENDBRANCH  27  29
ENDBRANCH  26  27
ENDBRANCH  23  26
ENDBRANCH   2  20
TORSDOF 7
