REMARK  Name = ZINC66630125
REMARK  9 active torsions:
REMARK  status: ('A' for Active; 'I' for Inactive)
REMARK    1  A    between atoms: C_1  and  C_2
REMARK    2  A    between atoms: N_7  and  C_9
REMARK    3  A    between atoms: C_9  and  C_10
REMARK    4  A    between atoms: C_10  and  C_12
REMARK    5  A    between atoms: C_10  and  N_13
REMARK    6  A    between atoms: C_14  and  C_16
REMARK    7  A    between atoms: C_16  and  N_17
REMARK    8  A    between atoms: N_20  and  C_21
REMARK    9  A    between atoms: C_21  and  C_22
REMARK                            x       y       z     vdW  Elec       q    Type
REMARK                         _______ _______ _______ _____ _____    ______ ____
ROOT
ATOM      1  N   UNL     1       0.199  -4.504   2.224  0.00  0.00    -0.313 N 
ATOM      2  C   UNL     1      -0.001  -5.764   1.791  0.00  0.00    +0.230 C 
ATOM      3  O   UNL     1       0.948  -6.474   1.531  0.00  0.00    -0.274 OA
ATOM      4  H   UNL     1      -0.560  -3.937   2.433  0.00  0.00    +0.149 HD
ENDROOT
BRANCH   1   5
ATOM      5  C   UNL     1       1.562  -3.991   2.382  0.00  0.00    +0.053 C 
ATOM      6  C   UNL     1       2.089  -4.359   3.770  0.00  0.00    +0.026 C 
BRANCH   5   7
ATOM      7  C   UNL     1       1.555  -2.469   2.226  0.00  0.00    -0.057 C 
BRANCH   7  13
ATOM      8  C   UNL     1       2.049  -2.806  -2.633  0.00  0.00    +0.005 C 
ATOM      9  C   UNL     1       1.152  -2.300  -1.502  0.00  0.00    -0.031 C 
ATOM     10  C   UNL     1       0.953  -0.789  -1.644  0.00  0.00    -0.001 C 
ATOM     11  C   UNL     1       0.119  -0.281  -0.464  0.00  0.00    -0.018 C 
ATOM     12  C   UNL     1       0.818  -0.653   0.845  0.00  0.00    -0.079 C 
ATOM     13  N   UNL     1       0.955  -2.112   0.933  0.00  0.00    +0.381 N 
ATOM     14  C   UNL     1       1.812  -2.599  -0.154  0.00  0.00    -0.076 C 
ATOM     15  H   UNL     1       0.044  -2.539   0.859  0.00  0.00    -0.082 HD
ENDBRANCH   7  13
ENDBRANCH   5   7
ENDBRANCH   1   5
BRANCH   2  16
ATOM     16  C   UNL     1      -1.403  -6.292   1.629  0.00  0.00    +0.201 C 
BRANCH  16  17
ATOM     17  N   UNL     1      -1.351  -7.675   1.149  0.00  0.00    -0.291 N 
ATOM     18  C   UNL     1      -2.494  -8.356   0.930  0.00  0.00    +0.300 C 
ATOM     19  O   UNL     1      -3.568  -7.822   1.132  0.00  0.00    -0.253 OA
ATOM     20  N   UNL     1      -2.447  -9.628   0.489  0.00  0.00    -0.295 N 
ATOM     21  H   UNL     1      -0.495  -8.102   0.988  0.00  0.00    +0.151 HD
ATOM     22  H   UNL     1      -1.590 -10.054   0.328  0.00  0.00    +0.151 HD
BRANCH  20  23
ATOM     23  C   UNL     1      -3.689 -10.368   0.251  0.00  0.00    +0.141 C 
BRANCH  23  24
ATOM     24  C   UNL     1      -3.362 -11.756  -0.235  0.00  0.00    -0.030 A 
ATOM     25  C   UNL     1      -3.223 -11.999  -1.589  0.00  0.00    +0.006 A 
ATOM     26  C   UNL     1      -2.923 -13.273  -2.035  0.00  0.00    +0.020 A 
ATOM     27  C   UNL     1      -2.762 -14.304  -1.127  0.00  0.00    +0.041 A 
ATOM     28  C   UNL     1      -2.900 -14.060   0.228  0.00  0.00    +0.020 A 
ATOM     29  C   UNL     1      -3.195 -12.785   0.673  0.00  0.00    +0.006 A 
ATOM     30 CL   UNL     1      -2.385 -15.903  -1.687  0.00  0.00    -0.084 Cl
ENDBRANCH  23  24
ENDBRANCH  20  23
ENDBRANCH  16  17
ENDBRANCH   2  16
TORSDOF 7
