REMARK  Name = ZINC12782321
REMARK  8 active torsions:
REMARK  status: ('A' for Active; 'I' for Inactive)
REMARK    1  A    between atoms: C_1  and  C_2
REMARK    2  A    between atoms: C_5  and  S_9
REMARK    3  A    between atoms: C_6  and  C_8
REMARK    4  A    between atoms: S_9  and  N_12
REMARK    5  A    between atoms: C_15  and  C_18
REMARK    6  A    between atoms: N_20  and  C_21
REMARK    7  A    between atoms: C_21  and  C_23
REMARK    8  A    between atoms: C_21  and  C_29
REMARK                            x       y       z     vdW  Elec       q    Type
REMARK                         _______ _______ _______ _____ _____    ______ ____
ROOT
ATOM      1  N   UNL     1       4.815   7.057  -4.858  0.00  0.00    -0.177 NA
ATOM      2  C   UNL     1       4.035   5.865  -5.216  0.00  0.00    +0.110 C 
ATOM      3  C   UNL     1       2.825   5.768  -4.281  0.00  0.00    +0.030 C 
ATOM      4  C   UNL     1       3.306   5.792  -2.828  0.00  0.00    +0.077 C 
ATOM      5  C   UNL     1       4.027   7.113  -2.549  0.00  0.00    +0.030 C 
ATOM      6  C   UNL     1       5.250   7.225  -3.465  0.00  0.00    +0.110 C 
ENDROOT
BRANCH   4   7
ATOM      7  C   UNL     1       2.121   5.663  -1.905  0.00  0.00    +0.217 C 
ATOM      8  O   UNL     1       1.003   5.562  -2.364  0.00  0.00    -0.275 OA
ATOM      9  N   UNL     1       2.304   5.660  -0.570  0.00  0.00    -0.304 N 
ATOM     10  H   UNL     1       3.198   5.742  -0.203  0.00  0.00    +0.150 HD
BRANCH   9  11
ATOM     11  C   UNL     1       1.153   5.535   0.327  0.00  0.00    +0.140 C 
BRANCH  11  12
ATOM     12  C   UNL     1       1.486   6.150   1.662  0.00  0.00    -0.022 A 
ATOM     13  C   UNL     1       2.739   5.965   2.215  0.00  0.00    +0.006 A 
ATOM     14  C   UNL     1       3.046   6.533   3.437  0.00  0.00    +0.000 A 
ATOM     15  C   UNL     1       2.097   7.278   4.111  0.00  0.00    +0.000 A 
ATOM     16  C   UNL     1       0.842   7.460   3.560  0.00  0.00    +0.000 A 
ATOM     17  C   UNL     1       0.536   6.895   2.336  0.00  0.00    +0.006 A 
ENDBRANCH  11  12
BRANCH  11  18
ATOM     18  C   UNL     1       0.819   4.077   0.515  0.00  0.00    +0.014 A 
ATOM     19  C   UNL     1      -0.397   3.481   0.578  0.00  0.00    +0.013 A 
ATOM     20  C   UNL     1      -0.463   2.112   0.752  0.00  0.00    +0.008 A 
ATOM     21  C   UNL     1       0.689   1.407   0.867  0.00  0.00    +0.045 A 
ATOM     22  S   UNL     1       1.922   2.688   0.714  0.00  0.00    -0.099 S 
ENDBRANCH  11  18
ENDBRANCH   9  11
ENDBRANCH   4   7
BRANCH   1  23
ATOM     23  S   UNL     1       5.196   8.191  -6.003  0.00  0.00    +0.061 S 
ATOM     24  O   UNL     1       6.413   8.796  -5.587  0.00  0.00    -0.153 OA
ATOM     25  O   UNL     1       5.055   7.556  -7.266  0.00  0.00    -0.153 OA
BRANCH  23  30
ATOM     26  C   UNL     1       0.960  12.480  -5.749  0.00  0.00    +0.044 C 
ATOM     27  C   UNL     1       2.018  11.409  -5.812  0.00  0.00    -0.050 A 
ATOM     28  C   UNL     1       3.315  11.694  -5.428  0.00  0.00    +0.005 A 
ATOM     29  C   UNL     1       4.286  10.712  -5.486  0.00  0.00    +0.029 A 
ATOM     30  C   UNL     1       3.959   9.443  -5.928  0.00  0.00    +0.108 A 
ATOM     31  C   UNL     1       2.664   9.159  -6.317  0.00  0.00    -0.024 A 
ATOM     32  C   UNL     1       1.692  10.140  -6.254  0.00  0.00    +0.008 A 
ATOM     33  C   UNL     1       2.309   7.778  -6.805  0.00  0.00    +0.046 C 
ENDBRANCH  23  30
ENDBRANCH   1  23
TORSDOF 6
