REMARK  Name = ZINC45606172
REMARK  10 active torsions:
REMARK  status: ('A' for Active; 'I' for Inactive)
REMARK    1  A    between atoms: C_1  and  C_2
REMARK    2  A    between atoms: C_4  and  C_7
REMARK    3  A    between atoms: C_16  and  C_18
REMARK    4  A    between atoms: C_18  and  N_19
REMARK    5  A    between atoms: N_19  and  C_20
REMARK    6  A    between atoms: N_19  and  C_21
REMARK    7  A    between atoms: C_21  and  C_23
REMARK    8  A    between atoms: C_21  and  C_24
REMARK    9  A    between atoms: C_27  and  S_30
REMARK   10  A    between atoms: S_30  and  N_33
REMARK                            x       y       z     vdW  Elec       q    Type
REMARK                         _______ _______ _______ _____ _____    ______ ____
ROOT
ATOM      1  C   UNL     1      -4.199  -7.754  -0.013  0.00  0.00    +0.020 C 
ENDROOT
BRANCH   1  11
ATOM      2  C   UNL     1      -1.982  -3.083  -0.006  0.00  0.00    +0.001 A 
ATOM      3  C   UNL     1      -1.759  -4.460  -0.009  0.00  0.00    +0.012 A 
ATOM      4  C   UNL     1      -2.824  -5.331  -0.009  0.00  0.00    +0.024 A 
ATOM      5  C   UNL     1      -4.135  -4.848  -0.006  0.00  0.00    +0.039 A 
ATOM      6  C   UNL     1      -4.352  -3.478  -0.003  0.00  0.00    -0.024 A 
ATOM      7  C   UNL     1      -3.289  -2.599   0.003  0.00  0.00    +0.015 A 
ATOM      8  C   UNL     1      -5.843  -3.227  -0.001  0.00  0.00    +0.056 C 
ATOM      9  C   UNL     1      -6.472  -4.630  -0.003  0.00  0.00    +0.118 C 
ATOM     10  N   UNL     1      -5.339  -5.559  -0.006  0.00  0.00    -0.272 N 
ATOM     11  C   UNL     1      -5.443  -6.903  -0.009  0.00  0.00    +0.203 C 
ATOM     12  O   UNL     1      -6.536  -7.427  -0.009  0.00  0.00    -0.277 OA
BRANCH   2  16
ATOM     13  C   UNL     1      -0.018   1.503   0.010  0.00  0.00    +0.073 C 
ATOM     14  C   UNL     1       0.002  -0.004   0.002  0.00  0.00    +0.076 A 
ATOM     15  N   UNL     1      -1.014  -0.828   0.002  0.00  0.00    -0.244 NA
ATOM     16  C   UNL     1      -0.837  -2.141  -0.006  0.00  0.00    +0.078 A 
ATOM     17  C   UNL     1       0.460  -2.583  -0.015  0.00  0.00    +0.075 A 
ATOM     18  S   UNL     1       1.337  -1.028  -0.017  0.00  0.00    -0.080 S 
ENDBRANCH   2  16
ENDBRANCH   1  11
BRANCH   1  19
ATOM     19  N   UNL     1      -4.577  -9.174  -0.015  0.00  0.00    +0.388 N 
ATOM     20  C   UNL     1      -5.268  -9.499   1.240  0.00  0.00    -0.095 C 
ATOM     21  H   UNL     1      -5.192  -9.356  -0.794  0.00  0.00    -0.081 HD
BRANCH  19  22
ATOM     22  C   UNL     1      -3.370 -10.002  -0.140  0.00  0.00    -0.041 C 
ATOM     23  C   UNL     1      -3.764 -11.480  -0.142  0.00  0.00    -0.008 C 
BRANCH  22  24
ATOM     24  C   UNL     1      -2.662  -9.668  -1.427  0.00  0.00    -0.061 A 
ATOM     25  C   UNL     1      -3.393  -9.430  -2.576  0.00  0.00    +0.004 A 
ATOM     26  C   UNL     1      -2.744  -9.124  -3.757  0.00  0.00    +0.029 A 
ATOM     27  C   UNL     1      -1.363  -9.055  -3.790  0.00  0.00    +0.105 A 
ATOM     28  C   UNL     1      -0.633  -9.293  -2.641  0.00  0.00    +0.029 A 
ATOM     29  C   UNL     1      -1.282  -9.595  -1.458  0.00  0.00    +0.004 A 
BRANCH  27  30
ATOM     30  S   UNL     1      -0.536  -8.666  -5.296  0.00  0.00    +0.056 S 
ATOM     31  O   UNL     1       0.777  -9.200  -5.187  0.00  0.00    -0.153 OA
ATOM     32  O   UNL     1      -1.419  -9.025  -6.349  0.00  0.00    -0.153 OA
BRANCH  30  33
ATOM     33  N   UNL     1      -0.373  -7.019  -5.354  0.00  0.00    -0.204 NA
ATOM     34  H   UNL     1      -0.714  -6.473  -4.628  0.00  0.00    +0.144 HD
ATOM     35  H   UNL     1       0.062  -6.601  -6.113  0.00  0.00    +0.144 HD
ENDBRANCH  30  33
ENDBRANCH  27  30
ENDBRANCH  22  24
ENDBRANCH  19  22
ENDBRANCH   1  19
TORSDOF 7
