REMARK  Name = ZINC13656043
REMARK  7 active torsions:
REMARK  status: ('A' for Active; 'I' for Inactive)
REMARK    1  A    between atoms: C_1  and  C_2
REMARK    2  A    between atoms: C_5  and  C_7
REMARK    3  A    between atoms: C_14  and  O_29
REMARK    4  A    between atoms: C_15  and  C_18
REMARK    5  A    between atoms: C_18  and  N_19
REMARK    6  A    between atoms: C_21  and  C_28
REMARK    7  A    between atoms: C_24  and  C_27
REMARK                            x       y       z     vdW  Elec       q    Type
REMARK                         _______ _______ _______ _____ _____    ______ ____
ROOT
ATOM      1  C   UNL     1       1.631  -3.173  -0.025  0.00  0.00    +0.096 C 
ATOM      2  C   UNL     1       2.980  -2.968  -0.030  0.00  0.00    +0.179 C 
ATOM      3  C   UNL     1       3.974  -3.984  -0.047  0.00  0.00    +0.232 C 
ATOM      4  O   UNL     1       3.799  -5.191  -0.059  0.00  0.00    -0.283 OA
ATOM      5  C   UNL     1       5.260  -3.265  -0.047  0.00  0.00    +0.068 A 
ATOM      6  C   UNL     1       6.592  -3.679  -0.059  0.00  0.00    +0.019 A 
ATOM      7  C   UNL     1       7.593  -2.749  -0.054  0.00  0.00    +0.046 A 
ATOM      8  C   UNL     1       7.288  -1.391  -0.037  0.00  0.00    +0.122 A 
ATOM      9  C   UNL     1       5.969  -0.965  -0.025  0.00  0.00    +0.020 A 
ATOM     10  C   UNL     1       4.941  -1.897  -0.030  0.00  0.00    +0.144 A 
ATOM     11  O   UNL     1       3.597  -1.764  -0.027  0.00  0.00    -0.451 OA
ENDROOT
BRANCH   1  16
ATOM     12  C   UNL     1      -0.018   1.503   0.010  0.00  0.00    +0.086 C 
ATOM     13  C   UNL     1       0.002  -0.004   0.002  0.00  0.00    +0.103 A 
ATOM     14  C   UNL     1      -1.088  -0.803   0.003  0.00  0.00    +0.045 A 
ATOM     15  C   UNL     1      -0.631  -2.129  -0.007  0.00  0.00    +0.049 A 
ATOM     16  C   UNL     1       0.749  -2.069  -0.014  0.00  0.00    +0.132 A 
ATOM     17  O   UNL     1       1.104  -0.767  -0.013  0.00  0.00    -0.460 OA
ENDBRANCH   1  16
BRANCH   8  18
ATOM     18  O   UNL     1       8.291  -0.476  -0.033  0.00  0.00    -0.506 OA
ATOM     19  H   UNL     1       8.576  -0.201  -0.915  0.00  0.00    +0.292 HD
ENDBRANCH   8  18
BRANCH   9  20
ATOM     20  C   UNL     1       5.652   0.508  -0.006  0.00  0.00    -0.036 C 
BRANCH  20  21
ATOM     21  N   UNL     1       5.542   1.003  -1.385  0.00  0.00    +0.383 N 
ATOM     22  C   UNL     1       6.844   0.886  -2.051  0.00  0.00    -0.075 C 
ATOM     23  C   UNL     1       6.716   1.324  -3.512  0.00  0.00    -0.031 C 
ATOM     24  C   UNL     1       6.244   2.780  -3.563  0.00  0.00    +0.003 C 
ATOM     25  C   UNL     1       4.921   2.904  -2.801  0.00  0.00    -0.031 C 
ATOM     26  C   UNL     1       5.116   2.408  -1.367  0.00  0.00    -0.075 C 
ATOM     27  C   UNL     1       4.479   4.369  -2.780  0.00  0.00    +0.005 C 
ATOM     28  C   UNL     1       8.075   1.202  -4.203  0.00  0.00    +0.005 C 
ATOM     29  H   UNL     1       4.860   0.452  -1.885  0.00  0.00    -0.081 HD
ENDBRANCH  20  21
ENDBRANCH   9  20
TORSDOF 4
