REMARK  Name = ZINC20234209
REMARK  10 active torsions:
REMARK  status: ('A' for Active; 'I' for Inactive)
REMARK    1  A    between atoms: C_1  and  C_2
REMARK    2  A    between atoms: C_5  and  S_8
REMARK    3  A    between atoms: S_8  and  C_9
REMARK    4  A    between atoms: C_9  and  C_10
REMARK    5  A    between atoms: C_10  and  N_11
REMARK    6  A    between atoms: C_12  and  C_14
REMARK    7  A    between atoms: C_14  and  N_15
REMARK    8  A    between atoms: N_15  and  C_16
REMARK    9  A    between atoms: N_15  and  S_24
REMARK   10  A    between atoms: S_24  and  C_27
REMARK                            x       y       z     vdW  Elec       q    Type
REMARK                         _______ _______ _______ _____ _____    ______ ____
ROOT
ATOM      1  N   UNL     1      -0.810   1.899   1.440  0.00  0.00    -0.194 N 
ENDROOT
BRANCH   1   2
ATOM      2  C   UNL     1      -1.661   0.986   2.067  0.00  0.00    +0.055 A 
ATOM      3  C   UNL     1      -2.195  -0.076   1.348  0.00  0.00    +0.044 A 
ATOM      4  C   UNL     1      -3.032  -0.981   1.972  0.00  0.00    +0.044 A 
ATOM      5  C   UNL     1      -3.348  -0.824   3.310  0.00  0.00    +0.040 A 
ATOM      6  C   UNL     1      -2.822   0.236   4.028  0.00  0.00    +0.044 A 
ATOM      7  C   UNL     1      -1.980   1.141   3.410  0.00  0.00    +0.044 A 
ATOM      8 CL   UNL     1      -3.221   0.429   5.707  0.00  0.00    -0.083 Cl
ATOM      9 CL   UNL     1      -3.694  -2.312   1.075  0.00  0.00    -0.083 Cl
ENDBRANCH   1   2
BRANCH   1  10
ATOM     10  S   UNL     1       0.619   1.381   0.781  0.00  0.00    +0.075 S 
ATOM     11  O   UNL     1       0.992   0.209   1.492  0.00  0.00    -0.150 OA
ATOM     12  O   UNL     1       1.462   2.522   0.695  0.00  0.00    -0.150 OA
BRANCH  10  13
ATOM     13  C   UNL     1       0.278   0.880  -0.873  0.00  0.00    +0.109 A 
ATOM     14  C   UNL     1       0.030  -0.450  -1.155  0.00  0.00    +0.029 A 
ATOM     15  C   UNL     1      -0.243  -0.842  -2.453  0.00  0.00    +0.002 A 
ATOM     16  C   UNL     1      -0.256   0.095  -3.470  0.00  0.00    +0.000 A 
ATOM     17  C   UNL     1      -0.001   1.424  -3.188  0.00  0.00    +0.002 A 
ATOM     18  C   UNL     1       0.265   1.817  -1.890  0.00  0.00    +0.029 A 
ENDBRANCH  10  13
ENDBRANCH   1  10
BRANCH   1  19
ATOM     19  C   UNL     1      -1.182   3.314   1.365  0.00  0.00    +0.227 C 
BRANCH  19  21
ATOM     20  N   UNL     1      -2.536   4.772  -0.104  0.00  0.00    -0.313 N 
ATOM     21  C   UNL     1      -2.068   3.537   0.167  0.00  0.00    +0.232 C 
ATOM     22  O   UNL     1      -2.361   2.606  -0.553  0.00  0.00    -0.274 OA
ATOM     23  H   UNL     1      -2.271   5.616   0.549  0.00  0.00    +0.149 HD
BRANCH  20  24
ATOM     24  C   UNL     1      -3.398   4.989  -1.268  0.00  0.00    +0.115 C 
BRANCH  24  25
ATOM     25  C   UNL     1      -3.786   6.467  -1.347  0.00  0.00    +0.093 C 
BRANCH  25  26
ATOM     26  S   UNL     1      -4.854   6.736  -2.789  0.00  0.00    -0.124 S 
BRANCH  26  31
ATOM     27  C   UNL     1      -6.070  12.646  -2.622  0.00  0.00    +0.044 C 
ATOM     28  C   UNL     1      -5.766  11.171  -2.664  0.00  0.00    -0.050 A 
ATOM     29  C   UNL     1      -6.294  10.386  -3.673  0.00  0.00    +0.004 A 
ATOM     30  C   UNL     1      -6.018   9.034  -3.714  0.00  0.00    +0.015 A 
ATOM     31  C   UNL     1      -5.209   8.461  -2.740  0.00  0.00    +0.008 A 
ATOM     32  C   UNL     1      -4.685   9.252  -1.724  0.00  0.00    +0.015 A 
ATOM     33  C   UNL     1      -4.960  10.605  -1.693  0.00  0.00    +0.004 A 
ENDBRANCH  26  31
ENDBRANCH  25  26
ENDBRANCH  24  25
ENDBRANCH  20  24
ENDBRANCH  19  21
ENDBRANCH   1  19
TORSDOF 9
