REMARK  Name = ZINC38894020
REMARK  8 active torsions:
REMARK  status: ('A' for Active; 'I' for Inactive)
REMARK    1  A    between atoms: C_1  and  O_2
REMARK    2  A    between atoms: O_2  and  C_3
REMARK    3  A    between atoms: C_3  and  C_5
REMARK    4  A    between atoms: C_9  and  N_10
REMARK    5  A    between atoms: C_11  and  C_13
REMARK    6  A    between atoms: N_18  and  C_20
REMARK    7  A    between atoms: C_20  and  C_21
REMARK    8  A    between atoms: C_23  and  C_26
REMARK                            x       y       z     vdW  Elec       q    Type
REMARK                         _______ _______ _______ _____ _____    ______ ____
ROOT
ATOM      1  C   UNL     1      -3.544  -2.704   3.624  0.00  0.00    +0.059 C 
ATOM      2  C   UNL     1      -3.137  -1.787   4.781  0.00  0.00    +0.009 C 
ATOM      3  C   UNL     1      -4.394  -1.337   5.530  0.00  0.00    -0.018 C 
ATOM      4  C   UNL     1      -5.164  -2.569   6.010  0.00  0.00    -0.078 C 
ATOM      5  N   UNL     1      -5.548  -3.391   4.856  0.00  0.00    +0.386 N 
ATOM      6  C   UNL     1      -4.346  -3.885   4.173  0.00  0.00    -0.065 C 
ATOM      7  H   UNL     1      -6.092  -2.835   4.214  0.00  0.00    -0.081 HD
ENDROOT
BRANCH   1   9
ATOM      8  N   UNL     1      -1.446  -2.345   2.363  0.00  0.00    -0.279 N 
ATOM      9  C   UNL     1      -2.309  -3.214   2.927  0.00  0.00    +0.219 C 
ATOM     10  O   UNL     1      -2.092  -4.406   2.873  0.00  0.00    -0.275 OA
ATOM     11  H   UNL     1      -1.620  -1.392   2.406  0.00  0.00    +0.155 HD
BRANCH   8  16
ATOM     12  C   UNL     1       0.680  -2.076   1.092  0.00  0.00    +0.091 A 
ATOM     13  C   UNL     1       1.781  -2.814   0.496  0.00  0.00    -0.021 A 
ATOM     14  C   UNL     1       1.687  -4.153   0.635  0.00  0.00    -0.004 A 
ATOM     15  S   UNL     1       0.182  -4.408   1.529  0.00  0.00    -0.077 S 
ATOM     16  C   UNL     1      -0.310  -2.815   1.722  0.00  0.00    +0.086 A 
ATOM     17  C   UNL     1       2.655  -5.180   0.133  0.00  0.00    +0.043 C 
ATOM     18  C   UNL     1       3.582  -4.508  -0.892  0.00  0.00    +0.005 C 
ATOM     19  C   UNL     1       4.097  -3.191  -0.305  0.00  0.00    +0.005 C 
ATOM     20  C   UNL     1       2.956  -2.174  -0.228  0.00  0.00    +0.037 C 
BRANCH  12  21
ATOM     21  C   UNL     1       0.621  -0.614   1.034  0.00  0.00    +0.342 C 
ATOM     22  O   UNL     1       1.131   0.051   1.916  0.00  0.00    -0.245 OA
BRANCH  21  24
ATOM     23  C   UNL     1      -0.017   1.425   0.010  0.00  0.00    +0.280 C 
ATOM     24  O   UNL     1       0.002  -0.004   0.002  0.00  0.00    -0.464 OA
ENDBRANCH  21  24
ENDBRANCH  12  21
ENDBRANCH   8  16
ENDBRANCH   1   9
BRANCH   5  25
ATOM     25  C   UNL     1      -6.352  -4.531   5.314  0.00  0.00    +0.022 C 
BRANCH  25  26
ATOM     26  C   UNL     1      -7.649  -4.030   5.896  0.00  0.00    +0.211 A 
ATOM     27  N   UNL     1      -8.757  -3.845   5.238  0.00  0.00    -0.193 NA
ATOM     28  C   UNL     1      -9.714  -3.390   6.066  0.00  0.00    +0.202 A 
ATOM     29  N   UNL     1      -9.210  -3.283   7.271  0.00  0.00    -0.056 NA
ATOM     30  O   UNL     1      -7.857  -3.704   7.178  0.00  0.00    -0.340 OA
BRANCH  28  31
ATOM     31  C   UNL     1     -11.110  -3.064   5.680  0.00  0.00    +0.023 A 
ATOM     32  C   UNL     1     -11.526  -3.228   4.361  0.00  0.00    +0.014 A 
ATOM     33  C   UNL     1     -12.825  -2.925   4.006  0.00  0.00    +0.039 A 
ATOM     34  C   UNL     1     -13.714  -2.457   4.961  0.00  0.00    +0.123 A 
ATOM     35  C   UNL     1     -13.304  -2.292   6.274  0.00  0.00    +0.039 A 
ATOM     36  C   UNL     1     -12.009  -2.599   6.638  0.00  0.00    +0.014 A 
ATOM     37  F   UNL     1     -14.984  -2.161   4.609  0.00  0.00    -0.205 F 
ENDBRANCH  28  31
ENDBRANCH  25  26
ENDBRANCH   5  25
TORSDOF 7
