REMARK  Name = ZINC13065294
REMARK  15 active torsions:
REMARK  status: ('A' for Active; 'I' for Inactive)
REMARK    1  A    between atoms: C_1  and  C_2
REMARK    2  A    between atoms: C_2  and  C_3
REMARK    3  A    between atoms: C_3  and  C_5
REMARK    4  A    between atoms: C_3  and  N_69
REMARK    5  A    between atoms: N_9  and  C_10
REMARK    6  A    between atoms: C_10  and  C_11
REMARK    7  A    between atoms: C_11  and  O_12
REMARK    8  A    between atoms: O_12  and  C_13
REMARK    9  A    between atoms: C_14  and  C_15
REMARK   10  A    between atoms: C_14  and  N_69
REMARK   11  A    between atoms: C_15  and  C_16
REMARK   12  A    between atoms: C_22  and  C_23
REMARK   13  A    between atoms: C_22  and  N_69
REMARK   14  A    between atoms: C_26  and  C_36
REMARK   15  A    between atoms: C_29  and  C_35
REMARK                            x       y       z     vdW  Elec       q    Type
REMARK                         _______ _______ _______ _____ _____    ______ ____
ROOT
ATOM      1  N   UNL     1      -1.618  -0.432  -0.259  0.00  0.00    +0.389 N 
ATOM      2  H   UNL     1      -2.036  -0.027  -1.105  0.00  0.00    -0.080 HD
ENDROOT
BRANCH   1   3
ATOM      3  C   UNL     1      -1.788  -1.900  -0.295  0.00  0.00    +0.003 C 
BRANCH   3   4
ATOM      4  C   UNL     1      -1.321  -2.518   0.997  0.00  0.00    +0.138 A 
ATOM      5  N   UNL     1      -1.553  -2.072   2.207  0.00  0.00    -0.115 NA
ATOM      6  N   UNL     1      -0.988  -2.874   3.043  0.00  0.00    -0.023 NA
ATOM      7  N   UNL     1      -0.401  -3.820   2.396  0.00  0.00    -0.044 NA
ATOM      8  N   UNL     1      -0.588  -3.639   1.133  0.00  0.00    -0.229 N 
BRANCH   8   9
ATOM      9  C   UNL     1      -0.092  -4.491   0.049  0.00  0.00    +0.175 C 
BRANCH   9  10
ATOM     10  C   UNL     1       1.344  -4.092  -0.297  0.00  0.00    +0.183 C 
BRANCH  10  11
ATOM     11  O   UNL     1       1.796  -4.861  -1.413  0.00  0.00    -0.381 OA
ATOM     12  C   UNL     1       3.134  -4.565  -1.820  0.00  0.00    +0.194 C 
ENDBRANCH  10  11
ENDBRANCH   9  10
ENDBRANCH   8   9
ENDBRANCH   3   4
BRANCH   3  14
ATOM     13  C   UNL     1      -3.724  -1.664  -1.858  0.00  0.00    +0.002 C 
ATOM     14  C   UNL     1      -3.269  -2.221  -0.507  0.00  0.00    -0.011 C 
ENDBRANCH   3  14
ENDBRANCH   1   3
BRANCH   1  15
ATOM     15  C   UNL     1      -0.180  -0.091  -0.223  0.00  0.00    -0.073 C 
BRANCH  15  16
ATOM     16  C   UNL     1       0.411  -0.314  -1.617  0.00  0.00    +0.016 C 
BRANCH  16  17
ATOM     17  C   UNL     1       1.843   0.156  -1.635  0.00  0.00    -0.049 A 
ATOM     18  C   UNL     1       2.132   1.484  -1.891  0.00  0.00    +0.003 A 
ATOM     19  C   UNL     1       3.445   1.916  -1.902  0.00  0.00    +0.000 A 
ATOM     20  C   UNL     1       4.470   1.018  -1.669  0.00  0.00    +0.000 A 
ATOM     21  C   UNL     1       4.182  -0.310  -1.419  0.00  0.00    +0.000 A 
ATOM     22  C   UNL     1       2.868  -0.741  -1.402  0.00  0.00    +0.003 A 
ENDBRANCH  16  17
ENDBRANCH  15  16
ENDBRANCH   1  15
BRANCH   1  23
ATOM     23  C   UNL     1      -2.299   0.126   0.928  0.00  0.00    -0.037 C 
BRANCH  23  24
ATOM     24  C   UNL     1      -2.530   1.599   0.704  0.00  0.00    +0.001 A 
ATOM     25  C   UNL     1      -3.706   2.025   0.179  0.00  0.00    +0.017 A 
ATOM     26  C   UNL     1      -3.901   3.462  -0.022  0.00  0.00    +0.002 A 
ATOM     27  C   UNL     1      -5.094   3.963  -0.553  0.00  0.00    -0.041 A 
ATOM     28  C   UNL     1      -5.243   5.309  -0.732  0.00  0.00    +0.004 A 
ATOM     29  C   UNL     1      -4.221   6.185  -0.391  0.00  0.00    +0.005 A 
ATOM     30  C   UNL     1      -3.037   5.714   0.134  0.00  0.00    -0.026 A 
ATOM     31  C   UNL     1      -2.862   4.347   0.326  0.00  0.00    +0.052 A 
ATOM     32  N   UNL     1      -1.689   3.848   0.850  0.00  0.00    -0.322 N 
ATOM     33  H   UNL     1      -0.975   4.459   1.089  0.00  0.00    +0.169 HD
ATOM     34  C   UNL     1      -1.521   2.527   1.036  0.00  0.00    +0.251 A 
ATOM     35  O   UNL     1      -0.470   2.122   1.501  0.00  0.00    -0.268 OA
ATOM     36  C   UNL     1      -1.936   6.676   0.500  0.00  0.00    +0.046 C 
ATOM     37  C   UNL     1      -6.210   3.022  -0.927  0.00  0.00    +0.044 C 
ENDBRANCH  23  24
ENDBRANCH   1  23
TORSDOF 11
