REMARK  Name = ZINC10353140
REMARK  8 active torsions:
REMARK  status: ('A' for Active; 'I' for Inactive)
REMARK    1  A    between atoms: C_1  and  C_2
REMARK    2  A    between atoms: C_8  and  C_10
REMARK    3  A    between atoms: C_11  and  C_34
REMARK    4  A    between atoms: N_12  and  C_28
REMARK    5  A    between atoms: C_16  and  C_18
REMARK    6  A    between atoms: C_23  and  C_24
REMARK    7  A    between atoms: C_24  and  O_26
REMARK    8  A    between atoms: O_26  and  C_27
REMARK                            x       y       z     vdW  Elec       q    Type
REMARK                         _______ _______ _______ _____ _____    ______ ____
ROOT
ATOM      1  C   UNL     1       0.362   5.678  -1.286  0.00  0.00    +0.056 C 
ATOM      2  C   UNL     1      -0.207   6.723  -1.924  0.00  0.00    +0.025 C 
ATOM      3  N   UNL     1      -1.429   7.201  -1.541  0.00  0.00    -0.255 N 
ATOM      4  C   UNL     1      -2.144   6.689  -0.531  0.00  0.00    +0.142 C 
ATOM      5  S   UNL     1      -3.663   7.383  -0.156  0.00  0.00    -0.018 S 
ATOM      6  N   UNL     1      -1.706   5.645   0.198  0.00  0.00    -0.315 N 
ATOM      7  C   UNL     1      -0.399   5.055  -0.134  0.00  0.00    +0.140 C 
ATOM      8  C   UNL     1       0.515   7.372  -3.076  0.00  0.00    +0.062 C 
ATOM      9  H   UNL     1      -2.241   5.289   0.925  0.00  0.00    +0.149 HD
ENDROOT
BRANCH   1  17
ATOM     10  C   UNL     1       6.749   3.796  -3.024  0.00  0.00    +0.089 C 
ATOM     11  C   UNL     1       5.504   3.633  -2.190  0.00  0.00    +0.136 A 
ATOM     12  C   UNL     1       4.379   4.380  -2.264  0.00  0.00    +0.091 A 
ATOM     13  C   UNL     1       3.529   3.817  -1.275  0.00  0.00    +0.168 A 
ATOM     14  N   UNL     1       4.202   2.838  -0.729  0.00  0.00    -0.063 NA
ATOM     15  O   UNL     1       5.296   2.720  -1.230  0.00  0.00    -0.358 OA
ATOM     16  N   UNL     1       2.238   4.230  -0.947  0.00  0.00    -0.264 N 
ATOM     17  C   UNL     1       1.628   5.181  -1.682  0.00  0.00    +0.249 C 
ATOM     18  O   UNL     1       2.165   5.612  -2.686  0.00  0.00    -0.270 OA
ATOM     19  H   UNL     1       1.779   3.833  -0.191  0.00  0.00    +0.157 HD
ENDBRANCH   1  17
BRANCH   7  20
ATOM     20  C   UNL     1      -0.614   3.598  -0.452  0.00  0.00    -0.009 A 
ATOM     21  C   UNL     1      -0.493   3.149  -1.751  0.00  0.00    +0.006 A 
ATOM     22  C   UNL     1      -0.684   1.811  -2.045  0.00  0.00    +0.000 A 
ATOM     23  C   UNL     1      -1.008   0.915  -1.041  0.00  0.00    +0.001 A 
ATOM     24  C   UNL     1      -1.132   1.350   0.262  0.00  0.00    +0.015 A 
ATOM     25  C   UNL     1      -0.935   2.699   0.566  0.00  0.00    +0.064 A 
BRANCH  25  26
ATOM     26  C   UNL     1      -1.065   3.172   1.960  0.00  0.00    +0.339 C 
ATOM     27  O   UNL     1      -0.792   4.323   2.238  0.00  0.00    -0.245 OA
BRANCH  26  28
ATOM     28  O   UNL     1      -1.486   2.328   2.921  0.00  0.00    -0.464 OA
ATOM     29  C   UNL     1      -1.700   2.888   4.244  0.00  0.00    +0.280 C 
ENDBRANCH  26  28
ENDBRANCH  25  26
ENDBRANCH   7  20
BRANCH   3  30
ATOM     30  C   UNL     1      -1.964   8.288  -2.245  0.00  0.00    +0.040 A 
ATOM     31  C   UNL     1      -2.057   9.533  -1.637  0.00  0.00    +0.024 A 
ATOM     32  C   UNL     1      -2.578  10.604  -2.336  0.00  0.00    +0.002 A 
ATOM     33  C   UNL     1      -3.019  10.434  -3.635  0.00  0.00    +0.000 A 
ATOM     34  C   UNL     1      -2.934   9.195  -4.242  0.00  0.00    +0.002 A 
ATOM     35  C   UNL     1      -2.407   8.121  -3.550  0.00  0.00    +0.024 A 
ENDBRANCH   3  30
TORSDOF 5
