REMARK  Name = ZINC39659000
REMARK  7 active torsions:
REMARK  status: ('A' for Active; 'I' for Inactive)
REMARK    1  A    between atoms: C_1  and  C_2
REMARK    2  A    between atoms: C_2  and  C_35
REMARK    3  A    between atoms: C_5  and  C_8
REMARK    4  A    between atoms: C_8  and  N_9
REMARK    5  A    between atoms: C_10  and  C_12
REMARK    6  A    between atoms: C_23  and  C_25
REMARK    7  A    between atoms: C_28  and  C_31
REMARK                            x       y       z     vdW  Elec       q    Type
REMARK                         _______ _______ _______ _____ _____    ______ ____
ROOT
ATOM      1  C   UNL     1       3.285  -2.823   4.687  0.00  0.00    +0.100 C 
ATOM      2  C   UNL     1       4.422  -1.805   4.444  0.00  0.00    +0.121 C 
ATOM      3  N   UNL     1       5.526  -2.260   5.321  0.00  0.00    -0.296 N 
ATOM      4  C   UNL     1       5.493  -3.738   5.219  0.00  0.00    +0.115 C 
ATOM      5  C   UNL     1       3.993  -4.091   5.194  0.00  0.00    -0.004 C 
ATOM      6  C   UNL     1       3.740  -5.255   4.241  0.00  0.00    -0.010 C 
ATOM      7  C   UNL     1       4.404  -6.517   4.797  0.00  0.00    -0.082 C 
ATOM      8  N   UNL     1       3.855  -6.818   6.124  0.00  0.00    +0.379 N 
ATOM      9  C   UNL     1       4.183  -5.735   7.059  0.00  0.00    -0.082 C 
ATOM     10  C   UNL     1       3.509  -4.439   6.599  0.00  0.00    -0.010 C 
ATOM     11  C   UNL     1       6.369  -1.500   6.049  0.00  0.00    +0.247 C 
ATOM     12  O   UNL     1       6.189  -0.301   6.132  0.00  0.00    -0.270 OA
ATOM     13  H   UNL     1       2.852  -6.911   6.058  0.00  0.00    -0.086 HD
ATOM     14  H   UNL     1       4.249  -7.683   6.462  0.00  0.00    -0.086 HD
ENDROOT
BRANCH  11  15
ATOM     15  C   UNL     1       7.513  -2.126   6.745  0.00  0.00    +0.037 A 
ATOM     16  C   UNL     1       7.987  -3.373   6.334  0.00  0.00    +0.013 A 
ATOM     17  C   UNL     1       9.055  -3.951   6.988  0.00  0.00    +0.013 A 
ATOM     18  C   UNL     1       9.656  -3.298   8.050  0.00  0.00    +0.055 A 
ATOM     19  C   UNL     1       9.191  -2.062   8.463  0.00  0.00    +0.013 A 
ATOM     20  C   UNL     1       8.128  -1.470   7.813  0.00  0.00    +0.013 A 
BRANCH  18  21
ATOM     21  C   UNL     1      10.823  -3.936   8.760  0.00  0.00    +0.417 C 
ATOM     22  F   UNL     1      12.016  -3.542   8.144  0.00  0.00    -0.166 F 
ATOM     23  F   UNL     1      10.832  -3.530  10.098  0.00  0.00    -0.166 F 
ATOM     24  F   UNL     1      10.703  -5.329   8.695  0.00  0.00    -0.166 F 
ENDBRANCH  18  21
ENDBRANCH  11  15
BRANCH   1  26
ATOM     25  N   UNL     1       1.247  -3.438   3.428  0.00  0.00    -0.312 N 
ATOM     26  C   UNL     1       2.554  -3.109   3.401  0.00  0.00    +0.218 C 
ATOM     27  O   UNL     1       3.140  -3.044   2.342  0.00  0.00    -0.275 OA
ATOM     28  H   UNL     1       0.777  -3.490   4.276  0.00  0.00    +0.149 HD
BRANCH  25  29
ATOM     29  C   UNL     1       0.535  -3.717   2.178  0.00  0.00    +0.138 C 
BRANCH  29  34
ATOM     30  C   UNL     1      -4.019  -2.963   3.405  0.00  0.00    +0.074 C 
ATOM     31  C   UNL     1      -2.947  -2.949   2.314  0.00  0.00    +0.165 C 
ATOM     32  O   UNL     1      -3.040  -4.151   1.530  0.00  0.00    -0.347 OA
ATOM     33  C   UNL     1      -1.671  -4.483   1.198  0.00  0.00    +0.196 C 
ATOM     34  C   UNL     1      -0.923  -4.062   2.487  0.00  0.00    +0.164 C 
ATOM     35  O   UNL     1      -1.647  -2.891   2.917  0.00  0.00    -0.342 OA
ATOM     36  C   UNL     1      -3.149  -1.732   1.410  0.00  0.00    +0.074 C 
ENDBRANCH  29  34
ENDBRANCH  25  29
ENDBRANCH   1  26
TORSDOF 5
