REMARK  Name = ZINC01332778
REMARK  8 active torsions:
REMARK  status: ('A' for Active; 'I' for Inactive)
REMARK    1  A    between atoms: C_1  and  C_2
REMARK    2  A    between atoms: C_5  and  O_29
REMARK    3  A    between atoms: C_6  and  N_8
REMARK    4  A    between atoms: C_9  and  C_11
REMARK    5  A    between atoms: C_11  and  S_12
REMARK    6  A    between atoms: S_12  and  C_13
REMARK    7  A    between atoms: C_20  and  C_22
REMARK    8  A    between atoms: O_29  and  C_30
REMARK                            x       y       z     vdW  Elec       q    Type
REMARK                         _______ _______ _______ _____ _____    ______ ____
ROOT
ATOM      1  C   UNL     1       0.879   4.418  -0.838  0.00  0.00    +0.109 A 
ATOM      2  C   UNL     1       1.772   3.385  -0.427  0.00  0.00    +0.043 A 
ATOM      3  C   UNL     1       1.423   2.030  -0.034  0.00  0.00    -0.025 A 
ATOM      4  C   UNL     1       2.446   1.218   0.319  0.00  0.00    -0.004 A 
ATOM      5  S   UNL     1       3.909   2.210   0.148  0.00  0.00    -0.073 S 
ATOM      6  C   UNL     1       3.152   3.707  -0.396  0.00  0.00    +0.113 A 
ATOM      7  N   UNL     1       3.627   4.892  -0.723  0.00  0.00    -0.225 NA
ATOM      8  C   UNL     1       2.743   5.809  -1.097  0.00  0.00    +0.135 A 
ATOM      9  N   UNL     1       1.445   5.583  -1.151  0.00  0.00    -0.225 NA
ATOM     10  C   UNL     1       2.360  -0.210   0.760  0.00  0.00    +0.043 C 
ATOM     11  C   UNL     1       0.899  -0.525   1.111  0.00  0.00    +0.005 C 
ATOM     12  C   UNL     1       0.002  -0.010  -0.019  0.00  0.00    +0.005 C 
ATOM     13  C   UNL     1      -0.015   1.518  -0.012  0.00  0.00    +0.037 C 
ENDROOT
BRANCH   8  14
ATOM     14  C   UNL     1       3.247   7.176  -1.481  0.00  0.00    +0.057 C 
ATOM     15  C   UNL     1       2.207   8.274  -1.713  0.00  0.00    +0.012 C 
ATOM     16  C   UNL     1       2.954   7.665  -2.901  0.00  0.00    +0.012 C 
ENDBRANCH   8  14
BRANCH   1  17
ATOM     17  S   UNL     1      -0.863   4.170  -0.927  0.00  0.00    -0.096 S 
BRANCH  17  18
ATOM     18  C   UNL     1      -1.385   5.807  -1.494  0.00  0.00    +0.171 C 
BRANCH  18  20
ATOM     19  N   UNL     1      -3.501   6.956  -2.060  0.00  0.00    -0.282 N 
ATOM     20  C   UNL     1      -2.884   5.832  -1.646  0.00  0.00    +0.228 C 
ATOM     21  O   UNL     1      -3.535   4.840  -1.395  0.00  0.00    -0.275 OA
ATOM     22  H   UNL     1      -2.991   7.772  -2.183  0.00  0.00    +0.155 HD
BRANCH  19  28
ATOM     23  C   UNL     1      -7.570   4.462  -3.243  0.00  0.00    +0.044 C 
ATOM     24  C   UNL     1      -6.878   5.753  -2.888  0.00  0.00    -0.048 A 
ATOM     25  C   UNL     1      -7.604   6.927  -2.813  0.00  0.00    +0.007 A 
ATOM     26  C   UNL     1      -6.974   8.114  -2.488  0.00  0.00    +0.048 A 
ATOM     27  C   UNL     1      -5.611   8.130  -2.237  0.00  0.00    +0.141 A 
ATOM     28  C   UNL     1      -4.879   6.947  -2.312  0.00  0.00    +0.076 A 
ATOM     29  C   UNL     1      -5.517   5.760  -2.644  0.00  0.00    +0.030 A 
BRANCH  27  30
ATOM     30  O   UNL     1      -4.990   9.296  -1.918  0.00  0.00    -0.493 OA
ATOM     31  C   UNL     1      -5.804  10.469  -1.859  0.00  0.00    +0.277 C 
ENDBRANCH  27  30
ENDBRANCH  19  28
ENDBRANCH  18  20
ENDBRANCH  17  18
ENDBRANCH   1  17
TORSDOF 6
