REMARK  Name = ZINC63221880
REMARK  13 active torsions:
REMARK  status: ('A' for Active; 'I' for Inactive)
REMARK    1  A    between atoms: C_1  and  C_2
REMARK    2  A    between atoms: C_2  and  C_3
REMARK    3  A    between atoms: C_3  and  C_4
REMARK    4  A    between atoms: C_7  and  C_10
REMARK    5  A    between atoms: C_10  and  C_12
REMARK    6  A    between atoms: C_12  and  C_14
REMARK    7  A    between atoms: C_12  and  S_15
REMARK    8  A    between atoms: S_15  and  C_16
REMARK    9  A    between atoms: C_19  and  C_30
REMARK   10  A    between atoms: N_20  and  C_21
REMARK   11  A    between atoms: C_24  and  O_27
REMARK   12  A    between atoms: O_27  and  C_28
REMARK   13  A    between atoms: C_28  and  C_29
REMARK                            x       y       z     vdW  Elec       q    Type
REMARK                         _______ _______ _______ _____ _____    ______ ____
ROOT
ATOM      1  C   UNL     1      -2.091  -9.394   2.642  0.00  0.00    +0.197 A 
ATOM      2  N   UNL     1      -1.698  -8.805   3.763  0.00  0.00    -0.122 NA
ATOM      3  N   UNL     1      -1.870  -9.595   4.762  0.00  0.00    -0.128 NA
ATOM      4  C   UNL     1      -2.386 -10.742   4.343  0.00  0.00    +0.168 A 
ATOM      5  N   UNL     1      -2.544 -10.636   2.971  0.00  0.00    -0.270 N 
ENDROOT
BRANCH   4   6
ATOM      6  C   UNL     1      -2.713 -11.851   5.138  0.00  0.00    +0.025 C 
ATOM      7  C   UNL     1      -2.570 -11.968   6.521  0.00  0.00    +0.006 A 
ATOM      8  C   UNL     1      -2.087 -11.083   7.508  0.00  0.00    +0.010 A 
ATOM      9  C   UNL     1      -2.062 -11.473   8.809  0.00  0.00    +0.001 A 
ATOM     10  C   UNL     1      -2.506 -12.737   9.202  0.00  0.00    +0.002 A 
ATOM     11  C   UNL     1      -2.983 -13.638   8.308  0.00  0.00    +0.026 A 
ATOM     12  C   UNL     1      -3.040 -13.302   6.930  0.00  0.00    +0.043 A 
ATOM     13  N   UNL     1      -3.454 -13.987   5.882  0.00  0.00    -0.380 N 
ATOM     14  C   UNL     1      -3.302 -13.166   4.677  0.00  0.00    +0.152 C 
ATOM     15  H   UNL     1      -3.807 -14.890   5.905  0.00  0.00    +0.160 HD
ENDBRANCH   4   6
BRANCH   5  16
ATOM     16  C   UNL     1      -3.060 -11.607   2.100  0.00  0.00    +0.051 A 
ATOM     17  C   UNL     1      -4.389 -11.995   2.202  0.00  0.00    +0.030 A 
ATOM     18  C   UNL     1      -4.897 -12.950   1.344  0.00  0.00    +0.047 A 
ATOM     19  C   UNL     1      -4.079 -13.523   0.381  0.00  0.00    +0.121 A 
ATOM     20  C   UNL     1      -2.751 -13.136   0.279  0.00  0.00    +0.047 A 
ATOM     21  C   UNL     1      -2.243 -12.177   1.133  0.00  0.00    +0.030 A 
BRANCH  19  22
ATOM     22  O   UNL     1      -4.580 -14.464  -0.463  0.00  0.00    -0.492 OA
BRANCH  22  23
ATOM     23  C   UNL     1      -3.681 -15.012  -1.430  0.00  0.00    +0.225 C 
ATOM     24  C   UNL     1      -4.418 -16.047  -2.282  0.00  0.00    +0.048 C 
ENDBRANCH  22  23
ENDBRANCH  19  22
ENDBRANCH   5  16
BRANCH   1  25
ATOM     25  S   UNL     1      -2.043  -8.695   1.026  0.00  0.00    -0.075 S 
BRANCH  25  26
ATOM     26  C   UNL     1      -1.340  -7.042   1.282  0.00  0.00    +0.122 C 
ATOM     27  C   UNL     1       0.101  -7.173   1.778  0.00  0.00    +0.028 C 
BRANCH  26  28
ATOM     28  C   UNL     1      -1.357  -6.282  -0.019  0.00  0.00    +0.176 C 
ATOM     29  O   UNL     1      -1.354  -6.882  -1.072  0.00  0.00    -0.291 OA
BRANCH  28  33
ATOM     30  C   UNL     1      -1.413  -2.041   0.005  0.00  0.00    -0.047 A 
ATOM     31  C   UNL     1      -1.409  -2.722  -1.200  0.00  0.00    +0.004 A 
ATOM     32  C   UNL     1      -1.391  -4.101  -1.216  0.00  0.00    +0.011 A 
ATOM     33  C   UNL     1      -1.376  -4.810  -0.011  0.00  0.00    +0.019 A 
ATOM     34  C   UNL     1      -1.379  -4.114   1.202  0.00  0.00    +0.011 A 
ATOM     35  C   UNL     1      -1.392  -2.735   1.201  0.00  0.00    +0.004 A 
BRANCH  30  36
ATOM     36  C   UNL     1      -1.433  -0.534   0.013  0.00  0.00    +0.035 C 
BRANCH  36  38
ATOM     37  C   UNL     1      -0.019   1.526   0.010  0.00  0.00    +0.004 C 
ATOM     38  C   UNL     1       0.002  -0.004   0.002  0.00  0.00    +0.001 C 
ENDBRANCH  36  38
ENDBRANCH  30  36
ENDBRANCH  28  33
ENDBRANCH  26  28
ENDBRANCH  25  26
ENDBRANCH   1  25
TORSDOF 10
