REMARK  Name = ZINC36027207
REMARK  9 active torsions:
REMARK  status: ('A' for Active; 'I' for Inactive)
REMARK    1  A    between atoms: C_1  and  C_2
REMARK    2  A    between atoms: C_2  and  C_3
REMARK    3  A    between atoms: C_3  and  C_5
REMARK    4  A    between atoms: C_3  and  C_6
REMARK    5  A    between atoms: C_6  and  N_7
REMARK    6  A    between atoms: C_10  and  C_32
REMARK    7  A    between atoms: N_16  and  S_19
REMARK    8  A    between atoms: S_19  and  C_22
REMARK    9  A    between atoms: C_26  and  C_28
REMARK                            x       y       z     vdW  Elec       q    Type
REMARK                         _______ _______ _______ _____ _____    ______ ____
ROOT
ATOM      1  N   UNL     1       1.718  -2.527  -2.271  0.00  0.00    -0.313 N 
ATOM      2  C   UNL     1       1.313  -2.856  -3.515  0.00  0.00    +0.200 C 
ATOM      3  O   UNL     1       0.178  -2.778  -3.935  0.00  0.00    -0.277 OA
ATOM      4  C   UNL     1       2.514  -3.339  -4.299  0.00  0.00    +0.016 C 
ATOM      5  N   UNL     1       3.541  -3.638  -3.271  0.00  0.00    +0.401 N 
ATOM      6  C   UNL     1       3.162  -2.747  -2.152  0.00  0.00    +0.006 C 
ATOM      7  C   UNL     1       3.485  -3.426  -0.822  0.00  0.00    +0.023 C 
ATOM      8  C   UNL     1       3.051  -2.516   0.332  0.00  0.00    +0.109 C 
ATOM      9  N   UNL     1       3.671  -1.196   0.151  0.00  0.00    -0.177 NA
ATOM     10  C   UNL     1       3.480  -0.494  -1.125  0.00  0.00    +0.109 C 
ATOM     11  C   UNL     1       3.910  -1.421  -2.267  0.00  0.00    +0.023 C 
ATOM     12  C   UNL     1       2.163  -4.602  -5.088  0.00  0.00    -0.004 C 
ATOM     13  H   UNL     1       3.494  -4.607  -2.992  0.00  0.00    -0.082 HD
ATOM     14  H   UNL     1       4.463  -3.408  -3.610  0.00  0.00    -0.082 HD
ENDROOT
BRANCH   9  15
ATOM     15  S   UNL     1       4.568  -0.513   1.364  0.00  0.00    +0.061 S 
ATOM     16  O   UNL     1       4.546   0.891   1.144  0.00  0.00    -0.153 OA
ATOM     17  O   UNL     1       4.124  -1.101   2.579  0.00  0.00    -0.153 OA
BRANCH  15  18
ATOM     18  C   UNL     1       6.236  -1.032   1.133  0.00  0.00    +0.106 A 
ATOM     19  C   UNL     1       6.687  -2.196   1.727  0.00  0.00    +0.028 A 
ATOM     20  C   UNL     1       7.995  -2.603   1.546  0.00  0.00    +0.002 A 
ATOM     21  C   UNL     1       8.853  -1.846   0.770  0.00  0.00    +0.012 A 
ATOM     22  C   UNL     1       8.403  -0.683   0.175  0.00  0.00    +0.057 A 
ATOM     23  C   UNL     1       7.093  -0.278   0.353  0.00  0.00    +0.041 A 
BRANCH  22  24
ATOM     24  C   UNL     1       9.339   0.142  -0.670  0.00  0.00    +0.417 C 
ATOM     25  F   UNL     1      10.597  -0.468  -0.703  0.00  0.00    -0.166 F 
ATOM     26  F   UNL     1       8.832   0.236  -1.971  0.00  0.00    -0.166 F 
ATOM     27  F   UNL     1       9.456   1.424  -0.121  0.00  0.00    -0.166 F 
ENDBRANCH  22  24
ENDBRANCH  15  18
ENDBRANCH   9  15
BRANCH   1  28
ATOM     28  C   UNL     1       0.849  -2.021  -1.205  0.00  0.00    +0.109 C 
BRANCH  28  29
ATOM     29  C   UNL     1       0.088  -3.187  -0.571  0.00  0.00    +0.003 C 
ATOM     30  C   UNL     1       1.055  -4.342  -0.302  0.00  0.00    +0.009 C 
BRANCH  29  32
ATOM     31  C   UNL     1      -1.403  -3.856   1.319  0.00  0.00    +0.004 C 
ATOM     32  C   UNL     1      -0.540  -2.730   0.747  0.00  0.00    +0.001 C 
ENDBRANCH  29  32
ENDBRANCH  28  29
ENDBRANCH   1  28
TORSDOF 6
