REMARK  Name = ZINC49087597
REMARK  6 active torsions:
REMARK  status: ('A' for Active; 'I' for Inactive)
REMARK    1  A    between atoms: C_1  and  C_2
REMARK    2  A    between atoms: C_2  and  C_4
REMARK    3  A    between atoms: C_2  and  N_10
REMARK    4  A    between atoms: C_13  and  N_17
REMARK    5  A    between atoms: N_17  and  C_18
REMARK    6  A    between atoms: C_18  and  C_19
REMARK                            x       y       z     vdW  Elec       q    Type
REMARK                         _______ _______ _______ _____ _____    ______ ____
ROOT
ATOM      1  N   UNL     1      -4.750  -0.412   3.533  0.00  0.00    -0.251 N 
ATOM      2  C   UNL     1      -5.630  -1.060   2.745  0.00  0.00    +0.309 C 
ATOM      3  O   UNL     1      -5.804  -0.694   1.599  0.00  0.00    -0.252 OA
ATOM      4  N   UNL     1      -6.315  -2.116   3.226  0.00  0.00    -0.285 N 
ATOM      5  C   UNL     1      -6.357  -2.393   4.669  0.00  0.00    +0.110 C 
ATOM      6  C   UNL     1      -7.822  -2.477   5.105  0.00  0.00    +0.027 C 
ATOM      7  C   UNL     1      -8.552  -3.529   4.265  0.00  0.00    +0.021 C 
ATOM      8  C   UNL     1     -10.003  -3.554   4.690  0.00  0.00    -0.023 C 
ATOM      9  C   UNL     1     -10.844  -2.650   4.194  0.00  0.00    -0.004 C 
ATOM     10  C   UNL     1     -10.354  -1.633   3.248  0.00  0.00    -0.004 C 
ATOM     11  C   UNL     1      -9.233  -1.860   2.565  0.00  0.00    -0.021 C 
ATOM     12  C   UNL     1      -8.475  -3.155   2.784  0.00  0.00    +0.036 C 
ATOM     13  C   UNL     1      -7.045  -3.016   2.323  0.00  0.00    +0.117 C 
ENDROOT
BRANCH   1  17
ATOM     14  N   UNL     1      -4.915   3.483   0.690  0.00  0.00    -0.324 N 
ATOM     15  C   UNL     1      -4.372   2.797   1.770  0.00  0.00    +0.098 A 
ATOM     16  C   UNL     1      -4.851   1.534   2.093  0.00  0.00    +0.065 A 
ATOM     17  C   UNL     1      -4.297   0.859   3.175  0.00  0.00    +0.043 A 
ATOM     18  C   UNL     1      -3.278   1.484   3.896  0.00  0.00    +0.041 A 
ATOM     19  C   UNL     1      -2.856   2.739   3.514  0.00  0.00    +0.086 A 
ATOM     20  N   UNL     1      -3.399   3.352   2.478  0.00  0.00    -0.350 N 
ATOM     21  H   UNL     1      -4.581   4.364   0.458  0.00  0.00    +0.148 HD
ATOM     22  H   UNL     1      -3.079   4.233   2.230  0.00  0.00    +0.166 HD
BRANCH  14  24
ATOM     23  C   UNL     1      -7.336   3.162   0.572  0.00  0.00    +0.033 C 
ATOM     24  C   UNL     1      -5.991   2.877  -0.098  0.00  0.00    +0.099 C 
BRANCH  24  25
ATOM     25  C   UNL     1      -5.987   3.461  -1.487  0.00  0.00    -0.028 A 
ATOM     26  C   UNL     1      -5.746   4.810  -1.669  0.00  0.00    +0.005 A 
ATOM     27  C   UNL     1      -5.743   5.345  -2.943  0.00  0.00    +0.000 A 
ATOM     28  C   UNL     1      -5.980   4.532  -4.036  0.00  0.00    +0.000 A 
ATOM     29  C   UNL     1      -6.220   3.183  -3.854  0.00  0.00    +0.000 A 
ATOM     30  C   UNL     1      -6.219   2.646  -2.580  0.00  0.00    +0.005 A 
ENDBRANCH  24  25
ENDBRANCH  14  24
ENDBRANCH   1  17
BRANCH   1  31
ATOM     31  C   UNL     1      -4.270  -1.040   4.766  0.00  0.00    +0.150 C 
BRANCH  31  32
ATOM     32  C   UNL     1      -4.649  -0.184   5.947  0.00  0.00    -0.029 A 
ATOM     33  C   UNL     1      -3.857  -0.179   7.080  0.00  0.00    +0.008 A 
ATOM     34  C   UNL     1      -4.204   0.605   8.163  0.00  0.00    +0.038 A 
ATOM     35  C   UNL     1      -5.346   1.386   8.114  0.00  0.00    +0.123 A 
ATOM     36  C   UNL     1      -6.139   1.380   6.979  0.00  0.00    +0.038 A 
ATOM     37  C   UNL     1      -5.787   0.599   5.895  0.00  0.00    +0.008 A 
ATOM     38  F   UNL     1      -5.687   2.153   9.173  0.00  0.00    -0.205 F 
ENDBRANCH  31  32
ENDBRANCH   1  31
TORSDOF 5
