REMARK  Name = ZINC19758750
REMARK  7 active torsions:
REMARK  status: ('A' for Active; 'I' for Inactive)
REMARK    1  A    between atoms: C_1  and  C_2
REMARK    2  A    between atoms: N_5  and  C_14
REMARK    3  A    between atoms: C_8  and  N_13
REMARK    4  A    between atoms: C_14  and  C_16
REMARK    5  A    between atoms: C_14  and  C_17
REMARK    6  A    between atoms: C_17  and  O_19
REMARK    7  A    between atoms: O_19  and  C_20
REMARK                            x       y       z     vdW  Elec       q    Type
REMARK                         _______ _______ _______ _____ _____    ______ ____
ROOT
ATOM      1  C   UNL     1      -3.196   2.814   3.548  0.00  0.00    +0.053 C 
ATOM      2  C   UNL     1      -1.751   2.898   3.052  0.00  0.00    +0.188 C 
ATOM      3  C   UNL     1      -1.616   2.157   1.715  0.00  0.00    +0.150 C 
ATOM      4  N   UNL     1      -0.239   2.313   1.231  0.00  0.00    -0.311 N 
ATOM      5  C   UNL     1       0.704   1.992   2.212  0.00  0.00    +0.074 A 
ATOM      6  C   UNL     1       1.999   1.680   1.811  0.00  0.00    +0.049 A 
ATOM      7  C   UNL     1       2.963   1.361   2.755  0.00  0.00    +0.027 A 
ATOM      8  C   UNL     1       2.636   1.353   4.105  0.00  0.00    +0.026 A 
ATOM      9  C   UNL     1       1.351   1.660   4.505  0.00  0.00    +0.049 A 
ATOM     10  C   UNL     1       0.382   1.978   3.564  0.00  0.00    +0.142 A 
ATOM     11  O   UNL     1      -0.878   2.267   3.995  0.00  0.00    -0.486 OA
ENDROOT
BRANCH   7  12
ATOM     12  N   UNL     1       4.265   1.048   2.348  0.00  0.00    -0.358 N 
ATOM     13  H   UNL     1       5.030   0.795   3.097  0.00  0.00    +0.142 HD
ATOM     14  H   UNL     1       4.523   1.054   1.279  0.00  0.00    +0.142 HD
ENDBRANCH   7  12
BRANCH   4  15
ATOM     15  C   UNL     1      -0.019   1.526   0.010  0.00  0.00    +0.179 C 
ATOM     16  C   UNL     1      -0.483   0.086   0.241  0.00  0.00    +0.040 C 
BRANCH  15  17
ATOM     17  C   UNL     1      -0.802   2.131  -1.126  0.00  0.00    +0.328 C 
ATOM     18  O   UNL     1      -1.604   3.007  -0.907  0.00  0.00    -0.249 OA
BRANCH  17  19
ATOM     19  O   UNL     1      -0.610   1.695  -2.381  0.00  0.00    -0.460 OA
BRANCH  19  20
ATOM     20  C   UNL     1      -1.399   2.323  -3.425  0.00  0.00    +0.176 C 
ATOM     21  C   UNL     1      -2.709   1.553  -3.606  0.00  0.00    +0.044 C 
ATOM     22  C   UNL     1      -3.541   2.215  -4.707  0.00  0.00    +0.004 C 
ATOM     23  C   UNL     1      -2.755   2.200  -6.019  0.00  0.00    +0.000 C 
ATOM     24  C   UNL     1      -1.445   2.970  -5.838  0.00  0.00    +0.004 C 
ATOM     25  C   UNL     1      -0.613   2.308  -4.737  0.00  0.00    +0.044 C 
ENDBRANCH  19  20
ENDBRANCH  17  19
ENDBRANCH  15  17
ENDBRANCH   4  15
TORSDOF 5
