REMARK  Name = ZINC64175275
REMARK  13 active torsions:
REMARK  status: ('A' for Active; 'I' for Inactive)
REMARK    1  A    between atoms: C_1  and  C_2
REMARK    2  A    between atoms: C_2  and  O_3
REMARK    3  A    between atoms: O_3  and  C_4
REMARK    4  A    between atoms: C_7  and  N_16
REMARK    5  A    between atoms: C_9  and  S_10
REMARK    6  A    between atoms: S_10  and  N_13
REMARK    7  A    between atoms: N_13  and  C_14
REMARK    8  A    between atoms: N_13  and  C_15
REMARK    9  A    between atoms: N_16  and  C_17
REMARK   10  A    between atoms: C_17  and  C_19
REMARK   11  A    between atoms: C_17  and  C_20
REMARK   12  A    between atoms: C_20  and  C_22
REMARK   13  A    between atoms: C_30  and  C_32
REMARK                            x       y       z     vdW  Elec       q    Type
REMARK                         _______ _______ _______ _____ _____    ______ ____
ROOT
ATOM      1  N   UNL     1       1.136  -5.958   1.760  0.00  0.00    -0.334 N 
ATOM      2  H   UNL     1       1.580  -6.333   2.536  0.00  0.00    +0.147 HD
ENDROOT
BRANCH   1   6
ATOM      3  C   UNL     1       0.836  -1.824   1.321  0.00  0.00    +0.147 A 
ATOM      4  C   UNL     1       0.301  -2.664   0.355  0.00  0.00    +0.049 A 
ATOM      5  C   UNL     1       0.400  -4.034   0.500  0.00  0.00    +0.026 A 
ATOM      6  C   UNL     1       1.036  -4.570   1.612  0.00  0.00    +0.030 A 
ATOM      7  C   UNL     1       1.571  -3.729   2.578  0.00  0.00    +0.055 A 
ATOM      8  C   UNL     1       1.476  -2.359   2.429  0.00  0.00    +0.149 A 
BRANCH   8   9
ATOM      9  S   UNL     1       2.162  -1.290   3.651  0.00  0.00    +0.064 S 
ATOM     10  O   UNL     1       1.154  -0.343   3.974  0.00  0.00    -0.153 OA
ATOM     11  O   UNL     1       2.764  -2.127   4.630  0.00  0.00    -0.153 OA
BRANCH   9  12
ATOM     12  N   UNL     1       3.391  -0.447   2.929  0.00  0.00    -0.183 NA
ATOM     13  C   UNL     1       3.115   0.835   2.276  0.00  0.00    +0.131 C 
ATOM     14  C   UNL     1       4.755  -0.982   2.944  0.00  0.00    +0.131 C 
ENDBRANCH   9  12
ENDBRANCH   8   9
BRANCH   3  15
ATOM     15  O   UNL     1       0.738  -0.475   1.178  0.00  0.00    -0.490 OA
BRANCH  15  17
ATOM     16  C   UNL     1       0.055   1.537   0.026  0.00  0.00    +0.048 C 
ATOM     17  C   UNL     1       0.066   0.007   0.013  0.00  0.00    +0.226 C 
ENDBRANCH  15  17
ENDBRANCH   3  15
ENDBRANCH   1   6
BRANCH   1  18
ATOM     18  C   UNL     1       0.569  -6.846   0.741  0.00  0.00    +0.138 C 
ATOM     19  C   UNL     1      -0.916  -7.070   1.028  0.00  0.00    +0.036 C 
BRANCH  18  20
ATOM     20  C   UNL     1       1.292  -8.168   0.769  0.00  0.00    +0.181 C 
ATOM     21  O   UNL     1       1.999  -8.454   1.714  0.00  0.00    -0.290 OA
BRANCH  20  22
ATOM     22  C   UNL     1       1.146  -9.075  -0.302  0.00  0.00    +0.028 C 
ATOM     23  C   UNL     1       0.454  -8.871  -1.482  0.00  0.00    +0.006 A 
ATOM     24  C   UNL     1      -0.287  -7.777  -1.986  0.00  0.00    +0.010 A 
ATOM     25  C   UNL     1      -0.874  -7.853  -3.202  0.00  0.00    +0.001 A 
ATOM     26  C   UNL     1      -0.782  -8.995  -4.013  0.00  0.00    +0.002 A 
ATOM     27  C   UNL     1      -0.099 -10.094  -3.625  0.00  0.00    +0.026 A 
ATOM     28  C   UNL     1       0.571 -10.094  -2.314  0.00  0.00    +0.043 A 
ATOM     29  N   UNL     1       1.282 -10.997  -1.701  0.00  0.00    -0.377 N 
ATOM     30  C   UNL     1       1.719 -10.472  -0.403  0.00  0.00    +0.111 C 
ATOM     31  C   UNL     1       1.174 -11.348   0.726  0.00  0.00    +0.035 C 
ATOM     32  H   UNL     1       1.494 -11.877  -2.050  0.00  0.00    +0.160 HD
ENDBRANCH  20  22
ENDBRANCH  18  20
ENDBRANCH   1  18
TORSDOF 8
