REMARK  Name = ZINC36737137
REMARK  5 active torsions:
REMARK  status: ('A' for Active; 'I' for Inactive)
REMARK    1  A    between atoms: C_1  and  C_2
REMARK    2  A    between atoms: C_4  and  C_8
REMARK    3  A    between atoms: C_5  and  C_7
REMARK    4  A    between atoms: N_10  and  C_11
REMARK    5  A    between atoms: C_16  and  N_17
REMARK                            x       y       z     vdW  Elec       q    Type
REMARK                         _______ _______ _______ _____ _____    ______ ____
ROOT
ATOM      1  C   UNL     1      -3.466  -4.536  -0.111  0.00  0.00    +0.058 A 
ATOM      2  C   UNL     1      -2.923  -5.655  -0.724  0.00  0.00    +0.074 A 
ATOM      3  C   UNL     1      -3.668  -6.818  -0.831  0.00  0.00    +0.168 A 
ATOM      4  C   UNL     1      -4.963  -6.864  -0.322  0.00  0.00    +0.168 A 
ATOM      5  C   UNL     1      -5.507  -5.747   0.291  0.00  0.00    +0.074 A 
ATOM      6  C   UNL     1      -4.760  -4.584   0.404  0.00  0.00    +0.050 A 
ATOM      7  O   UNL     1      -5.477  -8.109  -0.551  0.00  0.00    -0.453 OA
ATOM      8  C   UNL     1      -4.638  -8.691  -1.565  0.00  0.00    +0.466 C 
ATOM      9  O   UNL     1      -3.370  -8.034  -1.379  0.00  0.00    -0.453 OA
ENDROOT
BRANCH   1  12
ATOM     10  C   UNL     1      -1.364  -3.418  -0.013  0.00  0.00    +0.252 C 
ATOM     11  O   UNL     1      -0.803  -4.497  -0.014  0.00  0.00    -0.270 OA
ATOM     12  N   UNL     1      -2.711  -3.358  -0.003  0.00  0.00    -0.280 N 
ATOM     13  H   UNL     1      -3.158  -2.501   0.079  0.00  0.00    +0.155 HD
BRANCH  10  17
ATOM     14  C   UNL     1      -0.020   1.503  -0.034  0.00  0.00    +0.086 C 
ATOM     15  C   UNL     1       0.001  -0.003  -0.031  0.00  0.00    +0.103 A 
ATOM     16  C   UNL     1      -1.081  -0.796  -0.021  0.00  0.00    +0.057 A 
ATOM     17  C   UNL     1      -0.572  -2.176  -0.022  0.00  0.00    +0.078 A 
ATOM     18  C   UNL     1       0.788  -2.065  -0.032  0.00  0.00    +0.114 A 
ATOM     19  O   UNL     1       1.105  -0.766  -0.043  0.00  0.00    -0.464 OA
ATOM     20  C   UNL     1       1.766  -3.212  -0.037  0.00  0.00    +0.087 C 
ENDBRANCH  10  17
ENDBRANCH   1  12
BRANCH   6  21
ATOM     21  N   UNL     1      -5.309  -3.456   1.029  0.00  0.00    -0.356 N 
ATOM     22  H   UNL     1      -4.788  -2.641   1.104  0.00  0.00    +0.142 HD
ATOM     23  H   UNL     1      -6.210  -3.490   1.387  0.00  0.00    +0.142 HD
ENDBRANCH   6  21
TORSDOF 3
