REMARK  Name = ZINC63707924
REMARK  5 active torsions:
REMARK  status: ('A' for Active; 'I' for Inactive)
REMARK    1  A    between atoms: C_5  and  C_7
REMARK    2  A    between atoms: C_7  and  S_8
REMARK    3  A    between atoms: S_8  and  C_9
REMARK    4  A    between atoms: C_19  and  C_24
REMARK    5  A    between atoms: C_24  and  C_25
REMARK                            x       y       z     vdW  Elec       q    Type
REMARK                         _______ _______ _______ _____ _____    ______ ____
ROOT
ATOM      1  C   UNL     1       1.275  -4.553   1.506  0.00  0.00    +0.169 C 
ATOM      2  N   UNL     1       1.275  -5.056   0.301  0.00  0.00    -0.225 NA
ATOM      3  C   UNL     1       1.291  -6.394   0.076  0.00  0.00    +0.077 A 
ATOM      4  C   UNL     1       1.292  -6.912  -1.221  0.00  0.00    +0.028 A 
ATOM      5  C   UNL     1       1.309  -8.276  -1.412  0.00  0.00    +0.002 A 
ATOM      6  C   UNL     1       1.325  -9.144  -0.330  0.00  0.00    +0.001 A 
ATOM      7  C   UNL     1       1.325  -8.655   0.960  0.00  0.00    +0.013 A 
ATOM      8  C   UNL     1       1.308  -7.280   1.172  0.00  0.00    +0.041 A 
ATOM      9  C   UNL     1       1.307  -6.710   2.537  0.00  0.00    +0.139 C 
ATOM     10  N   UNL     1       1.321  -7.300   3.699  0.00  0.00    -0.255 NA
ATOM     11  C   UNL     1       1.313  -6.256   4.734  0.00  0.00    +0.198 C 
ATOM     12  C   UNL     1       1.291  -4.962   3.948  0.00  0.00    +0.252 C 
ATOM     13  O   UNL     1       1.279  -3.834   4.393  0.00  0.00    -0.272 OA
ATOM     14  N   UNL     1       1.296  -5.330   2.647  0.00  0.00    -0.200 N 
ENDROOT
BRANCH   1  15
ATOM     15  S   UNL     1       1.253  -2.800   1.685  0.00  0.00    -0.085 S 
BRANCH  15  16
ATOM     16  C   UNL     1       1.228  -2.186  -0.022  0.00  0.00    +0.115 C 
BRANCH  16  21
ATOM     17  C   UNL     1      -0.017   1.378   0.010  0.00  0.00    +0.000 A 
ATOM     18  C   UNL     1       1.171   2.087   0.002  0.00  0.00    +0.003 A 
ATOM     19  C   UNL     1       2.377   1.414  -0.013  0.00  0.00    +0.038 A 
ATOM     20  C   UNL     1       2.397   0.029  -0.021  0.00  0.00    +0.127 A 
ATOM     21  C   UNL     1       1.208  -0.679  -0.013  0.00  0.00    -0.002 A 
ATOM     22  C   UNL     1       0.002  -0.004   0.002  0.00  0.00    +0.007 A 
ATOM     23  F   UNL     1       3.577  -0.630  -0.036  0.00  0.00    -0.205 F 
ENDBRANCH  16  21
ENDBRANCH  15  16
ENDBRANCH   1  15
BRANCH  11  24
ATOM     24  C   UNL     1       0.063  -6.378   5.607  0.00  0.00    +0.069 C 
BRANCH  24  25
ATOM     25  C   UNL     1       0.124  -7.660   6.397  0.00  0.00    -0.039 C 
ATOM     26  C   UNL     1       0.576  -7.816   7.662  0.00  0.00    -0.001 A 
ATOM     27  C   UNL     1       1.127  -6.874   8.643  0.00  0.00    +0.010 A 
ATOM     28  C   UNL     1       1.504  -7.337   9.857  0.00  0.00    +0.001 A 
ATOM     29  C   UNL     1       1.381  -8.691  10.200  0.00  0.00    +0.002 A 
ATOM     30  C   UNL     1       0.885  -9.616   9.352  0.00  0.00    +0.026 A 
ATOM     31  C   UNL     1       0.457  -9.240   8.048  0.00  0.00    +0.043 A 
ATOM     32  N   UNL     1      -0.049  -9.937   7.061  0.00  0.00    -0.380 N 
ATOM     33  C   UNL     1      -0.315  -9.032   5.937  0.00  0.00    +0.144 C 
ATOM     34  H   UNL     1      -0.223 -10.891   7.073  0.00  0.00    +0.160 HD
ENDBRANCH  24  25
ENDBRANCH  11  24
TORSDOF 5
