REMARK  Name = ZINC04983018
REMARK  10 active torsions:
REMARK  status: ('A' for Active; 'I' for Inactive)
REMARK    1  A    between atoms: C_6  and  C_7
REMARK    2  A    between atoms: C_7  and  C_8
REMARK    3  A    between atoms: C_7  and  O_15
REMARK    4  A    between atoms: O_15  and  C_16
REMARK    5  A    between atoms: C_16  and  C_17
REMARK    6  A    between atoms: C_17  and  C_19
REMARK    7  A    between atoms: C_17  and  O_28
REMARK    8  A    between atoms: C_19  and  N_20
REMARK    9  A    between atoms: N_20  and  C_21
REMARK   10  A    between atoms: C_21  and  C_22
REMARK                            x       y       z     vdW  Elec       q    Type
REMARK                         _______ _______ _______ _____ _____    ______ ____
ROOT
ATOM      1  C   UNL     1      -1.293  -0.775   0.010  0.00  0.00    +0.178 C 
ENDROOT
BRANCH   1   7
ATOM      2  C   UNL     1      -0.017   1.378   0.010  0.00  0.00    +0.008 A 
ATOM      3  C   UNL     1       1.171   2.086   0.002  0.00  0.00    +0.020 A 
ATOM      4  C   UNL     1       2.378   1.410  -0.013  0.00  0.00    +0.041 A 
ATOM      5  C   UNL     1       2.396   0.027  -0.021  0.00  0.00    +0.020 A 
ATOM      6  C   UNL     1       1.208  -0.679  -0.013  0.00  0.00    +0.008 A 
ATOM      7  C   UNL     1       0.002  -0.004   0.002  0.00  0.00    -0.014 A 
ATOM      8 CL   UNL     1       3.870   2.298  -0.023  0.00  0.00    -0.084 Cl
ENDBRANCH   1   7
BRANCH   1   9
ATOM      9  C   UNL     1      -1.611  -1.236  -1.389  0.00  0.00    -0.014 A 
ATOM     10  C   UNL     1      -1.072  -2.416  -1.867  0.00  0.00    +0.008 A 
ATOM     11  C   UNL     1      -1.364  -2.840  -3.150  0.00  0.00    +0.020 A 
ATOM     12  C   UNL     1      -2.197  -2.083  -3.955  0.00  0.00    +0.041 A 
ATOM     13  C   UNL     1      -2.737  -0.903  -3.476  0.00  0.00    +0.020 A 
ATOM     14  C   UNL     1      -2.448  -0.483  -2.191  0.00  0.00    +0.008 A 
ATOM     15 CL   UNL     1      -2.563  -2.615  -5.566  0.00  0.00    -0.084 Cl
ENDBRANCH   1   9
BRANCH   1  16
ATOM     16  O   UNL     1      -1.166  -1.910   0.869  0.00  0.00    -0.365 OA
BRANCH  16  17
ATOM     17  C   UNL     1      -2.390  -2.310   1.488  0.00  0.00    +0.190 C 
BRANCH  17  18
ATOM     18  C   UNL     1      -2.137  -3.527   2.380  0.00  0.00    +0.123 C 
BRANCH  18  19
ATOM     19  O   UNL     1      -1.272  -3.158   3.456  0.00  0.00    -0.391 OA
ATOM     20  H   UNL     1      -1.625  -2.458   4.022  0.00  0.00    +0.210 HD
ENDBRANCH  18  19
BRANCH  18  21
ATOM     21  C   UNL     1      -3.466  -4.031   2.945  0.00  0.00    -0.049 C 
BRANCH  21  22
ATOM     22  N   UNL     1      -3.223  -5.200   3.801  0.00  0.00    +0.382 N 
ATOM     23  H   UNL     1      -2.790  -5.931   3.257  0.00  0.00    -0.086 HD
ATOM     24  H   UNL     1      -2.612  -4.939   4.561  0.00  0.00    -0.086 HD
BRANCH  22  25
ATOM     25  C   UNL     1      -4.499  -5.684   4.343  0.00  0.00    -0.051 C 
BRANCH  25  26
ATOM     26  C   UNL     1      -4.246  -6.901   5.235  0.00  0.00    +0.101 C 
ATOM     27  C   UNL     1      -5.585  -7.449   5.790  0.00  0.00    +0.032 C 
ATOM     28  C   UNL     1      -5.205  -8.929   6.067  0.00  0.00    +0.030 C 
ATOM     29  C   UNL     1      -4.207  -9.230   4.929  0.00  0.00    +0.160 C 
ATOM     30  O   UNL     1      -3.689  -7.977   4.463  0.00  0.00    -0.378 OA
ENDBRANCH  25  26
ENDBRANCH  22  25
ENDBRANCH  21  22
ENDBRANCH  18  21
ENDBRANCH  17  18
ENDBRANCH  16  17
ENDBRANCH   1  16
TORSDOF 10
