REMARK  Name = ZINC12374697
REMARK  4 active torsions:
REMARK  status: ('A' for Active; 'I' for Inactive)
REMARK    1  A    between atoms: C_6  and  C_7
REMARK    2  A    between atoms: C_9  and  C_33
REMARK    3  A    between atoms: C_14  and  C_16
REMARK    4  A    between atoms: C_23  and  N_67
REMARK                            x       y       z     vdW  Elec       q    Type
REMARK                         _______ _______ _______ _____ _____    ______ ____
ROOT
ATOM      1  C   UNL     1       8.370  -4.609  -0.029  0.00  0.00    +0.075 A 
ATOM      2  C   UNL     1       8.410  -6.022   0.012  0.00  0.00    +0.060 A 
ATOM      3  C   UNL     1       7.251  -6.717   0.029  0.00  0.00    +0.149 A 
ATOM      4  N   UNL     1       6.063  -6.038  -0.002  0.00  0.00    -0.209 N 
ATOM      5  C   UNL     1       6.059  -4.666  -0.047  0.00  0.00    +0.157 A 
ATOM      6  N   UNL     1       7.210  -3.980  -0.060  0.00  0.00    -0.228 NA
ATOM      7  C   UNL     1       4.733  -4.261  -0.071  0.00  0.00    +0.083 A 
ATOM      8  C   UNL     1       3.939  -5.413  -0.040  0.00  0.00    +0.150 A 
ATOM      9  N   UNL     1       4.732  -6.472   0.001  0.00  0.00    -0.160 NA
ENDROOT
BRANCH   8  10
ATOM     10  C   UNL     1       2.461  -5.442  -0.051  0.00  0.00    +0.267 C 
ATOM     11  O   UNL     1       1.832  -4.405   0.032  0.00  0.00    -0.268 OA
ATOM     12  N   UNL     1       1.811  -6.618  -0.153  0.00  0.00    -0.300 N 
ATOM     13  C   UNL     1       0.344  -6.665  -0.244  0.00  0.00    +0.089 C 
ATOM     14  C   UNL     1      -0.036  -7.532  -1.455  0.00  0.00    -0.059 C 
ATOM     15  C   UNL     1       2.082  -8.709  -1.377  0.00  0.00    -0.059 C 
ATOM     16  C   UNL     1       2.550  -7.890  -0.169  0.00  0.00    +0.089 C 
ATOM     17  N   UNL     1       0.612  -8.854  -1.312  0.00  0.00    +0.385 N 
ATOM     18  H   UNL     1       0.356  -9.253  -0.402  0.00  0.00    -0.081 HD
BRANCH  17  19
ATOM     19  C   UNL     1       0.147  -9.761  -2.381  0.00  0.00    -0.065 C 
ATOM     20  C   UNL     1       0.556  -9.229  -3.756  0.00  0.00    -0.009 C 
ATOM     21  C   UNL     1       0.063 -10.187  -4.842  0.00  0.00    -0.012 C 
ATOM     22  C   UNL     1      -1.461 -10.298  -4.771  0.00  0.00    +0.007 C 
ATOM     23  C   UNL     1      -1.870 -10.831  -3.396  0.00  0.00    -0.012 C 
ATOM     24  C   UNL     1      -1.378  -9.873  -2.311  0.00  0.00    -0.009 C 
ATOM     25  C   UNL     1      -1.247 -12.212  -3.179  0.00  0.00    +0.007 C 
ATOM     26  C   UNL     1       0.277 -12.101  -3.250  0.00  0.00    -0.012 C 
ATOM     27  C   UNL     1       0.686 -11.568  -4.624  0.00  0.00    +0.007 C 
ATOM     28  C   UNL     1       0.769 -11.142  -2.164  0.00  0.00    -0.009 C 
ENDBRANCH  17  19
ENDBRANCH   8  10
BRANCH   1  34
ATOM     29  C   UNL     1      10.860  -4.495  -0.006  0.00  0.00    +0.013 A 
ATOM     30  C   UNL     1      12.032  -3.768  -0.025  0.00  0.00    +0.039 A 
ATOM     31  C   UNL     1      11.992  -2.384  -0.071  0.00  0.00    +0.123 A 
ATOM     32  C   UNL     1      10.774  -1.722  -0.104  0.00  0.00    +0.039 A 
ATOM     33  C   UNL     1       9.597  -2.440  -0.091  0.00  0.00    +0.013 A 
ATOM     34  C   UNL     1       9.632  -3.833  -0.044  0.00  0.00    +0.001 A 
ATOM     35  F   UNL     1      13.143  -1.677  -0.083  0.00  0.00    -0.205 F 
ENDBRANCH   1  34
BRANCH   3  36
ATOM     36  C   UNL     1       7.267  -8.223   0.078  0.00  0.00    +0.434 C 
ATOM     37  F   UNL     1       7.282  -8.732  -1.225  0.00  0.00    -0.164 F 
ATOM     38  F   UNL     1       8.408  -8.655   0.761  0.00  0.00    -0.164 F 
ATOM     39  F   UNL     1       6.124  -8.680   0.744  0.00  0.00    -0.164 F 
ENDBRANCH   3  36
TORSDOF 4
