REMARK  Name = ZINC09410930
REMARK  5 active torsions:
REMARK  status: ('A' for Active; 'I' for Inactive)
REMARK    1  A    between atoms: C_4  and  C_7
REMARK    2  A    between atoms: C_7  and  N_9
REMARK    3  A    between atoms: N_11  and  C_22
REMARK    4  A    between atoms: C_25  and  O_28
REMARK    5  A    between atoms: O_28  and  C_29
REMARK                            x       y       z     vdW  Elec       q    Type
REMARK                         _______ _______ _______ _____ _____    ______ ____
ROOT
ATOM      1  N   UNL     1       3.727  -1.920  -0.346  0.00  0.00    -0.155 NA
ATOM      2  C   UNL     1       4.856  -2.615  -0.306  0.00  0.00    +0.154 C 
ATOM      3  N   UNL     1       6.135  -2.137  -0.182  0.00  0.00    -0.276 N 
ATOM      4  C   UNL     1       7.236  -2.997  -0.536  0.00  0.00    +0.116 C 
ATOM      5  C   UNL     1       8.247  -2.350  -1.481  0.00  0.00    +0.190 C 
ATOM      6  S   UNL     1       8.081  -3.331  -3.025  0.00  0.00    -0.028 S 
ATOM      7  O   UNL     1       9.297  -4.029  -3.259  0.00  0.00    -0.174 OA
ATOM      8  O   UNL     1       7.547  -2.498  -4.044  0.00  0.00    -0.174 OA
ATOM      9  C   UNL     1       6.796  -4.534  -2.504  0.00  0.00    +0.182 C 
ATOM     10  C   UNL     1       6.817  -4.410  -0.975  0.00  0.00    +0.097 C 
ATOM     11  S   UNL     1       5.058  -4.388  -0.395  0.00  0.00    -0.086 S 
ENDROOT
BRANCH   3  12
ATOM     12  C   UNL     1       6.367  -0.836   0.280  0.00  0.00    +0.036 A 
ATOM     13  C   UNL     1       6.174  -0.530   1.620  0.00  0.00    +0.027 A 
ATOM     14  C   UNL     1       6.404   0.754   2.075  0.00  0.00    +0.048 A 
ATOM     15  C   UNL     1       6.828   1.737   1.193  0.00  0.00    +0.130 A 
ATOM     16  C   UNL     1       7.021   1.432  -0.146  0.00  0.00    +0.048 A 
ATOM     17  C   UNL     1       6.796   0.148  -0.602  0.00  0.00    +0.027 A 
BRANCH  15  18
ATOM     18  O   UNL     1       7.054   3.000   1.642  0.00  0.00    -0.406 OA
BRANCH  18  19
ATOM     19  C   UNL     1       7.489   3.963   0.679  0.00  0.00    +0.575 C 
ATOM     20  F   UNL     1       6.522   4.088  -0.325  0.00  0.00    -0.133 F 
ATOM     21  F   UNL     1       7.673   5.200   1.306  0.00  0.00    -0.133 F 
ATOM     22  F   UNL     1       8.697   3.543   0.113  0.00  0.00    -0.133 F 
ENDBRANCH  18  19
ENDBRANCH  15  18
ENDBRANCH   3  12
BRANCH   1  23
ATOM     23  C   UNL     1       3.766  -0.584  -0.428  0.00  0.00    +0.269 C 
ATOM     24  O   UNL     1       4.419  -0.046  -1.304  0.00  0.00    -0.268 OA
BRANCH  23  28
ATOM     25  C   UNL     1       1.609   1.779   2.369  0.00  0.00    +0.000 A 
ATOM     26  C   UNL     1       2.350   2.393   1.376  0.00  0.00    +0.001 A 
ATOM     27  C   UNL     1       3.053   1.631   0.465  0.00  0.00    +0.013 A 
ATOM     28  C   UNL     1       3.015   0.239   0.547  0.00  0.00    +0.039 A 
ATOM     29  C   UNL     1       2.265  -0.374   1.552  0.00  0.00    +0.013 A 
ATOM     30  C   UNL     1       1.567   0.399   2.457  0.00  0.00    +0.001 A 
ENDBRANCH  23  28
ENDBRANCH   1  23
TORSDOF 5
