REMARK  Name = ZINC67561086
REMARK  5 active torsions:
REMARK  status: ('A' for Active; 'I' for Inactive)
REMARK    1  A    between atoms: C_1  and  C_2
REMARK    2  A    between atoms: C_6  and  C_8
REMARK    3  A    between atoms: C_11  and  C_13
REMARK    4  A    between atoms: C_19  and  C_22
REMARK    5  A    between atoms: C_22  and  N_23
REMARK                            x       y       z     vdW  Elec       q    Type
REMARK                         _______ _______ _______ _____ _____    ______ ____
ROOT
ATOM      1  C   UNL     1      -0.018   1.503   0.010  0.00  0.00    +0.044 C 
ATOM      2  C   UNL     1       0.002  -0.004   0.002  0.00  0.00    -0.049 A 
ATOM      3  C   UNL     1       0.006  -0.691  -1.201  0.00  0.00    +0.010 A 
ATOM      4  C   UNL     1       0.026  -2.069  -1.215  0.00  0.00    -0.001 A 
ATOM      5  C   UNL     1       0.050  -2.792  -0.032  0.00  0.00    +0.132 A 
ATOM      6  C   UNL     1       0.041  -2.095   1.188  0.00  0.00    +0.031 A 
ATOM      7  C   UNL     1       0.023  -0.701   1.192  0.00  0.00    +0.016 A 
ATOM      8  O   UNL     1       0.090  -4.131  -0.272  0.00  0.00    -0.489 OA
ATOM      9  C   UNL     1      -0.350  -4.384  -1.617  0.00  0.00    +0.161 C 
ATOM     10  C   UNL     1       0.024  -3.075  -2.350  0.00  0.00    +0.081 C 
ENDROOT
BRANCH   6  11
ATOM     11  C   UNL     1       0.057  -2.837   2.465  0.00  0.00    +0.023 A 
ATOM     12  C   UNL     1       0.876  -2.661   3.564  0.00  0.00    +0.017 A 
ATOM     13  C   UNL     1       0.703  -3.481   4.650  0.00  0.00    +0.018 A 
ATOM     14  C   UNL     1      -0.272  -4.444   4.608  0.00  0.00    +0.041 A 
ATOM     15  S   UNL     1      -0.983  -4.190   2.990  0.00  0.00    -0.087 S 
BRANCH  14  16
ATOM     16  C   UNL     1      -0.644  -5.433   5.640  0.00  0.00    +0.120 A 
ATOM     17  C   UNL     1      -1.665  -6.412   5.531  0.00  0.00    +0.073 A 
ATOM     18  C   UNL     1      -1.691  -7.115   6.675  0.00  0.00    +0.231 A 
ATOM     19  O   UNL     1      -0.743  -6.629   7.491  0.00  0.00    -0.362 OA
ATOM     20  N   UNL     1      -0.085  -5.569   6.821  0.00  0.00    -0.078 NA
ENDBRANCH  14  16
ENDBRANCH   6  11
BRANCH   9  21
ATOM     21  C   UNL     1       0.397  -5.578  -2.216  0.00  0.00    -0.041 C 
BRANCH  21  22
ATOM     22  N   UNL     1       0.021  -6.802  -1.495  0.00  0.00    +0.380 N 
ATOM     23  H   UNL     1       0.513  -7.589  -1.890  0.00  0.00    -0.090 HD
ATOM     24  H   UNL     1       0.265  -6.707  -0.521  0.00  0.00    -0.090 HD
ATOM     25  H   UNL     1      -0.973  -6.950  -1.580  0.00  0.00    -0.090 HD
ENDBRANCH  21  22
ENDBRANCH   9  21
TORSDOF 4
