REMARK  Name = ZINC14082373
REMARK  13 active torsions:
REMARK  status: ('A' for Active; 'I' for Inactive)
REMARK    1  A    between atoms: C_1  and  C_2
REMARK    2  A    between atoms: C_5  and  C_8
REMARK    3  A    between atoms: C_11  and  S_16
REMARK    4  A    between atoms: N_12  and  C_13
REMARK    5  A    between atoms: C_13  and  C_14
REMARK    6  A    between atoms: S_16  and  C_17
REMARK    7  A    between atoms: C_17  and  C_18
REMARK    8  A    between atoms: N_20  and  C_21
REMARK    9  A    between atoms: C_22  and  C_35
REMARK   10  A    between atoms: C_27  and  C_31
REMARK   11  A    between atoms: C_31  and  C_32
REMARK   12  A    between atoms: C_31  and  C_33
REMARK   13  A    between atoms: C_31  and  C_34
REMARK                            x       y       z     vdW  Elec       q    Type
REMARK                         _______ _______ _______ _____ _____    ______ ____
ROOT
ATOM      1  C   UNL     1       0.715 -10.479   0.824  0.00  0.00    +0.228 C 
ATOM      2  O   UNL     1       1.147 -10.536   1.956  0.00  0.00    -0.275 OA
ATOM      3  N   UNL     1       0.519 -11.612   0.120  0.00  0.00    -0.278 N 
ATOM      4  H   UNL     1       0.174 -11.566  -0.785  0.00  0.00    +0.155 HD
ENDROOT
BRANCH   3   5
ATOM      5  C   UNL     1       0.812 -12.843   0.690  0.00  0.00    +0.090 A 
ATOM      6  C   UNL     1       0.681 -14.098   0.119  0.00  0.00    +0.084 A 
ATOM      7  C   UNL     1       1.059 -15.241   0.932  0.00  0.00    -0.018 A 
ATOM      8  C   UNL     1       1.499 -14.918   2.168  0.00  0.00    -0.004 A 
ATOM      9  S   UNL     1       1.414 -13.152   2.227  0.00  0.00    -0.077 S 
ATOM     10  C   UNL     1       1.958 -15.863   3.235  0.00  0.00    +0.047 C 
ATOM     11  C   UNL     1       1.500 -17.279   2.854  0.00  0.00    -0.000 C 
ATOM     12  C   UNL     1       1.864 -17.541   1.390  0.00  0.00    +0.009 C 
ATOM     13  C   UNL     1       0.983 -16.689   0.473  0.00  0.00    +0.037 C 
BRANCH  11  14
ATOM     14  C   UNL     1       2.199 -18.302   3.750  0.00  0.00    -0.035 C 
ATOM     15  C   UNL     1       1.842 -18.028   5.212  0.00  0.00    +0.011 C 
ATOM     16  C   UNL     1       1.741 -19.711   3.369  0.00  0.00    +0.011 C 
ATOM     17  C   UNL     1       3.714 -18.191   3.565  0.00  0.00    +0.011 C 
ENDBRANCH  11  14
BRANCH   6  18
ATOM     18  C   UNL     1       0.192 -14.262  -1.217  0.00  0.00    +0.102 C 
ATOM     19  N   UNL     1      -0.196 -14.393  -2.277  0.00  0.00    -0.191 NA
ENDBRANCH   6  18
ENDBRANCH   3   5
BRANCH   1  20
ATOM     20  C   UNL     1       0.397  -9.143   0.205  0.00  0.00    +0.173 C 
BRANCH  20  21
ATOM     21  S   UNL     1       0.764  -7.823   1.395  0.00  0.00    -0.077 S 
BRANCH  21  25
ATOM     22  C   UNL     1       0.011  -4.253  -0.004  0.00  0.00    +0.165 A 
ATOM     23  N   UNL     1      -0.320  -5.031  -1.007  0.00  0.00    -0.128 NA
ATOM     24  N   UNL     1      -0.124  -6.262  -0.692  0.00  0.00    -0.122 NA
ATOM     25  C   UNL     1       0.346  -6.344   0.533  0.00  0.00    +0.193 A 
ATOM     26  N   UNL     1       0.453  -5.070   1.012  0.00  0.00    -0.298 N 
BRANCH  22  31
ATOM     27  C   UNL     1      -0.303   1.492   0.118  0.00  0.00    +0.044 C 
ATOM     28  C   UNL     1      -0.220  -0.013   0.086  0.00  0.00    -0.050 A 
ATOM     29  C   UNL     1      -0.208  -0.676  -1.128  0.00  0.00    +0.004 A 
ATOM     30  C   UNL     1      -0.134  -2.053  -1.164  0.00  0.00    +0.012 A 
ATOM     31  C   UNL     1      -0.069  -2.777   0.028  0.00  0.00    +0.019 A 
ATOM     32  C   UNL     1      -0.081  -2.102   1.249  0.00  0.00    +0.012 A 
ATOM     33  C   UNL     1      -0.151  -0.724   1.271  0.00  0.00    +0.004 A 
ENDBRANCH  22  31
BRANCH  26  34
ATOM     34  C   UNL     1       0.934  -4.658   2.333  0.00  0.00    +0.152 C 
BRANCH  34  35
ATOM     35  C   UNL     1      -0.214  -4.656   3.308  0.00  0.00    -0.013 C 
ATOM     36  C   UNL     1      -0.133  -5.348   4.417  0.00  0.00    +0.005 C 
ENDBRANCH  34  35
ENDBRANCH  26  34
ENDBRANCH  21  25
ENDBRANCH  20  21
ENDBRANCH   1  20
TORSDOF 9
