REMARK  Name = ZINC41586526
REMARK  8 active torsions:
REMARK  status: ('A' for Active; 'I' for Inactive)
REMARK    1  A    between atoms: C_1  and  C_2
REMARK    2  A    between atoms: C_2  and  O_3
REMARK    3  A    between atoms: O_3  and  C_4
REMARK    4  A    between atoms: C_4  and  C_6
REMARK    5  A    between atoms: N_11  and  C_13
REMARK    6  A    between atoms: C_13  and  C_14
REMARK    7  A    between atoms: C_15  and  O_36
REMARK    8  A    between atoms: C_22  and  C_23
REMARK                            x       y       z     vdW  Elec       q    Type
REMARK                         _______ _______ _______ _____ _____    ______ ____
ROOT
ATOM      1  C   UNL     1       2.943  -5.555  -5.316  0.00  0.00    +0.020 A 
ATOM      2  C   UNL     1       2.193  -5.614  -6.479  0.00  0.00    +0.122 A 
ATOM      3  C   UNL     1       2.691  -6.255  -7.611  0.00  0.00    +0.046 A 
ATOM      4  C   UNL     1       3.929  -6.832  -7.584  0.00  0.00    +0.019 A 
ATOM      5  C   UNL     1       4.696  -6.779  -6.419  0.00  0.00    +0.068 A 
ATOM      6  C   UNL     1       4.206  -6.132  -5.273  0.00  0.00    +0.144 A 
ATOM      7  O   UNL     1       5.122  -6.206  -4.283  0.00  0.00    -0.451 OA
ATOM      8  C   UNL     1       6.235  -6.869  -4.675  0.00  0.00    +0.176 C 
ATOM      9  C   UNL     1       7.333  -7.112  -3.914  0.00  0.00    +0.061 C 
ATOM     10  C   UNL     1       6.034  -7.289  -6.069  0.00  0.00    +0.231 C 
ATOM     11  O   UNL     1       6.806  -7.910  -6.780  0.00  0.00    -0.283 OA
ENDROOT
BRANCH   9  12
ATOM     12  C   UNL     1       7.428  -6.551  -2.562  0.00  0.00    +0.022 A 
ATOM     13  C   UNL     1       6.280  -6.084  -1.911  0.00  0.00    +0.031 A 
ATOM     14  C   UNL     1       6.378  -5.557  -0.641  0.00  0.00    +0.042 A 
ATOM     15  C   UNL     1       7.609  -5.485  -0.007  0.00  0.00    +0.029 A 
ATOM     16  C   UNL     1       8.752  -5.942  -0.638  0.00  0.00    +0.022 A 
ATOM     17  C   UNL     1       8.671  -6.485  -1.909  0.00  0.00    +0.136 A 
ATOM     18  O   UNL     1       9.782  -6.952  -2.534  0.00  0.00    -0.465 OA
ATOM     19  C   UNL     1      11.045  -6.542  -2.001  0.00  0.00    +0.395 C 
ATOM     20  O   UNL     1      11.020  -6.719  -0.579  0.00  0.00    -0.339 OA
ATOM     21  C   UNL     1      10.080  -5.851   0.070  0.00  0.00    +0.202 C 
ATOM     22 CL   UNL     1       4.955  -4.979   0.167  0.00  0.00    -0.084 Cl
ENDBRANCH   9  12
BRANCH   2  23
ATOM     23  O   UNL     1       0.962  -5.044  -6.516  0.00  0.00    -0.506 OA
ATOM     24  H   UNL     1       0.966  -4.119  -6.798  0.00  0.00    +0.292 HD
ENDBRANCH   2  23
BRANCH   1  25
ATOM     25  C   UNL     1       2.392  -4.858  -4.099  0.00  0.00    -0.036 C 
BRANCH  25  30
ATOM     26  C   UNL     1       2.456  -1.243  -3.093  0.00  0.00    +0.081 C 
ATOM     27  C   UNL     1       3.974  -1.054  -3.011  0.00  0.00    +0.011 C 
ATOM     28  C   UNL     1       4.639  -1.853  -4.135  0.00  0.00    -0.018 C 
ATOM     29  C   UNL     1       4.231  -3.323  -4.019  0.00  0.00    -0.078 C 
ATOM     30  N   UNL     1       2.772  -3.440  -4.132  0.00  0.00    +0.383 N 
ATOM     31  C   UNL     1       2.128  -2.736  -3.017  0.00  0.00    -0.064 C 
ATOM     32  H   UNL     1       2.470  -3.033  -5.004  0.00  0.00    -0.081 HD
BRANCH  26  33
ATOM     33  C   UNL     1       1.796  -0.523  -1.945  0.00  0.00    +0.308 C 
ATOM     34  O   UNL     1       1.130  -1.140  -1.148  0.00  0.00    -0.251 OA
BRANCH  33  35
ATOM     35  O   UNL     1       1.949   0.803  -1.808  0.00  0.00    -0.465 OA
BRANCH  35  37
ATOM     36  C   UNL     1       1.582   2.923  -0.707  0.00  0.00    +0.048 C 
ATOM     37  C   UNL     1       1.295   1.420  -0.697  0.00  0.00    +0.229 C 
ENDBRANCH  35  37
ENDBRANCH  33  35
ENDBRANCH  26  33
ENDBRANCH  25  30
ENDBRANCH   1  25
TORSDOF 7
