REMARK  Name = ZINC11818719
REMARK  10 active torsions:
REMARK  status: ('A' for Active; 'I' for Inactive)
REMARK    1  A    between atoms: C_1  and  C_2
REMARK    2  A    between atoms: C_3  and  C_31
REMARK    3  A    between atoms: C_4  and  O_29
REMARK    4  A    between atoms: C_7  and  C_8
REMARK    5  A    between atoms: C_8  and  N_58
REMARK    6  A    between atoms: C_14  and  C_16
REMARK    7  A    between atoms: C_16  and  C_17
REMARK    8  A    between atoms: N_19  and  C_20
REMARK    9  A    between atoms: C_20  and  C_21
REMARK   10  A    between atoms: O_29  and  C_30
REMARK                            x       y       z     vdW  Elec       q    Type
REMARK                         _______ _______ _______ _____ _____    ______ ____
ROOT
ATOM      1  C   UNL     1       1.925  -8.038  -3.004  0.00  0.00    -0.058 C 
ATOM      2  C   UNL     1       1.953  -8.235  -4.521  0.00  0.00    +0.085 C 
ATOM      3  N   UNL     1       0.907  -7.433  -5.149  0.00  0.00    -0.318 N 
ATOM      4  C   UNL     1       0.312  -6.406  -4.535  0.00  0.00    +0.200 C 
ATOM      5  O   UNL     1      -0.526  -5.772  -5.141  0.00  0.00    -0.278 OA
ATOM      6  C   UNL     1       0.636  -6.003  -3.124  0.00  0.00    +0.028 C 
ATOM      7  H   UNL     1       0.633  -7.654  -6.053  0.00  0.00    +0.149 HD
ATOM      8  N   UNL     1       1.933  -6.587  -2.732  0.00  0.00    +0.391 N 
ATOM      9  H   UNL     1       2.679  -6.146  -3.282  0.00  0.00    -0.080 HD
ENDROOT
BRANCH   8  10
ATOM     10  C   UNL     1       2.185  -6.341  -1.294  0.00  0.00    -0.042 C 
BRANCH  10  17
ATOM     11  C   UNL     1       4.753  -5.181  -1.922  0.00  0.00    +0.044 C 
ATOM     12  C   UNL     1       4.681  -6.495  -1.187  0.00  0.00    -0.043 A 
ATOM     13  C   UNL     1       5.843  -7.140  -0.810  0.00  0.00    -0.006 A 
ATOM     14  C   UNL     1       5.775  -8.352  -0.139  0.00  0.00    +0.123 A 
ATOM     15  C   UNL     1       4.540  -8.910   0.157  0.00  0.00    +0.046 A 
ATOM     16  C   UNL     1       3.381  -8.258  -0.217  0.00  0.00    +0.005 A 
ATOM     17  C   UNL     1       3.451  -7.050  -0.886  0.00  0.00    -0.061 A 
ATOM     18  C   UNL     1       7.183  -6.530  -1.133  0.00  0.00    +0.048 C 
BRANCH  14  19
ATOM     19  O   UNL     1       6.917  -8.991   0.228  0.00  0.00    -0.495 OA
ATOM     20  C   UNL     1       6.771 -10.235   0.916  0.00  0.00    +0.277 C 
ENDBRANCH  14  19
ENDBRANCH  10  17
ENDBRANCH   8  10
BRANCH   6  21
ATOM     21  C   UNL     1       0.731  -4.479  -3.039  0.00  0.00    +0.089 C 
BRANCH  21  22
ATOM     22  C   UNL     1       1.814  -3.991  -3.968  0.00  0.00    +0.212 C 
ATOM     23  O   UNL     1       2.514  -4.788  -4.555  0.00  0.00    -0.276 OA
ATOM     24  N   UNL     1       2.004  -2.668  -4.145  0.00  0.00    -0.311 N 
ATOM     25  H   UNL     1       1.444  -2.030  -3.675  0.00  0.00    +0.149 HD
BRANCH  24  26
ATOM     26  C   UNL     1       3.056  -2.194  -5.047  0.00  0.00    +0.142 C 
BRANCH  26  27
ATOM     27  C   UNL     1       3.059  -0.687  -5.067  0.00  0.00    +0.005 A 
ATOM     28  C   UNL     1       2.453  -0.009  -6.108  0.00  0.00    +0.011 A 
ATOM     29  C   UNL     1       2.454   1.373  -6.128  0.00  0.00    +0.039 A 
ATOM     30  C   UNL     1       3.063   2.080  -5.104  0.00  0.00    +0.126 A 
ATOM     31  C   UNL     1       3.670   1.402  -4.061  0.00  0.00    +0.077 A 
ATOM     32  C   UNL     1       3.668   0.018  -4.043  0.00  0.00    +0.131 A 
ATOM     33  F   UNL     1       4.259  -0.646  -3.025  0.00  0.00    -0.205 F 
ATOM     34  F   UNL     1       3.064   3.431  -5.123  0.00  0.00    -0.205 F 
ENDBRANCH  26  27
ENDBRANCH  24  26
ENDBRANCH  21  22
ENDBRANCH   6  21
TORSDOF 7
