REMARK  Name = ZINC10403225
REMARK  8 active torsions:
REMARK  status: ('A' for Active; 'I' for Inactive)
REMARK    1  A    between atoms: C_4  and  C_7
REMARK    2  A    between atoms: C_7  and  C_8
REMARK    3  A    between atoms: C_7  and  N_61
REMARK    4  A    between atoms: N_16  and  C_19
REMARK    5  A    between atoms: C_19  and  N_21
REMARK    6  A    between atoms: C_22  and  C_24
REMARK    7  A    between atoms: C_25  and  C_26
REMARK    8  A    between atoms: C_30  and  N_32
REMARK                            x       y       z     vdW  Elec       q    Type
REMARK                         _______ _______ _______ _____ _____    ______ ____
ROOT
ATOM      1  C   UNL     1      -9.106  -0.283  -1.034  0.00  0.00    -0.058 C 
ATOM      2  C   UNL     1      -7.899  -0.711  -0.192  0.00  0.00    +0.088 C 
ATOM      3  N   UNL     1      -6.777   0.192  -0.491  0.00  0.00    -0.316 N 
ATOM      4  C   UNL     1      -7.011   1.642  -0.409  0.00  0.00    +0.088 C 
ATOM      5  C   UNL     1      -8.254   1.978  -1.248  0.00  0.00    -0.058 C 
ATOM      6  N   UNL     1      -9.383   1.147  -0.774  0.00  0.00    +0.389 N 
ATOM      7  H   UNL     1      -9.496   1.286   0.237  0.00  0.00    -0.080 HD
ENDROOT
BRANCH   3   8
ATOM      8  C   UNL     1      -5.566  -0.296  -0.824  0.00  0.00    +0.139 C 
ATOM      9  S   UNL     1      -5.347  -1.982  -1.020  0.00  0.00    -0.018 S 
BRANCH   8  10
ATOM     10  N   UNL     1      -4.527   0.544  -1.004  0.00  0.00    -0.264 N 
ATOM     11  C   UNL     1      -3.295   0.051  -1.238  0.00  0.00    +0.242 C 
ATOM     12  O   UNL     1      -3.120  -1.152  -1.288  0.00  0.00    -0.270 OA
ATOM     13  H   UNL     1      -4.667   1.503  -0.964  0.00  0.00    +0.157 HD
BRANCH  11  14
ATOM     14  C   UNL     1      -2.167   0.963  -1.433  0.00  0.00    +0.068 C 
ATOM     15  C   UNL     1      -0.934   0.470  -1.668  0.00  0.00    +0.013 C 
BRANCH  15  16
ATOM     16  C   UNL     1       0.200   1.387  -1.864  0.00  0.00    -0.023 A 
ATOM     17  C   UNL     1       0.003   2.771  -1.808  0.00  0.00    +0.008 A 
ATOM     18  C   UNL     1       1.071   3.623  -1.993  0.00  0.00    +0.003 A 
ATOM     19  C   UNL     1       2.335   3.113  -2.235  0.00  0.00    +0.033 A 
ATOM     20  C   UNL     1       2.538   1.746  -2.292  0.00  0.00    +0.127 A 
ATOM     21  C   UNL     1       1.480   0.880  -2.108  0.00  0.00    +0.040 A 
BRANCH  20  22
ATOM     22  N   UNL     1       3.893   1.211  -2.550  0.00  0.00    +0.056 N 
ATOM     23  O   UNL     1       4.074   0.007  -2.601  0.00  0.00    -0.126 OA
ATOM     24  O   UNL     1       4.829   1.974  -2.712  0.00  0.00    -0.126 OA
ENDBRANCH  20  22
ENDBRANCH  15  16
ENDBRANCH  11  14
ENDBRANCH   8  10
ENDBRANCH   3   8
BRANCH   6  25
ATOM     25  C   UNL     1     -10.629   1.552  -1.458  0.00  0.00    -0.007 C 
BRANCH  25  29
ATOM     26  C   UNL     1     -13.862  -0.789   0.064  0.00  0.00    +0.000 A 
ATOM     27  C   UNL     1     -13.821  -0.456  -1.277  0.00  0.00    +0.000 A 
ATOM     28  C   UNL     1     -12.774   0.301  -1.769  0.00  0.00    +0.002 A 
ATOM     29  C   UNL     1     -11.769   0.726  -0.921  0.00  0.00    -0.057 A 
ATOM     30  C   UNL     1     -11.808   0.389   0.419  0.00  0.00    +0.002 A 
ATOM     31  C   UNL     1     -12.857  -0.365   0.913  0.00  0.00    +0.000 A 
ENDBRANCH  25  29
BRANCH  25  32
ATOM     32  C   UNL     1     -10.888   3.009  -1.177  0.00  0.00    -0.057 A 
ATOM     33  C   UNL     1     -10.662   3.521   0.087  0.00  0.00    +0.002 A 
ATOM     34  C   UNL     1     -10.896   4.859   0.343  0.00  0.00    +0.000 A 
ATOM     35  C   UNL     1     -11.365   5.684  -0.663  0.00  0.00    +0.000 A 
ATOM     36  C   UNL     1     -11.596   5.171  -1.926  0.00  0.00    +0.000 A 
ATOM     37  C   UNL     1     -11.357   3.834  -2.183  0.00  0.00    +0.002 A 
ENDBRANCH  25  32
ENDBRANCH   6  25
TORSDOF 8
