REMARK  Name = ZINC35808836
REMARK  7 active torsions:
REMARK  status: ('A' for Active; 'I' for Inactive)
REMARK    1  A    between atoms: C_1  and  C_2
REMARK    2  A    between atoms: C_2  and  C_3
REMARK    3  A    between atoms: C_2  and  C_4
REMARK    4  A    between atoms: C_2  and  N_5
REMARK    5  A    between atoms: C_25  and  C_27
REMARK    6  A    between atoms: C_27  and  C_29
REMARK    7  A    between atoms: C_27  and  O_36
REMARK                            x       y       z     vdW  Elec       q    Type
REMARK                         _______ _______ _______ _____ _____    ______ ____
ROOT
ATOM      1  N   UNL     1       0.688  -0.476  -1.203  0.00  0.00    -0.236 N 
ATOM      2  C   UNL     1       0.096  -1.263  -2.151  0.00  0.00    +0.228 C 
ATOM      3  O   UNL     1      -0.939  -1.885  -2.037  0.00  0.00    -0.275 OA
ATOM      4  C   UNL     1       0.980  -1.203  -3.357  0.00  0.00    +0.110 C 
ATOM      5  C   UNL     1       2.344  -1.062  -2.584  0.00  0.00    +0.123 C 
ATOM      6  C   UNL     1       1.992  -0.171  -1.504  0.00  0.00    +0.229 C 
ATOM      7  O   UNL     1       2.695   0.663  -0.976  0.00  0.00    -0.275 OA
ATOM      8  C   UNL     1       3.355  -1.255  -3.622  0.00  0.00    +0.136 C 
ATOM      9  C   UNL     1       4.656  -1.837  -3.129  0.00  0.00    +0.003 A 
ATOM     10  C   UNL     1       4.967  -2.969  -2.410  0.00  0.00    +0.008 A 
ATOM     11  C   UNL     1       6.286  -3.249  -2.099  0.00  0.00    +0.000 A 
ATOM     12  C   UNL     1       7.288  -2.390  -2.511  0.00  0.00    +0.002 A 
ATOM     13  C   UNL     1       6.979  -1.254  -3.232  0.00  0.00    +0.023 A 
ATOM     14  C   UNL     1       5.654  -0.966  -3.550  0.00  0.00    +0.039 A 
ATOM     15  N   UNL     1       5.096   0.101  -4.257  0.00  0.00    -0.283 N 
ATOM     16  C   UNL     1       3.757   0.007  -4.346  0.00  0.00    +0.243 C 
ATOM     17  O   UNL     1       3.015   0.789  -4.902  0.00  0.00    -0.273 OA
ATOM     18  N   UNL     1       2.735  -2.203  -4.600  0.00  0.00    -0.293 NA
ATOM     19  C   UNL     1       1.310  -2.465  -4.148  0.00  0.00    +0.101 C 
ATOM     20  H   UNL     1       5.615   0.826  -4.641  0.00  0.00    +0.155 HD
ATOM     21  H   UNL     1       2.746  -1.819  -5.533  0.00  0.00    +0.124 HD
ENDROOT
BRANCH   1  23
ATOM     22  C   UNL     1      -0.019   1.526   0.010  0.00  0.00    +0.031 C 
ATOM     23  C   UNL     1       0.002  -0.004   0.002  0.00  0.00    +0.036 C 
ATOM     24  C   UNL     1       0.742  -0.511   1.242  0.00  0.00    +0.031 C 
ATOM     25  C   UNL     1      -1.433  -0.534   0.013  0.00  0.00    +0.031 C 
ENDBRANCH   1  23
BRANCH  19  26
ATOM     26  C   UNL     1       0.372  -2.612  -5.347  0.00  0.00    +0.162 C 
BRANCH  26  27
ATOM     27  C   UNL     1       0.722  -3.864  -6.108  0.00  0.00    -0.018 A 
ATOM     28  C   UNL     1       0.191  -5.080  -5.720  0.00  0.00    +0.007 A 
ATOM     29  C   UNL     1       0.511  -6.229  -6.417  0.00  0.00    +0.020 A 
ATOM     30  C   UNL     1       1.364  -6.163  -7.505  0.00  0.00    +0.041 A 
ATOM     31  C   UNL     1       1.895  -4.946  -7.894  0.00  0.00    +0.020 A 
ATOM     32  C   UNL     1       1.569  -3.797  -7.199  0.00  0.00    +0.007 A 
ATOM     33 CL   UNL     1       1.767  -7.606  -8.381  0.00  0.00    -0.084 Cl
ENDBRANCH  26  27
BRANCH  26  34
ATOM     34  O   UNL     1      -0.979  -2.695  -4.888  0.00  0.00    -0.386 OA
ATOM     35  H   UNL     1      -1.149  -3.443  -4.300  0.00  0.00    +0.210 HD
ENDBRANCH  26  34
ENDBRANCH  19  26
TORSDOF 4
