REMARK  Name = ZINC27203575
REMARK  12 active torsions:
REMARK  status: ('A' for Active; 'I' for Inactive)
REMARK    1  A    between atoms: C_1  and  C_2
REMARK    2  A    between atoms: C_6  and  C_30
REMARK    3  A    between atoms: C_7  and  O_8
REMARK    4  A    between atoms: O_8  and  C_9
REMARK    5  A    between atoms: C_9  and  C_11
REMARK    6  A    between atoms: C_9  and  C_12
REMARK    7  A    between atoms: N_14  and  N_15
REMARK    8  A    between atoms: C_16  and  C_18
REMARK    9  A    between atoms: C_20  and  S_26
REMARK   10  A    between atoms: C_23  and  O_24
REMARK   11  A    between atoms: O_24  and  C_25
REMARK   12  A    between atoms: S_26  and  N_29
REMARK                            x       y       z     vdW  Elec       q    Type
REMARK                         _______ _______ _______ _____ _____    ______ ____
ROOT
ATOM      1  N   UNL     1      -3.048   2.523   4.810  0.00  0.00    -0.230 N 
ATOM      2  C   UNL     1      -4.293   2.723   5.284  0.00  0.00    +0.264 C 
ATOM      3  O   UNL     1      -5.185   1.947   4.999  0.00  0.00    -0.269 OA
ATOM      4  H   UNL     1      -2.337   3.142   5.037  0.00  0.00    +0.173 HD
ENDROOT
BRANCH   2   5
ATOM      5  C   UNL     1      -4.575   3.885   6.149  0.00  0.00    +0.082 A 
ATOM      6  C   UNL     1      -3.555   4.782   6.475  0.00  0.00    +0.045 A 
ATOM      7  C   UNL     1      -3.824   5.865   7.283  0.00  0.00    +0.106 A 
ATOM      8  C   UNL     1      -5.103   6.068   7.776  0.00  0.00    +0.032 A 
ATOM      9  C   UNL     1      -6.120   5.189   7.462  0.00  0.00    +0.048 A 
ATOM     10  C   UNL     1      -5.868   4.097   6.645  0.00  0.00    +0.132 A 
BRANCH   7  11
ATOM     11  S   UNL     1      -2.536   6.995   7.694  0.00  0.00    +0.056 S 
ATOM     12  O   UNL     1      -2.920   7.624   8.909  0.00  0.00    -0.153 OA
ATOM     13  O   UNL     1      -1.313   6.285   7.556  0.00  0.00    -0.153 OA
BRANCH  11  14
ATOM     14  N   UNL     1      -2.531   8.175   6.531  0.00  0.00    -0.204 NA
ATOM     15  H   UNL     1      -3.172   8.141   5.803  0.00  0.00    +0.144 HD
ATOM     16  H   UNL     1      -1.888   8.899   6.578  0.00  0.00    +0.144 HD
ENDBRANCH  11  14
ENDBRANCH   7  11
BRANCH  10  17
ATOM     17  O   UNL     1      -6.868   3.236   6.330  0.00  0.00    -0.494 OA
ATOM     18  C   UNL     1      -8.161   3.517   6.872  0.00  0.00    +0.277 C 
ENDBRANCH  10  17
ENDBRANCH   2   5
BRANCH   1  21
ATOM     19  C   UNL     1      -1.535   1.219   3.514  0.00  0.00    +0.270 C 
ATOM     20  O   UNL     1      -0.646   1.993   3.798  0.00  0.00    -0.270 OA
ATOM     21  N   UNL     1      -2.780   1.420   3.988  0.00  0.00    -0.231 N 
ATOM     22  H   UNL     1      -3.492   0.801   3.761  0.00  0.00    +0.173 HD
BRANCH  19  23
ATOM     23  C   UNL     1      -1.247   0.033   2.630  0.00  0.00    +0.257 C 
ATOM     24  C   UNL     1      -1.567  -1.257   3.388  0.00  0.00    +0.062 C 
BRANCH  23  25
ATOM     25  O   UNL     1       0.133   0.038   2.259  0.00  0.00    -0.479 OA
BRANCH  25  32
ATOM     26  C   UNL     1       0.986  -2.654   2.228  0.00  0.00    +0.047 C 
ATOM     27  C   UNL     1       0.875  -1.822   0.976  0.00  0.00    -0.007 A 
ATOM     28  C   UNL     1       1.192  -2.374  -0.250  0.00  0.00    +0.027 A 
ATOM     29  C   UNL     1       1.091  -1.610  -1.400  0.00  0.00    +0.042 A 
ATOM     30  C   UNL     1       0.672  -0.293  -1.323  0.00  0.00    +0.027 A 
ATOM     31  C   UNL     1       0.355   0.262  -0.099  0.00  0.00    -0.007 A 
ATOM     32  C   UNL     1       0.450  -0.504   1.054  0.00  0.00    +0.127 A 
ATOM     33  C   UNL     1      -0.099   1.696  -0.016  0.00  0.00    +0.047 C 
ATOM     34 CL   UNL     1       1.490  -2.305  -2.940  0.00  0.00    -0.084 Cl
ENDBRANCH  25  32
ENDBRANCH  23  25
ENDBRANCH  19  23
ENDBRANCH   1  21
TORSDOF 8
