REMARK  Name = ZINC39969263
REMARK  10 active torsions:
REMARK  status: ('A' for Active; 'I' for Inactive)
REMARK    1  A    between atoms: C_1  and  C_2
REMARK    2  A    between atoms: C_3  and  C_12
REMARK    3  A    between atoms: C_4  and  C_11
REMARK    4  A    between atoms: C_12  and  C_13
REMARK    5  A    between atoms: C_13  and  C_14
REMARK    6  A    between atoms: N_16  and  C_17
REMARK    7  A    between atoms: C_17  and  C_18
REMARK    8  A    between atoms: C_18  and  C_20
REMARK    9  A    between atoms: C_18  and  N_25
REMARK   10  A    between atoms: C_28  and  C_31
REMARK                            x       y       z     vdW  Elec       q    Type
REMARK                         _______ _______ _______ _____ _____    ______ ____
ROOT
ATOM      1  C   UNL     1      -4.227   1.506   1.283  0.00  0.00    +0.213 C 
ATOM      2  O   UNL     1      -4.892   1.694   0.287  0.00  0.00    -0.276 OA
ATOM      3  N   UNL     1      -4.739   1.787   2.498  0.00  0.00    -0.317 N 
ATOM      4  H   UNL     1      -4.207   1.636   3.295  0.00  0.00    +0.149 HD
ENDROOT
BRANCH   1   5
ATOM      5  C   UNL     1      -2.829   0.957   1.164  0.00  0.00    +0.100 C 
BRANCH   5   6
ATOM      6  C   UNL     1      -2.496   0.726  -0.312  0.00  0.00    +0.048 C 
BRANCH   6   9
ATOM      7  C   UNL     1      -0.211   2.532  -0.371  0.00  0.00    +0.066 C 
ATOM      8  C   UNL     1       0.003   1.043  -0.460  0.00  0.00    +0.047 A 
ATOM      9  C   UNL     1      -1.097   0.177  -0.431  0.00  0.00    -0.005 A 
ATOM     10  C   UNL     1      -0.890  -1.162  -0.512  0.00  0.00    +0.048 A 
ATOM     11  N   UNL     1       0.383  -1.627  -0.619  0.00  0.00    -0.201 N 
ATOM     12  C   UNL     1       1.435  -0.756  -0.644  0.00  0.00    +0.253 A 
ATOM     13  N   UNL     1       1.221   0.563  -0.569  0.00  0.00    -0.216 NA
ATOM     14  N   UNL     1       2.543  -1.481  -0.753  0.00  0.00    -0.197 NA
ATOM     15  C   UNL     1       2.233  -2.769  -0.798  0.00  0.00    +0.247 A 
ATOM     16  N   UNL     1       0.932  -2.913  -0.720  0.00  0.00    -0.152 NA
ATOM     17  C   UNL     1      -2.054  -2.119  -0.484  0.00  0.00    +0.066 C 
ENDBRANCH   6   9
ENDBRANCH   5   6
ENDBRANCH   1   5
BRANCH   3  18
ATOM     18  C   UNL     1      -6.098   2.321   2.614  0.00  0.00    +0.094 C 
BRANCH  18  19
ATOM     19  C   UNL     1      -6.471   2.449   4.093  0.00  0.00    -0.013 C 
BRANCH  19  20
ATOM     20  N   UNL     1      -5.458   3.257   4.785  0.00  0.00    +0.386 N 
ATOM     21  C   UNL     1      -5.388   4.586   4.167  0.00  0.00    -0.078 C 
ATOM     22  C   UNL     1      -4.278   5.404   4.831  0.00  0.00    -0.015 C 
ATOM     23  C   UNL     1      -4.583   5.549   6.325  0.00  0.00    -0.018 C 
ATOM     24  C   UNL     1      -4.727   4.155   6.944  0.00  0.00    -0.015 C 
ATOM     25  C   UNL     1      -5.820   3.384   6.202  0.00  0.00    -0.078 C 
ATOM     26  C   UNL     1      -3.438   6.297   7.010  0.00  0.00    +0.007 C 
ATOM     27  H   UNL     1      -4.559   2.805   4.708  0.00  0.00    -0.081 HD
ENDBRANCH  19  20
BRANCH  19  28
ATOM     28  C   UNL     1      -6.533   1.079   4.716  0.00  0.00    -0.022 A 
ATOM     29  C   UNL     1      -7.617   0.308   4.977  0.00  0.00    +0.009 A 
ATOM     30  C   UNL     1      -7.433  -0.932   5.560  0.00  0.00    +0.008 A 
ATOM     31  C   UNL     1      -6.174  -1.340   5.854  0.00  0.00    +0.045 A 
ATOM     32  S   UNL     1      -5.197   0.045   5.295  0.00  0.00    -0.103 S 
ENDBRANCH  19  28
ENDBRANCH  18  19
ENDBRANCH   3  18
TORSDOF 7
