REMARK  Name = ZINC12872990
REMARK  11 active torsions:
REMARK  status: ('A' for Active; 'I' for Inactive)
REMARK    1  A    between atoms: C_1  and  C_2
REMARK    2  A    between atoms: C_2  and  C_3
REMARK    3  A    between atoms: C_3  and  O_4
REMARK    4  A    between atoms: O_4  and  C_5
REMARK    5  A    between atoms: C_8  and  C_14
REMARK    6  A    between atoms: C_10  and  O_11
REMARK    7  A    between atoms: O_11  and  C_12
REMARK    8  A    between atoms: C_12  and  C_13
REMARK    9  A    between atoms: N_20  and  C_35
REMARK   10  A    between atoms: C_23  and  C_34
REMARK   11  A    between atoms: C_39  and  C_41
REMARK                            x       y       z     vdW  Elec       q    Type
REMARK                         _______ _______ _______ _____ _____    ______ ____
ROOT
ATOM      1  C   UNL     1       0.674   6.430   0.061  0.00  0.00    +0.069 C 
ATOM      2  C   UNL     1      -0.076   7.723  -0.293  0.00  0.00    +0.123 C 
ATOM      3  N   UNL     1      -1.389   7.666   0.352  0.00  0.00    -0.265 N 
ATOM      4  C   UNL     1      -1.906   8.407   1.333  0.00  0.00    +0.317 C 
ATOM      5  O   UNL     1      -1.445   9.470   1.699  0.00  0.00    -0.252 OA
ATOM      6  N   UNL     1      -2.997   7.835   1.867  0.00  0.00    -0.192 N 
ATOM      7  C   UNL     1      -3.358   6.707   1.193  0.00  0.00    +0.257 C 
ATOM      8  O   UNL     1      -4.258   5.938   1.457  0.00  0.00    -0.272 OA
ATOM      9  C   UNL     1      -2.388   6.616   0.040  0.00  0.00    +0.153 C 
ATOM     10  C   UNL     1      -1.622   5.314   0.059  0.00  0.00    +0.054 A 
ATOM     11  C   UNL     1      -0.271   5.256   0.048  0.00  0.00    -0.008 A 
ATOM     12  C   UNL     1       0.081   3.847   0.042  0.00  0.00    +0.004 A 
ATOM     13  C   UNL     1       1.311   3.183   0.023  0.00  0.00    +0.010 A 
ATOM     14  C   UNL     1       1.274   1.810   0.029  0.00  0.00    +0.001 A 
ATOM     15  C   UNL     1       0.081   1.106   0.053  0.00  0.00    +0.002 A 
ATOM     16  C   UNL     1      -1.150   1.738   0.065  0.00  0.00    +0.026 A 
ATOM     17  C   UNL     1      -1.143   3.132   0.064  0.00  0.00    +0.047 A 
ATOM     18  N   UNL     1      -2.151   4.052   0.074  0.00  0.00    -0.356 N 
ATOM     19  H   UNL     1      -3.098   3.843   0.090  0.00  0.00    +0.166 HD
ATOM     20  C   UNL     1      -3.074   6.855  -1.307  0.00  0.00    +0.048 C 
ENDROOT
BRANCH   6  21
ATOM     21  C   UNL     1      -3.688   8.340   2.978  0.00  0.00    +0.046 A 
ATOM     22  C   UNL     1      -4.882   7.757   3.378  0.00  0.00    +0.024 A 
ATOM     23  C   UNL     1      -5.558   8.254   4.476  0.00  0.00    +0.002 A 
ATOM     24  C   UNL     1      -5.051   9.338   5.169  0.00  0.00    +0.003 A 
ATOM     25  C   UNL     1      -3.864   9.924   4.769  0.00  0.00    -0.049 A 
ATOM     26  C   UNL     1      -3.182   9.428   3.675  0.00  0.00    +0.027 A 
ATOM     27  C   UNL     1      -3.316  11.105   5.527  0.00  0.00    +0.044 C 
ENDBRANCH   6  21
BRANCH   1  31
ATOM     28  C   UNL     1       3.782   5.771  -2.803  0.00  0.00    +0.162 A 
ATOM     29  C   UNL     1       2.460   5.838  -3.213  0.00  0.00    +0.050 A 
ATOM     30  C   UNL     1       1.457   6.045  -2.285  0.00  0.00    +0.008 A 
ATOM     31  C   UNL     1       1.771   6.198  -0.947  0.00  0.00    -0.035 A 
ATOM     32  C   UNL     1       3.087   6.133  -0.530  0.00  0.00    +0.053 A 
ATOM     33  C   UNL     1       4.097   5.920  -1.456  0.00  0.00    +0.162 A 
BRANCH  28  34
ATOM     34  O   UNL     1       4.769   5.562  -3.715  0.00  0.00    -0.488 OA
BRANCH  34  35
ATOM     35  C   UNL     1       4.372   5.419  -5.080  0.00  0.00    +0.229 C 
BRANCH  35  37
ATOM     36  C   UNL     1       5.184   5.038  -7.412  0.00  0.00    +0.007 C 
ATOM     37  C   UNL     1       5.609   5.192  -5.950  0.00  0.00    +0.038 C 
ENDBRANCH  35  37
ENDBRANCH  34  35
ENDBRANCH  28  34
BRANCH  33  38
ATOM     38  O   UNL     1       5.393   5.855  -1.048  0.00  0.00    -0.489 OA
BRANCH  38  39
ATOM     39  C   UNL     1       5.641   6.015   0.350  0.00  0.00    +0.226 C 
ATOM     40  C   UNL     1       7.144   5.913   0.616  0.00  0.00    +0.048 C 
ENDBRANCH  38  39
ENDBRANCH  33  38
ENDBRANCH   1  31
TORSDOF 7
