REMARK  Name = ZINC55096801
REMARK  2 active torsions:
REMARK  status: ('A' for Active; 'I' for Inactive)
REMARK    1  A    between atoms: C_12  and  C_14
REMARK    2  A    between atoms: C_17  and  C_20
REMARK                            x       y       z     vdW  Elec       q    Type
REMARK                         _______ _______ _______ _____ _____    ______ ____
ROOT
ATOM      1  C   UNL     1      -0.017   1.378   0.010  0.00  0.00    +0.002 A 
ATOM      2  C   UNL     1       1.167   2.094   0.002  0.00  0.00    +0.002 A 
ATOM      3  C   UNL     1       2.381   1.430  -0.011  0.00  0.00    +0.025 A 
ATOM      4  C   UNL     1       2.406   0.047  -0.018  0.00  0.00    +0.058 A 
ATOM      5  C   UNL     1       1.213  -0.677  -0.014  0.00  0.00    +0.055 A 
ATOM      6  C   UNL     1       0.002  -0.004   0.002  0.00  0.00    +0.025 A 
ATOM      7  N   UNL     1       1.254  -2.076  -0.032  0.00  0.00    -0.283 N 
ATOM      8  C   UNL     1       2.399  -2.734   0.232  0.00  0.00    +0.235 C 
ATOM      9  O   UNL     1       2.422  -3.945   0.168  0.00  0.00    -0.274 OA
ATOM     10  C   UNL     1       3.652  -1.984   0.605  0.00  0.00    +0.209 C 
ATOM     11  N   UNL     1       3.622  -0.656  -0.025  0.00  0.00    -0.258 N 
ATOM     12  C   UNL     1       4.725  -0.130  -0.593  0.00  0.00    +0.264 C 
ATOM     13  O   UNL     1       4.678   0.967  -1.108  0.00  0.00    -0.271 OA
ATOM     14  H   UNL     1       0.450  -2.577  -0.237  0.00  0.00    +0.155 HD
ENDROOT
BRANCH  12  15
ATOM     15  C   UNL     1       6.018  -0.905  -0.587  0.00  0.00    +0.296 C 
ATOM     16  C   UNL     1       5.916  -2.157  -1.491  0.00  0.00    +0.117 C 
ATOM     17  C   UNL     1       6.468  -1.656  -2.812  0.00  0.00    +0.098 C 
ATOM     18  N   UNL     1       7.092  -0.542  -2.594  0.00  0.00    -0.088 NA
ATOM     19  O   UNL     1       7.069  -0.159  -1.232  0.00  0.00    -0.380 OA
BRANCH  17  20
ATOM     20  C   UNL     1       6.320  -2.318  -4.112  0.00  0.00    +0.038 A 
ATOM     21  C   UNL     1       6.798  -1.926  -5.350  0.00  0.00    +0.019 A 
ATOM     22  C   UNL     1       6.528  -2.722  -6.438  0.00  0.00    +0.028 A 
ATOM     23  C   UNL     1       5.806  -3.863  -6.264  0.00  0.00    +0.079 A 
ATOM     24  S   UNL     1       5.484  -3.845  -4.509  0.00  0.00    -0.075 S 
ATOM     25 CL   UNL     1       5.325  -5.038  -7.448  0.00  0.00    -0.076 Cl
ENDBRANCH  17  20
ENDBRANCH  12  15
TORSDOF 2
