REMARK  Name = ZINC11873957
REMARK  7 active torsions:
REMARK  status: ('A' for Active; 'I' for Inactive)
REMARK    1  A    between atoms: N_9  and  C_10
REMARK    2  A    between atoms: C_10  and  C_11
REMARK    3  A    between atoms: C_11  and  N_12
REMARK    4  A    between atoms: C_13  and  C_15
REMARK    5  A    between atoms: C_15  and  C_16
REMARK    6  A    between atoms: C_23  and  C_24
REMARK    7  A    between atoms: C_23  and  N_55
REMARK                            x       y       z     vdW  Elec       q    Type
REMARK                         _______ _______ _______ _____ _____    ______ ____
ROOT
ATOM      1  C   UNL     1       4.079  -4.436  -3.962  0.00  0.00    +0.028 C 
ATOM      2  C   UNL     1       2.687  -4.119  -4.429  0.00  0.00    +0.200 C 
ATOM      3  O   UNL     1       1.761  -4.314  -3.671  0.00  0.00    -0.278 OA
ATOM      4  N   UNL     1       2.426  -3.631  -5.646  0.00  0.00    -0.318 N 
ATOM      5  C   UNL     1       3.470  -3.327  -6.620  0.00  0.00    +0.085 C 
ATOM      6  C   UNL     1       4.766  -4.045  -6.240  0.00  0.00    -0.058 C 
ATOM      7  H   UNL     1       1.501  -3.471  -5.893  0.00  0.00    +0.149 HD
ATOM      8  N   UNL     1       5.057  -3.745  -4.824  0.00  0.00    +0.391 N 
ATOM      9  H   UNL     1       4.981  -2.733  -4.673  0.00  0.00    -0.080 HD
ENDROOT
BRANCH   1  10
ATOM     10  C   UNL     1       4.255  -3.950  -2.522  0.00  0.00    +0.089 C 
BRANCH  10  12
ATOM     11  N   UNL     1       4.026  -1.826  -1.275  0.00  0.00    -0.314 N 
ATOM     12  C   UNL     1       4.035  -2.460  -2.464  0.00  0.00    +0.212 C 
ATOM     13  O   UNL     1       3.866  -1.832  -3.488  0.00  0.00    -0.276 OA
ATOM     14  H   UNL     1       4.160  -2.329  -0.456  0.00  0.00    +0.149 HD
BRANCH  11  15
ATOM     15  C   UNL     1       3.812  -0.378  -1.219  0.00  0.00    +0.125 C 
BRANCH  15  16
ATOM     16  C   UNL     1       3.848   0.087   0.238  0.00  0.00    +0.140 C 
BRANCH  16  25
ATOM     17  C   UNL     1       0.281   3.942   0.360  0.00  0.00    +0.001 A 
ATOM     18  C   UNL     1       0.046   2.575   0.297  0.00  0.00    +0.002 A 
ATOM     19  C   UNL     1       1.095   1.682   0.276  0.00  0.00    +0.026 A 
ATOM     20  C   UNL     1       2.404   2.153   0.307  0.00  0.00    +0.049 A 
ATOM     21  C   UNL     1       2.636   3.539   0.365  0.00  0.00    -0.000 A 
ATOM     22  C   UNL     1       1.558   4.426   0.391  0.00  0.00    +0.010 A 
ATOM     23  C   UNL     1       4.092   3.705   0.387  0.00  0.00    +0.027 A 
ATOM     24  C   UNL     1       4.627   2.475   0.342  0.00  0.00    +0.087 A 
ATOM     25  N   UNL     1       3.634   1.535   0.295  0.00  0.00    -0.345 N 
ENDBRANCH  16  25
ENDBRANCH  15  16
ENDBRANCH  11  15
ENDBRANCH  10  12
ENDBRANCH   1  10
BRANCH   8  26
ATOM     26  C   UNL     1       6.430  -4.182  -4.483  0.00  0.00    -0.039 C 
BRANCH  26  27
ATOM     27  C   UNL     1       7.414  -3.224  -5.102  0.00  0.00    -0.026 A 
ATOM     28  C   UNL     1       7.908  -2.165  -4.362  0.00  0.00    +0.005 A 
ATOM     29  C   UNL     1       8.811  -1.286  -4.929  0.00  0.00    +0.003 A 
ATOM     30  C   UNL     1       9.223  -1.462  -6.237  0.00  0.00    +0.041 A 
ATOM     31  C   UNL     1       8.730  -2.520  -6.981  0.00  0.00    +0.159 A 
ATOM     32  C   UNL     1       7.828  -3.406  -6.410  0.00  0.00    +0.160 A 
ATOM     33  F   UNL     1       7.351  -4.444  -7.132  0.00  0.00    -0.202 F 
ATOM     34  F   UNL     1       9.132  -2.693  -8.259  0.00  0.00    -0.202 F 
ENDBRANCH  26  27
ENDBRANCH   8  26
TORSDOF 7
