REMARK  Name = ZINC44890430
REMARK  9 active torsions:
REMARK  status: ('A' for Active; 'I' for Inactive)
REMARK    1  A    between atoms: C_1  and  O_2
REMARK    2  A    between atoms: O_2  and  C_3
REMARK    3  A    between atoms: C_3  and  C_5
REMARK    4  A    between atoms: C_5  and  C_7
REMARK    5  A    between atoms: C_5  and  N_11
REMARK    6  A    between atoms: C_7  and  C_8
REMARK    7  A    between atoms: C_8  and  S_9
REMARK    8  A    between atoms: S_9  and  C_10
REMARK    9  A    between atoms: C_23  and  C_25
REMARK                            x       y       z     vdW  Elec       q    Type
REMARK                         _______ _______ _______ _____ _____    ______ ____
ROOT
ATOM      1  N   UNL     1      -2.686  -2.382   2.295  0.00  0.00    -0.286 N 
ATOM      2  C   UNL     1      -3.323  -2.693   1.148  0.00  0.00    +0.304 C 
ATOM      3  O   UNL     1      -2.768  -2.525   0.080  0.00  0.00    -0.253 OA
ATOM      4  N   UNL     1      -4.575  -3.189   1.187  0.00  0.00    -0.273 N 
ATOM      5  C   UNL     1      -5.247  -3.637  -0.042  0.00  0.00    +0.116 C 
ATOM      6  C   UNL     1      -5.505  -5.147   0.045  0.00  0.00    +0.076 C 
ATOM      7  C   UNL     1      -6.064  -5.467   1.409  0.00  0.00    +0.066 A 
ATOM      8  C   UNL     1      -5.974  -4.651   2.481  0.00  0.00    +0.064 A 
ATOM      9  N   UNL     1      -6.586  -5.281   3.520  0.00  0.00    -0.346 N 
ATOM     10  H   UNL     1      -6.680  -4.944   4.425  0.00  0.00    +0.167 HD
ATOM     11  C   UNL     1      -7.039  -6.467   3.051  0.00  0.00    +0.197 A 
ATOM     12  N   UNL     1      -6.722  -6.568   1.787  0.00  0.00    -0.240 NA
ATOM     13  C   UNL     1      -5.305  -3.304   2.463  0.00  0.00    +0.156 C 
ATOM     14  H   UNL     1      -3.154  -2.443   3.142  0.00  0.00    +0.151 HD
ENDROOT
BRANCH  13  15
ATOM     15  C   UNL     1      -6.346  -2.218   2.558  0.00  0.00    -0.020 A 
ATOM     16  C   UNL     1      -6.245  -1.249   3.539  0.00  0.00    +0.009 A 
ATOM     17  C   UNL     1      -7.198  -0.252   3.628  0.00  0.00    +0.040 A 
ATOM     18  C   UNL     1      -8.254  -0.223   2.733  0.00  0.00    +0.142 A 
ATOM     19  C   UNL     1      -8.355  -1.194   1.750  0.00  0.00    +0.076 A 
ATOM     20  C   UNL     1      -7.396  -2.188   1.661  0.00  0.00    +0.028 A 
ATOM     21 CL   UNL     1      -9.678  -1.161   0.628  0.00  0.00    -0.081 Cl
ATOM     22  F   UNL     1      -9.187   0.751   2.819  0.00  0.00    -0.204 F 
ENDBRANCH  13  15
BRANCH   1  23
ATOM     23  C   UNL     1      -1.285  -1.954   2.261  0.00  0.00    +0.184 C 
BRANCH  23  24
ATOM     24  C   UNL     1      -0.389  -3.165   2.260  0.00  0.00    +0.327 C 
ATOM     25  O   UNL     1      -0.871  -4.273   2.285  0.00  0.00    -0.249 OA
BRANCH  24  27
ATOM     26  C   UNL     1       1.733  -4.205   2.232  0.00  0.00    +0.280 C 
ATOM     27  O   UNL     1       0.944  -3.014   2.232  0.00  0.00    -0.467 OA
ENDBRANCH  24  27
ENDBRANCH  23  24
BRANCH  23  28
ATOM     28  C   UNL     1      -0.984  -1.098   3.493  0.00  0.00    +0.044 C 
BRANCH  28  29
ATOM     29  C   UNL     1      -1.804   0.192   3.430  0.00  0.00    +0.071 C 
BRANCH  29  30
ATOM     30  S   UNL     1      -1.447   1.207   4.891  0.00  0.00    -0.164 S 
ATOM     31  C   UNL     1      -2.484   2.679   4.667  0.00  0.00    +0.084 C 
ENDBRANCH  29  30
ENDBRANCH  28  29
ENDBRANCH  23  28
ENDBRANCH   1  23
TORSDOF 7
