REMARK  Name = ZINC12217410
REMARK  5 active torsions:
REMARK  status: ('A' for Active; 'I' for Inactive)
REMARK    1  A    between atoms: C_4  and  N_7
REMARK    2  A    between atoms: C_14  and  C_16
REMARK    3  A    between atoms: N_18  and  C_29
REMARK    4  A    between atoms: C_20  and  C_23
REMARK    5  A    between atoms: N_25  and  C_26
REMARK                            x       y       z     vdW  Elec       q    Type
REMARK                         _______ _______ _______ _____ _____    ______ ____
ROOT
ATOM      1  C   UNL     1      -5.583  -2.194   1.552  0.00  0.00    +0.100 A 
ATOM      2  C   UNL     1      -4.404  -2.896   1.422  0.00  0.00    +0.102 A 
ATOM      3  N   UNL     1      -4.242  -4.104   1.987  0.00  0.00    -0.349 N 
ATOM      4  C   UNL     1      -5.199  -4.719   2.701  0.00  0.00    +0.102 A 
ATOM      5  C   UNL     1      -6.430  -4.134   2.906  0.00  0.00    +0.100 A 
ATOM      6  C   UNL     1      -6.679  -2.806   2.321  0.00  0.00    +0.206 A 
ATOM      7  O   UNL     1      -7.748  -2.237   2.467  0.00  0.00    -0.286 OA
ENDROOT
BRANCH   1  15
ATOM      8  N   UNL     1      -2.896   0.186  -1.569  0.00  0.00    -0.269 N 
ATOM      9  C   UNL     1      -3.718   1.222  -0.960  0.00  0.00    +0.132 C 
ATOM     10  C   UNL     1      -5.170   0.753  -0.828  0.00  0.00    +0.128 C 
ATOM     11  N   UNL     1      -5.161  -0.604  -0.255  0.00  0.00    -0.287 N 
ATOM     12  C   UNL     1      -4.489  -1.658  -1.029  0.00  0.00    +0.204 C 
ATOM     13  C   UNL     1      -3.196  -1.114  -1.574  0.00  0.00    +0.237 C 
ATOM     14  O   UNL     1      -2.391  -1.892  -2.039  0.00  0.00    -0.274 OA
ATOM     15  C   UNL     1      -5.744  -0.868   0.931  0.00  0.00    +0.252 C 
ATOM     16  O   UNL     1      -6.404  -0.012   1.488  0.00  0.00    -0.270 OA
BRANCH   8  20
ATOM     17  C   UNL     1       0.654   1.353  -3.411  0.00  0.00    +0.000 A 
ATOM     18  C   UNL     1       0.645   1.047  -2.062  0.00  0.00    +0.002 A 
ATOM     19  C   UNL     1      -0.531   0.663  -1.448  0.00  0.00    +0.023 A 
ATOM     20  C   UNL     1      -1.704   0.580  -2.187  0.00  0.00    +0.036 A 
ATOM     21  C   UNL     1      -1.692   0.894  -3.540  0.00  0.00    +0.023 A 
ATOM     22  C   UNL     1      -0.513   1.277  -4.148  0.00  0.00    +0.002 A 
ENDBRANCH   8  20
ENDBRANCH   1  15
BRANCH   3  23
ATOM     23  C   UNL     1      -2.959  -4.788   1.811  0.00  0.00    +0.087 C 
ATOM     24  C   UNL     1      -3.186  -6.122   1.097  0.00  0.00    +0.025 C 
ATOM     25  C   UNL     1      -1.846  -6.836   0.912  0.00  0.00    +0.002 C 
ATOM     26  C   UNL     1      -1.212  -7.092   2.281  0.00  0.00    +0.000 C 
ATOM     27  C   UNL     1      -0.984  -5.758   2.995  0.00  0.00    +0.002 C 
ATOM     28  C   UNL     1      -2.325  -5.043   3.179  0.00  0.00    +0.025 C 
ENDBRANCH   3  23
BRANCH   5  29
ATOM     29  C   UNL     1      -7.471  -4.820   3.692  0.00  0.00    +0.249 C 
ATOM     30  O   UNL     1      -8.551  -4.290   3.864  0.00  0.00    -0.270 OA
ATOM     31  N   UNL     1      -7.225  -6.035   4.220  0.00  0.00    -0.308 N 
ATOM     32  H   UNL     1      -6.362  -6.458   4.083  0.00  0.00    +0.149 HD
BRANCH  31  33
ATOM     33  C   UNL     1      -8.259  -6.718   5.001  0.00  0.00    +0.073 C 
ATOM     34  C   UNL     1      -7.828  -7.401   6.300  0.00  0.00    +0.024 C 
ATOM     35  C   UNL     1      -8.195  -8.244   5.077  0.00  0.00    +0.024 C 
ENDBRANCH  31  33
ENDBRANCH   5  29
TORSDOF 5
