REMARK  Name = ZINC06196903
REMARK  14 active torsions:
REMARK  status: ('A' for Active; 'I' for Inactive)
REMARK    1  A    between atoms: C_1  and  C_2
REMARK    2  A    between atoms: C_2  and  O_3
REMARK    3  A    between atoms: O_3  and  C_4
REMARK    4  A    between atoms: C_11  and  C_16
REMARK    5  A    between atoms: C_16  and  C_18
REMARK    6  A    between atoms: C_16  and  N_70
REMARK    7  A    between atoms: N_22  and  C_23
REMARK    8  A    between atoms: C_23  and  C_24
REMARK    9  A    between atoms: C_23  and  C_25
REMARK   10  A    between atoms: C_23  and  C_26
REMARK   11  A    between atoms: C_27  and  C_28
REMARK   12  A    between atoms: C_27  and  N_70
REMARK   13  A    between atoms: C_35  and  C_36
REMARK   14  A    between atoms: C_35  and  N_70
REMARK                            x       y       z     vdW  Elec       q    Type
REMARK                         _______ _______ _______ _____ _____    ______ ____
ROOT
ATOM      1  C   UNL     1       3.348   0.853  -0.789  0.00  0.00    +0.040 C 
ENDROOT
BRANCH   1   9
ATOM      2  C   UNL     1       6.218   2.100  -6.140  0.00  0.00    +0.121 A 
ATOM      3  C   UNL     1       5.514   3.269  -6.418  0.00  0.00    +0.047 A 
ATOM      4  C   UNL     1       4.543   3.726  -5.555  0.00  0.00    +0.030 A 
ATOM      5  C   UNL     1       4.257   3.018  -4.393  0.00  0.00    +0.049 A 
ATOM      6  C   UNL     1       4.966   1.836  -4.107  0.00  0.00    +0.002 A 
ATOM      7  C   UNL     1       5.951   1.382  -4.992  0.00  0.00    +0.055 A 
ATOM      8  C   UNL     1       4.656   1.100  -2.880  0.00  0.00    +0.017 A 
ATOM      9  C   UNL     1       3.692   1.586  -2.060  0.00  0.00    +0.011 A 
ATOM     10  C   UNL     1       3.005   2.773  -2.394  0.00  0.00    +0.251 A 
ATOM     11  O   UNL     1       2.138   3.189  -1.645  0.00  0.00    -0.268 OA
ATOM     12  N   UNL     1       3.287   3.459  -3.516  0.00  0.00    -0.322 N 
ATOM     13  H   UNL     1       2.787   4.301  -3.717  0.00  0.00    +0.169 HD
BRANCH   2  14
ATOM     14  O   UNL     1       7.174   1.664  -7.003  0.00  0.00    -0.492 OA
BRANCH  14  16
ATOM     15  C   UNL     1       8.504   1.810  -9.016  0.00  0.00    +0.048 C 
ATOM     16  C   UNL     1       7.401   2.453  -8.172  0.00  0.00    +0.225 C 
ENDBRANCH  14  16
ENDBRANCH   2  14
ENDBRANCH   1   9
BRANCH   1  17
ATOM     17  C   UNL     1       1.911   0.400  -0.843  0.00  0.00    +0.143 A 
ATOM     18  N   UNL     1       0.849   1.141  -0.646  0.00  0.00    -0.115 NA
ATOM     19  N   UNL     1      -0.190   0.391  -0.778  0.00  0.00    -0.023 NA
ATOM     20  N   UNL     1       0.182  -0.810  -1.054  0.00  0.00    -0.043 NA
ATOM     21  N   UNL     1       1.471  -0.845  -1.103  0.00  0.00    -0.225 N 
BRANCH  21  22
ATOM     22  C   UNL     1       2.299  -2.020  -1.387  0.00  0.00    +0.059 C 
ATOM     23  C   UNL     1       1.399  -3.205  -1.742  0.00  0.00    +0.036 C 
ATOM     24  C   UNL     1       3.229  -1.716  -2.562  0.00  0.00    +0.036 C 
ATOM     25  C   UNL     1       3.133  -2.366  -0.152  0.00  0.00    +0.036 C 
ENDBRANCH  21  22
ENDBRANCH   1  17
BRANCH   1  26
ATOM     26  N   UNL     1       3.514   1.768   0.360  0.00  0.00    +0.397 N 
ATOM     27  H   UNL     1       2.743   2.447   0.360  0.00  0.00    -0.079 HD
BRANCH  26  28
ATOM     28  C   UNL     1       4.795   2.496   0.244  0.00  0.00    -0.041 C 
BRANCH  28  29
ATOM     29  C   UNL     1       4.866   3.532   1.336  0.00  0.00    -0.064 A 
ATOM     30  C   UNL     1       4.260   4.762   1.162  0.00  0.00    +0.004 A 
ATOM     31  C   UNL     1       4.320   5.712   2.164  0.00  0.00    +0.038 A 
ATOM     32  C   UNL     1       4.998   5.434   3.340  0.00  0.00    +0.123 A 
ATOM     33  C   UNL     1       5.609   4.204   3.511  0.00  0.00    +0.038 A 
ATOM     34  C   UNL     1       5.543   3.254   2.509  0.00  0.00    +0.004 A 
ATOM     35  F   UNL     1       5.061   6.363   4.318  0.00  0.00    -0.205 F 
ENDBRANCH  28  29
ENDBRANCH  26  28
BRANCH  26  36
ATOM     36  C   UNL     1       3.479   1.003   1.624  0.00  0.00    -0.001 C 
BRANCH  36  37
ATOM     37  C   UNL     1       2.041   0.747   1.993  0.00  0.00    +0.089 A 
ATOM     38  C   UNL     1       1.353  -0.382   1.741  0.00  0.00    +0.042 A 
ATOM     39  C   UNL     1       0.050  -0.191   2.255  0.00  0.00    +0.041 A 
ATOM     40  C   UNL     1       0.019   1.043   2.791  0.00  0.00    +0.195 A 
ATOM     41  O   UNL     1       1.230   1.604   2.634  0.00  0.00    -0.470 OA
ENDBRANCH  36  37
ENDBRANCH  26  36
ENDBRANCH   1  26
TORSDOF 10
