REMARK  Name = ZINC12325874
REMARK  7 active torsions:
REMARK  status: ('A' for Active; 'I' for Inactive)
REMARK    1  A    between atoms: C_4  and  C_7
REMARK    2  A    between atoms: C_7  and  O_38
REMARK    3  A    between atoms: C_18  and  C_19
REMARK    4  A    between atoms: C_18  and  N_68
REMARK    5  A    between atoms: C_22  and  C_27
REMARK    6  A    between atoms: N_29  and  C_30
REMARK    7  A    between atoms: C_30  and  C_31
REMARK                            x       y       z     vdW  Elec       q    Type
REMARK                         _______ _______ _______ _____ _____    ______ ____
ROOT
ATOM      1  C   UNL     1      -0.658   2.255  -1.335  0.00  0.00    -0.024 C 
ENDROOT
BRANCH   1  11
ATOM      2  C   UNL     1       1.925   0.618   1.654  0.00  0.00    +0.091 C 
ATOM      3  C   UNL     1       0.506   0.062   1.497  0.00  0.00    +0.021 C 
ATOM      4  C   UNL     1      -0.025   0.416   0.106  0.00  0.00    -0.075 C 
ATOM      5  C   UNL     1       1.330   2.423   0.036  0.00  0.00    -0.062 C 
ATOM      6  C   UNL     1       1.897   2.132   1.427  0.00  0.00    +0.012 C 
ATOM      7  C   UNL     1       3.317   2.691   1.526  0.00  0.00    +0.005 C 
ATOM      8  C   UNL     1       3.285   4.203   1.294  0.00  0.00    +0.000 C 
ATOM      9  C   UNL     1       2.713   4.498  -0.094  0.00  0.00    -0.002 C 
ATOM     10  C   UNL     1       1.294   3.935  -0.192  0.00  0.00    -0.015 C 
ATOM     11  N   UNL     1      -0.045   1.887  -0.042  0.00  0.00    +0.386 N 
ATOM     12  H   UNL     1      -0.604   2.290   0.719  0.00  0.00    -0.081 HD
BRANCH   2  16
ATOM     13  C   UNL     1       4.503  -1.212  -1.218  0.00  0.00    +0.000 A 
ATOM     14  C   UNL     1       5.012  -0.295  -0.317  0.00  0.00    +0.000 A 
ATOM     15  C   UNL     1       4.178   0.296   0.613  0.00  0.00    +0.006 A 
ATOM     16  C   UNL     1       2.834  -0.027   0.641  0.00  0.00    -0.016 A 
ATOM     17  C   UNL     1       2.326  -0.947  -0.257  0.00  0.00    +0.006 A 
ATOM     18  C   UNL     1       3.159  -1.536  -1.190  0.00  0.00    +0.000 A 
ENDBRANCH   2  16
BRANCH   2  19
ATOM     19  O   UNL     1       2.403   0.341   2.972  0.00  0.00    -0.384 OA
ATOM     20  H   UNL     1       2.441  -0.601   3.187  0.00  0.00    +0.211 HD
ENDBRANCH   2  19
ENDBRANCH   1  11
BRANCH   1  21
ATOM     21  C   UNL     1      -2.119   1.884  -1.304  0.00  0.00    +0.003 A 
ATOM     22  C   UNL     1      -3.055   2.866  -1.259  0.00  0.00    +0.020 A 
ATOM     23  C   UNL     1      -4.411   2.539  -1.235  0.00  0.00    +0.020 A 
ATOM     24  C   UNL     1      -4.782   1.196  -1.246  0.00  0.00    +0.101 A 
ATOM     25  C   UNL     1      -3.766   0.206  -1.288  0.00  0.00    +0.261 A 
ATOM     26  O   UNL     1      -4.064  -0.976  -1.299  0.00  0.00    -0.267 OA
ATOM     27  N   UNL     1      -2.472   0.576  -1.315  0.00  0.00    -0.327 N 
ATOM     28  H   UNL     1      -1.781  -0.104  -1.343  0.00  0.00    +0.169 HD
BRANCH  24  29
ATOM     29  C   UNL     1      -6.201   0.812  -1.216  0.00  0.00    +0.250 C 
ATOM     30  O   UNL     1      -7.059   1.662  -1.071  0.00  0.00    -0.270 OA
ATOM     31  N   UNL     1      -6.551  -0.483  -1.349  0.00  0.00    -0.307 N 
ATOM     32  H   UNL     1      -5.867  -1.169  -1.391  0.00  0.00    +0.149 HD
BRANCH  31  33
ATOM     33  C   UNL     1      -7.966  -0.854  -1.429  0.00  0.00    +0.141 C 
BRANCH  33  34
ATOM     34  C   UNL     1      -8.086  -2.350  -1.573  0.00  0.00    -0.012 A 
ATOM     35  C   UNL     1      -8.315  -2.909  -2.816  0.00  0.00    +0.006 A 
ATOM     36  C   UNL     1      -8.421  -4.280  -2.949  0.00  0.00    +0.000 A 
ATOM     37  C   UNL     1      -8.306  -5.094  -1.837  0.00  0.00    +0.001 A 
ATOM     38  C   UNL     1      -8.081  -4.536  -0.593  0.00  0.00    +0.020 A 
ATOM     39  C   UNL     1      -7.971  -3.163  -0.460  0.00  0.00    +0.046 A 
ATOM     40 CL   UNL     1      -7.690  -2.462   1.103  0.00  0.00    -0.083 Cl
ENDBRANCH  33  34
ENDBRANCH  31  33
ENDBRANCH  24  29
ENDBRANCH   1  21
TORSDOF 7
