REMARK  Name = ZINC08496235
REMARK  6 active torsions:
REMARK  status: ('A' for Active; 'I' for Inactive)
REMARK    1  A    between atoms: C_1  and  O_2
REMARK    2  A    between atoms: O_2  and  C_3
REMARK    3  A    between atoms: C_8  and  N_9
REMARK    4  A    between atoms: C_10  and  C_12
REMARK    5  A    between atoms: C_16  and  N_29
REMARK    6  A    between atoms: N_22  and  C_23
REMARK                            x       y       z     vdW  Elec       q    Type
REMARK                         _______ _______ _______ _____ _____    ______ ____
ROOT
ATOM      1  C   UNL     1      -1.270   5.918   0.330  0.00  0.00    +0.098 A 
ATOM      2  C   UNL     1      -0.068   5.300   0.007  0.00  0.00    +0.030 A 
ATOM      3  C   UNL     1      -0.053   3.836  -0.028  0.00  0.00    +0.020 A 
ATOM      4  C   UNL     1       1.156   3.132  -0.077  0.00  0.00    +0.044 A 
ATOM      5  C   UNL     1       1.144   1.766  -0.102  0.00  0.00    +0.127 A 
ATOM      6  C   UNL     1      -0.057   1.071  -0.080  0.00  0.00    +0.036 A 
ATOM      7  C   UNL     1      -1.260   1.746  -0.040  0.00  0.00    +0.049 A 
ATOM      8  C   UNL     1      -1.272   3.132  -0.010  0.00  0.00    +0.138 A 
ATOM      9  O   UNL     1      -2.444   3.812   0.030  0.00  0.00    -0.439 OA
ATOM     10  C   UNL     1      -2.424   5.041   0.608  0.00  0.00    +0.212 A 
ATOM     11  N   UNL     1      -3.403   5.437   1.391  0.00  0.00    -0.325 N 
ATOM     12  H   UNL     1      -3.332   6.401   1.917  0.00  0.00    +0.169 HD
ENDROOT
BRANCH  11  13
ATOM     13  C   UNL     1      -4.510   4.651   1.553  0.00  0.00    +0.042 A 
ATOM     14  C   UNL     1      -5.647   4.869   0.771  0.00  0.00    +0.026 A 
ATOM     15  C   UNL     1      -6.758   4.069   0.936  0.00  0.00    +0.002 A 
ATOM     16  C   UNL     1      -6.753   3.058   1.881  0.00  0.00    +0.000 A 
ATOM     17  C   UNL     1      -5.632   2.839   2.663  0.00  0.00    +0.002 A 
ATOM     18  C   UNL     1      -4.512   3.628   2.506  0.00  0.00    +0.026 A 
ENDBRANCH  11  13
BRANCH   1  20
ATOM     19  N   UNL     1      -0.313   8.158   0.134  0.00  0.00    -0.278 N 
ATOM     20  C   UNL     1      -1.386   7.385   0.393  0.00  0.00    +0.253 C 
ATOM     21  O   UNL     1      -2.451   7.898   0.680  0.00  0.00    -0.270 OA
ATOM     22  H   UNL     1       0.632   7.697  -0.190  0.00  0.00    +0.155 HD
BRANCH  19  28
ATOM     23  C   UNL     1       0.745  10.299   0.531  0.00  0.00    +0.141 A 
ATOM     24  C   UNL     1       0.651  11.674   0.670  0.00  0.00    +0.047 A 
ATOM     25  C   UNL     1      -0.577  12.299   0.557  0.00  0.00    +0.004 A 
ATOM     26  C   UNL     1      -1.714  11.555   0.304  0.00  0.00    +0.002 A 
ATOM     27  C   UNL     1      -1.629  10.183   0.159  0.00  0.00    +0.027 A 
ATOM     28  C   UNL     1      -0.401   9.548   0.276  0.00  0.00    +0.076 A 
BRANCH  23  30
ATOM     29  C   UNL     1       3.083  10.515   0.903  0.00  0.00    +0.277 C 
ATOM     30  O   UNL     1       1.952   9.682   0.641  0.00  0.00    -0.493 OA
ENDBRANCH  23  30
ENDBRANCH  19  28
ENDBRANCH   1  20
BRANCH   5  31
ATOM     31  N   UNL     1       2.422   1.021  -0.153  0.00  0.00    +0.056 N 
ATOM     32  O   UNL     1       2.417  -0.197  -0.175  0.00  0.00    -0.126 OA
ATOM     33  O   UNL     1       3.479   1.627  -0.172  0.00  0.00    -0.126 OA
ENDBRANCH   5  31
TORSDOF 5
