REMARK  Name = ZINC09097574
REMARK  8 active torsions:
REMARK  status: ('A' for Active; 'I' for Inactive)
REMARK    1  A    between atoms: C_1  and  C_2
REMARK    2  A    between atoms: C_5  and  O_23
REMARK    3  A    between atoms: C_6  and  C_8
REMARK    4  A    between atoms: C_8  and  O_10
REMARK    5  A    between atoms: O_10  and  C_11
REMARK    6  A    between atoms: C_11  and  C_12
REMARK    7  A    between atoms: N_14  and  C_15
REMARK    8  A    between atoms: C_18  and  C_22
REMARK                            x       y       z     vdW  Elec       q    Type
REMARK                         _______ _______ _______ _____ _____    ______ ____
ROOT
ATOM      1  C   UNL     1      -3.702   2.128  -0.184  0.00  0.00    +0.328 C 
ENDROOT
BRANCH   1   2
ATOM      2  C   UNL     1      -2.395   1.385  -0.081  0.00  0.00    +0.255 C 
ATOM      3  O   UNL     1      -2.384   0.173  -0.088  0.00  0.00    -0.272 OA
ATOM      4  N   UNL     1      -1.238   2.069   0.019  0.00  0.00    -0.281 N 
ATOM      5  H   UNL     1      -1.251   3.035   0.105  0.00  0.00    +0.155 HD
BRANCH   4   6
ATOM      6  C   UNL     1      -0.016   1.385  -0.001  0.00  0.00    +0.052 A 
ATOM      7  C   UNL     1       0.076   0.144  -0.617  0.00  0.00    +0.025 A 
ATOM      8  C   UNL     1       1.283  -0.526  -0.640  0.00  0.00    +0.005 A 
ATOM      9  C   UNL     1       2.401   0.038  -0.052  0.00  0.00    -0.049 A 
ATOM     10  C   UNL     1       2.313   1.274   0.561  0.00  0.00    +0.025 A 
ATOM     11  C   UNL     1       1.108   1.950   0.589  0.00  0.00    +0.062 A 
ATOM     12 CL   UNL     1       0.999   3.502   1.359  0.00  0.00    -0.082 Cl
ATOM     13  C   UNL     1       3.716  -0.696  -0.080  0.00  0.00    +0.044 C 
ENDBRANCH   4   6
ENDBRANCH   1   2
BRANCH   1  14
ATOM     14  O   UNL     1      -4.793   1.175  -0.280  0.00  0.00    -0.452 OA
BRANCH  14  15
ATOM     15  C   UNL     1      -6.039   1.679  -0.380  0.00  0.00    +0.343 C 
ATOM     16  O   UNL     1      -6.208   2.883  -0.386  0.00  0.00    -0.245 OA
BRANCH  15  22
ATOM     17  C   UNL     1      -7.885  -2.949  -0.563  0.00  0.00    +0.044 C 
ATOM     18  C   UNL     1      -8.091  -1.456  -0.570  0.00  0.00    -0.049 A 
ATOM     19  C   UNL     1      -9.372  -0.937  -0.672  0.00  0.00    +0.007 A 
ATOM     20  C   UNL     1      -9.575   0.428  -0.680  0.00  0.00    +0.046 A 
ATOM     21  C   UNL     1      -8.493   1.292  -0.585  0.00  0.00    +0.131 A 
ATOM     22  C   UNL     1      -7.196   0.772  -0.481  0.00  0.00    +0.101 A 
ATOM     23  C   UNL     1      -7.005  -0.613  -0.480  0.00  0.00    +0.022 A 
BRANCH  21  24
ATOM     24  O   UNL     1      -8.691   2.634  -0.594  0.00  0.00    -0.506 OA
ATOM     25  H   UNL     1      -8.675   3.028  -1.476  0.00  0.00    +0.292 HD
ENDBRANCH  21  24
ENDBRANCH  15  22
ENDBRANCH  14  15
ENDBRANCH   1  14
TORSDOF 6
