REMARK  Name = ZINC00881903
REMARK  6 active torsions:
REMARK  status: ('A' for Active; 'I' for Inactive)
REMARK    1  A    between atoms: C_1  and  C_2
REMARK    2  A    between atoms: C_7  and  C_8
REMARK    3  A    between atoms: C_13  and  C_18
REMARK    4  A    between atoms: C_13  and  C_19
REMARK    5  A    between atoms: C_23  and  C_28
REMARK    6  A    between atoms: C_25  and  O_27
REMARK                            x       y       z     vdW  Elec       q    Type
REMARK                         _______ _______ _______ _____ _____    ______ ____
ROOT
ATOM      1  C   UNL     1       0.986  -2.632  -0.363  0.00  0.00    +0.058 C 
ATOM      2  C   UNL     1      -0.237  -3.546  -0.300  0.00  0.00    +0.081 C 
ATOM      3  C   UNL     1      -1.427  -2.864   0.364  0.00  0.00    +0.180 C 
ATOM      4  C   UNL     1      -2.680  -3.724   0.254  0.00  0.00    +0.094 C 
ATOM      5  C   UNL     1      -2.678  -4.917   1.200  0.00  0.00    +0.033 C 
ATOM      6  N   UNL     1      -1.983  -4.645   2.451  0.00  0.00    -0.321 N 
ATOM      7  C   UNL     1      -1.328  -3.508   2.707  0.00  0.00    +0.133 C 
ATOM      8  S   UNL     1      -0.705  -3.241   4.278  0.00  0.00    -0.019 S 
ATOM      9  N   UNL     1      -1.124  -2.576   1.764  0.00  0.00    -0.289 N 
ATOM     10  C   UNL     1      -4.140  -5.272   1.535  0.00  0.00    +0.031 C 
ATOM     11  C   UNL     1      -2.048  -6.136   0.514  0.00  0.00    +0.031 C 
ATOM     12  O   UNL     1      -1.666  -1.624  -0.328  0.00  0.00    -0.468 OA
ATOM     13  C   UNL     1      -0.648  -0.726  -0.213  0.00  0.00    +0.131 A 
ATOM     14  C   UNL     1       0.661  -1.184  -0.132  0.00  0.00    +0.005 A 
ATOM     15  C   UNL     1       1.668  -0.270   0.132  0.00  0.00    -0.040 A 
ATOM     16  C   UNL     1       1.380   1.080   0.236  0.00  0.00    +0.049 A 
ATOM     17  C   UNL     1       0.078   1.535   0.106  0.00  0.00    +0.121 A 
ATOM     18  C   UNL     1      -0.942   0.623  -0.116  0.00  0.00    +0.091 A 
ATOM     19  C   UNL     1       3.101  -0.705   0.305  0.00  0.00    +0.044 C 
ATOM     20  H   UNL     1      -1.992  -5.334   3.146  0.00  0.00    +0.148 HD
ATOM     21  H   UNL     1      -0.777  -1.709   2.017  0.00  0.00    +0.151 HD
ENDROOT
BRANCH   1  28
ATOM     22  C   UNL     1       3.532  -3.966  -0.652  0.00  0.00    +0.044 C 
ATOM     23  C   UNL     1       2.821  -3.429  -1.867  0.00  0.00    -0.047 A 
ATOM     24  C   UNL     1       3.384  -3.579  -3.120  0.00  0.00    +0.003 A 
ATOM     25  C   UNL     1       2.735  -3.081  -4.234  0.00  0.00    +0.000 A 
ATOM     26  C   UNL     1       1.519  -2.438  -4.095  0.00  0.00    +0.000 A 
ATOM     27  C   UNL     1       0.953  -2.293  -2.843  0.00  0.00    +0.004 A 
ATOM     28  C   UNL     1       1.603  -2.791  -1.728  0.00  0.00    -0.037 A 
ENDBRANCH   1  28
BRANCH  17  29
ATOM     29  O   UNL     1      -0.200   2.861   0.197  0.00  0.00    -0.507 OA
ATOM     30  H   UNL     1      -0.396   3.162   1.095  0.00  0.00    +0.292 HD
ENDBRANCH  17  29
TORSDOF 2
