REMARK  Name = ZINC08891298
REMARK  11 active torsions:
REMARK  status: ('A' for Active; 'I' for Inactive)
REMARK    1  A    between atoms: C_1  and  C_2
REMARK    2  A    between atoms: C_2  and  C_3
REMARK    3  A    between atoms: C_3  and  C_27
REMARK    4  A    between atoms: N_6  and  C_10
REMARK    5  A    between atoms: C_10  and  C_11
REMARK    6  A    between atoms: N_13  and  C_14
REMARK    7  A    between atoms: C_14  and  C_15
REMARK    8  A    between atoms: N_17  and  C_18
REMARK    9  A    between atoms: C_19  and  C_26
REMARK   10  A    between atoms: C_21  and  C_25
REMARK   11  A    between atoms: C_23  and  C_24
REMARK                            x       y       z     vdW  Elec       q    Type
REMARK                         _______ _______ _______ _____ _____    ______ ____
ROOT
ATOM      1  C   UNL     1      -0.118   5.945   4.309  0.00  0.00    +0.213 C 
ENDROOT
BRANCH   1   5
ATOM      2  C   UNL     1      -1.337   3.848   1.496  0.00  0.00    +0.138 C 
ATOM      3  C   UNL     1      -1.062   4.076   2.969  0.00  0.00    +0.251 C 
ATOM      4  O   UNL     1      -1.273   3.305   3.881  0.00  0.00    -0.272 OA
ATOM      5  N   UNL     1      -0.536   5.313   3.055  0.00  0.00    -0.215 N 
ATOM      6  C   UNL     1      -0.441   5.893   1.853  0.00  0.00    +0.310 C 
ATOM      7  O   UNL     1       0.004   7.010   1.675  0.00  0.00    -0.252 OA
ATOM      8  N   UNL     1      -0.892   5.101   0.863  0.00  0.00    -0.281 N 
ATOM      9  H   UNL     1      -0.918   5.314  -0.083  0.00  0.00    +0.152 HD
BRANCH   2  10
ATOM     10  C   UNL     1      -0.536   2.680   0.981  0.00  0.00    -0.015 A 
ATOM     11  C   UNL     1       0.735   2.884   0.477  0.00  0.00    +0.009 A 
ATOM     12  C   UNL     1       1.471   1.813   0.004  0.00  0.00    +0.039 A 
ATOM     13  C   UNL     1       0.935   0.537   0.036  0.00  0.00    +0.123 A 
ATOM     14  C   UNL     1      -0.340   0.336   0.537  0.00  0.00    +0.039 A 
ATOM     15  C   UNL     1      -1.072   1.407   1.013  0.00  0.00    +0.009 A 
ATOM     16  F   UNL     1       1.653  -0.510  -0.425  0.00  0.00    -0.205 F 
ENDBRANCH   2  10
BRANCH   2  18
ATOM     17  C   UNL     1      -3.610   4.870   1.672  0.00  0.00    +0.007 C 
ATOM     18  C   UNL     1      -2.831   3.621   1.256  0.00  0.00    +0.037 C 
ENDBRANCH   2  18
ENDBRANCH   1   5
BRANCH   1  19
ATOM     19  C   UNL     1       1.328   5.619   4.578  0.00  0.00    +0.231 C 
ATOM     20  O   UNL     1       1.949   4.926   3.800  0.00  0.00    -0.274 OA
ATOM     21  N   UNL     1       1.932   6.096   5.685  0.00  0.00    -0.305 N 
ATOM     22  H   UNL     1       1.435   6.650   6.308  0.00  0.00    +0.149 HD
BRANCH  21  23
ATOM     23  C   UNL     1       3.337   5.778   5.947  0.00  0.00    +0.200 C 
BRANCH  23  24
ATOM     24  C   UNL     1       3.767   6.428   7.237  0.00  0.00    +0.234 C 
ATOM     25  O   UNL     1       2.977   7.092   7.875  0.00  0.00    -0.274 OA
ATOM     26  N   UNL     1       5.030   6.273   7.682  0.00  0.00    -0.284 N 
ATOM     27  H   UNL     1       5.641   5.686   7.211  0.00  0.00    +0.155 HD
BRANCH  26  28
ATOM     28  C   UNL     1       5.458   6.958   8.825  0.00  0.00    +0.039 A 
ATOM     29  C   UNL     1       6.059   6.264   9.867  0.00  0.00    -0.029 A 
ATOM     30  C   UNL     1       6.487   6.944  10.991  0.00  0.00    +0.008 A 
ATOM     31  C   UNL     1       6.305   8.312  11.084  0.00  0.00    -0.050 A 
ATOM     32  C   UNL     1       5.702   9.004  10.050  0.00  0.00    +0.008 A 
ATOM     33  C   UNL     1       5.278   8.331   8.921  0.00  0.00    -0.029 A 
ATOM     34  C   UNL     1       4.621   9.087   7.795  0.00  0.00    +0.045 C 
ATOM     35  C   UNL     1       6.767   9.050  12.314  0.00  0.00    +0.044 C 
ATOM     36  C   UNL     1       6.250   4.773   9.770  0.00  0.00    +0.045 C 
ENDBRANCH  26  28
ENDBRANCH  23  24
ENDBRANCH  21  23
ENDBRANCH   1  19
TORSDOF 7
