REMARK  Name = ZINC63531058
REMARK  11 active torsions:
REMARK  status: ('A' for Active; 'I' for Inactive)
REMARK    1  A    between atoms: C_1  and  O_2
REMARK    2  A    between atoms: O_2  and  C_3
REMARK    3  A    between atoms: C_7  and  S_27
REMARK    4  A    between atoms: C_8  and  C_13
REMARK    5  A    between atoms: N_15  and  C_16
REMARK    6  A    between atoms: C_16  and  C_17
REMARK    7  A    between atoms: C_21  and  O_25
REMARK    8  A    between atoms: C_22  and  O_23
REMARK    9  A    between atoms: O_23  and  C_24
REMARK   10  A    between atoms: O_25  and  C_26
REMARK   11  A    between atoms: S_27  and  C_28
REMARK                            x       y       z     vdW  Elec       q    Type
REMARK                         _______ _______ _______ _____ _____    ______ ____
ROOT
ATOM      1  C   UNL     1      -0.989  -1.581   0.144  0.00  0.00    +0.122 A 
ATOM      2  C   UNL     1      -2.006  -0.629  -0.001  0.00  0.00    +0.046 A 
ATOM      3  C   UNL     1      -3.315  -0.985  -0.003  0.00  0.00    +0.014 A 
ATOM      4  C   UNL     1      -3.673  -2.345   0.142  0.00  0.00    +0.010 A 
ATOM      5  C   UNL     1      -4.903  -2.989   0.176  0.00  0.00    +0.030 C 
ATOM      6  C   UNL     1      -4.591  -4.458   0.357  0.00  0.00    +0.204 C 
ATOM      7  N   UNL     1      -3.130  -4.558   0.417  0.00  0.00    -0.369 N 
ATOM      8  C   UNL     1      -2.609  -3.350   0.295  0.00  0.00    +0.048 A 
ATOM      9  C   UNL     1      -1.265  -2.909   0.283  0.00  0.00    +0.071 A 
ATOM     10  H   UNL     1      -2.626  -5.379   0.530  0.00  0.00    +0.161 HD
ENDROOT
BRANCH   6  11
ATOM     11  C   UNL     1      -5.201  -4.964   1.639  0.00  0.00    +0.241 C 
ATOM     12  O   UNL     1      -4.513  -5.087   2.630  0.00  0.00    -0.273 OA
ATOM     13  N   UNL     1      -6.511  -5.279   1.684  0.00  0.00    -0.309 N 
ATOM     14  H   UNL     1      -7.061  -5.180   0.891  0.00  0.00    +0.149 HD
BRANCH  13  15
ATOM     15  C   UNL     1      -7.103  -5.770   2.931  0.00  0.00    +0.143 C 
BRANCH  15  16
ATOM     16  C   UNL     1      -8.569  -6.047   2.715  0.00  0.00    +0.015 A 
ATOM     17  C   UNL     1      -9.514  -5.124   3.124  0.00  0.00    +0.009 A 
ATOM     18  C   UNL     1     -10.859  -5.375   2.928  0.00  0.00    +0.004 A 
ATOM     19  C   UNL     1     -11.265  -6.550   2.322  0.00  0.00    +0.049 A 
ATOM     20  C   UNL     1     -10.324  -7.478   1.910  0.00  0.00    +0.162 A 
ATOM     21  C   UNL     1      -8.969  -7.223   2.102  0.00  0.00    +0.166 A 
BRANCH  21  22
ATOM     22  O   UNL     1      -8.040  -8.129   1.694  0.00  0.00    -0.491 OA
ATOM     23  C   UNL     1      -7.656  -9.133   2.635  0.00  0.00    +0.277 C 
ENDBRANCH  21  22
BRANCH  20  24
ATOM     24  O   UNL     1     -10.722  -8.634   1.314  0.00  0.00    -0.491 OA
ATOM     25  C   UNL     1     -12.128  -8.825   1.144  0.00  0.00    +0.277 C 
ENDBRANCH  20  24
ENDBRANCH  15  16
ENDBRANCH  13  15
ENDBRANCH   6  11
BRANCH   1  27
ATOM     26  C   UNL     1       0.542   0.229  -0.010  0.00  0.00    +0.277 C 
ATOM     27  O   UNL     1       0.305  -1.172   0.139  0.00  0.00    -0.495 OA
ENDBRANCH   1  27
BRANCH   5  28
ATOM     28  S   UNL     1      -6.403  -2.292   0.045  0.00  0.00    -0.091 S 
BRANCH  28  29
ATOM     29  C   UNL     1      -7.012  -2.878  -1.501  0.00  0.00    +0.013 A 
ATOM     30  C   UNL     1      -6.189  -3.623  -2.337  0.00  0.00    +0.015 A 
ATOM     31  C   UNL     1      -6.669  -4.081  -3.547  0.00  0.00    +0.001 A 
ATOM     32  C   UNL     1      -7.968  -3.799  -3.929  0.00  0.00    +0.000 A 
ATOM     33  C   UNL     1      -8.790  -3.057  -3.101  0.00  0.00    +0.001 A 
ATOM     34  C   UNL     1      -8.318  -2.601  -1.886  0.00  0.00    +0.015 A 
ENDBRANCH  28  29
ENDBRANCH   5  28
TORSDOF 8
