REMARK  Name = ZINC66204956
REMARK  4 active torsions:
REMARK  status: ('A' for Active; 'I' for Inactive)
REMARK    1  A    between atoms: C_1  and  C_2
REMARK    2  A    between atoms: C_4  and  C_7
REMARK    3  A    between atoms: C_7  and  N_8
REMARK    4  A    between atoms: C_15  and  C_18
REMARK                            x       y       z     vdW  Elec       q    Type
REMARK                         _______ _______ _______ _____ _____    ______ ____
ROOT
ATOM      1  N   UNL     1       0.661  -5.291  -3.388  0.00  0.00    -0.290 N 
ATOM      2  C   UNL     1       1.679  -4.594  -2.845  0.00  0.00    +0.303 C 
ATOM      3  O   UNL     1       1.449  -3.610  -2.169  0.00  0.00    -0.253 OA
ATOM      4  N   UNL     1       2.951  -4.987  -3.052  0.00  0.00    -0.281 N 
ATOM      5  C   UNL     1       4.072  -4.316  -2.375  0.00  0.00    +0.137 C 
ATOM      6  C   UNL     1       5.120  -3.941  -3.429  0.00  0.00    +0.179 C 
ATOM      7  O   UNL     1       5.447  -5.100  -4.200  0.00  0.00    -0.369 OA
ATOM      8  C   UNL     1       4.349  -5.640  -4.939  0.00  0.00    +0.166 C 
ATOM      9  C   UNL     1       3.261  -6.105  -3.958  0.00  0.00    +0.145 C 
ATOM     10  H   UNL     1       0.846  -6.033  -3.985  0.00  0.00    +0.151 HD
ENDROOT
BRANCH   8  11
ATOM     11  C   UNL     1       4.822  -6.813  -5.758  0.00  0.00    -0.017 A 
ATOM     12  C   UNL     1       5.723  -7.713  -5.220  0.00  0.00    +0.007 A 
ATOM     13  C   UNL     1       6.157  -8.789  -5.971  0.00  0.00    +0.015 A 
ATOM     14  C   UNL     1       5.689  -8.966  -7.261  0.00  0.00    +0.018 A 
ATOM     15  C   UNL     1       4.788  -8.065  -7.799  0.00  0.00    +0.015 A 
ATOM     16  C   UNL     1       4.350  -6.992  -7.045  0.00  0.00    +0.007 A 
ATOM     17 BR   UNL     1       6.283 -10.438  -8.289  0.00  0.00    -0.050 Br
ENDBRANCH   8  11
BRANCH   1  18
ATOM     18  C   UNL     1      -0.723  -4.930  -3.074  0.00  0.00    +0.204 C 
BRANCH  18  22
ATOM     19  C   UNL     1      -3.651  -8.866  -4.089  0.00  0.00    +0.091 C 
ATOM     20  C   UNL     1      -2.930  -7.553  -4.254  0.00  0.00    +0.169 A 
ATOM     21  N   UNL     1      -2.124  -6.989  -3.348  0.00  0.00    -0.195 NA
ATOM     22  C   UNL     1      -1.662  -5.857  -3.803  0.00  0.00    +0.245 A 
ATOM     23  O   UNL     1      -2.164  -5.661  -5.028  0.00  0.00    -0.336 OA
ATOM     24  N   UNL     1      -2.986  -6.785  -5.304  0.00  0.00    -0.062 NA
ENDBRANCH  18  22
ENDBRANCH   1  18
TORSDOF 3
