REMARK  Name = ZINC25177227
REMARK  8 active torsions:
REMARK  status: ('A' for Active; 'I' for Inactive)
REMARK    1  A    between atoms: C_6  and  N_24
REMARK    2  A    between atoms: C_7  and  C_11
REMARK    3  A    between atoms: N_13  and  C_14
REMARK    4  A    between atoms: C_14  and  C_15
REMARK    5  A    between atoms: N_17  and  C_18
REMARK    6  A    between atoms: C_18  and  C_19
REMARK    7  A    between atoms: N_24  and  S_25
REMARK    8  A    between atoms: S_25  and  C_28
REMARK                            x       y       z     vdW  Elec       q    Type
REMARK                         _______ _______ _______ _____ _____    ______ ____
ROOT
ATOM      1  C   UNL     1       4.670   5.242  -0.462  0.00  0.00    +0.001 A 
ATOM      2  C   UNL     1       3.569   5.826   0.164  0.00  0.00    +0.001 A 
ATOM      3  C   UNL     1       2.430   5.116   0.386  0.00  0.00    +0.008 A 
ATOM      4  C   UNL     1       2.356   3.772  -0.022  0.00  0.00    -0.016 A 
ATOM      5  C   UNL     1       1.194   3.014   0.194  0.00  0.00    +0.036 A 
ATOM      6  C   UNL     1       1.144   1.710  -0.210  0.00  0.00    +0.087 A 
ATOM      7  C   UNL     1       2.256   1.109  -0.840  0.00  0.00    +0.062 A 
ATOM      8  C   UNL     1       3.411   1.838  -1.069  0.00  0.00    +0.023 A 
ATOM      9  C   UNL     1       3.476   3.178  -0.660  0.00  0.00    -0.017 A 
ATOM     10  C   UNL     1       4.636   3.945  -0.871  0.00  0.00    +0.008 A 
ENDROOT
BRANCH   7  11
ATOM     11  C   UNL     1       2.184  -0.302  -1.263  0.00  0.00    +0.246 C 
ATOM     12  O   UNL     1       1.170  -0.945  -1.068  0.00  0.00    -0.270 OA
ATOM     13  N   UNL     1       3.242  -0.880  -1.865  0.00  0.00    -0.303 N 
ATOM     14  H   UNL     1       4.160  -0.299  -2.041  0.00  0.00    +0.150 HD
BRANCH  13  15
ATOM     15  C   UNL     1       3.171  -2.282  -2.285  0.00  0.00    +0.200 C 
BRANCH  15  16
ATOM     16  C   UNL     1       4.475  -2.681  -2.927  0.00  0.00    +0.231 C 
ATOM     17  O   UNL     1       5.375  -1.874  -3.024  0.00  0.00    -0.274 OA
ATOM     18  N   UNL     1       4.641  -3.935  -3.393  0.00  0.00    -0.307 N 
ATOM     19  H   UNL     1       3.824  -4.667  -3.305  0.00  0.00    +0.149 HD
BRANCH  18  20
ATOM     20  C   UNL     1       5.908  -4.323  -4.017  0.00  0.00    +0.178 C 
BRANCH  20  21
ATOM     21  C   UNL     1       5.835  -5.765  -4.448  0.00  0.00    +0.122 A 
ATOM     22  C   UNL     1       5.413  -6.207  -5.647  0.00  0.00    +0.046 A 
ATOM     23  C   UNL     1       5.509  -7.617  -5.621  0.00  0.00    +0.041 A 
ATOM     24  C   UNL     1       5.984  -7.953  -4.408  0.00  0.00    +0.195 A 
ATOM     25  O   UNL     1       6.185  -6.826  -3.704  0.00  0.00    -0.466 OA
ENDBRANCH  20  21
ENDBRANCH  18  20
ENDBRANCH  15  16
ENDBRANCH  13  15
ENDBRANCH   7  11
BRANCH   6  26
ATOM     26  N   UNL     1      -0.011   0.966   0.007  0.00  0.00    -0.097 NA
BRANCH  26  27
ATOM     27  S   UNL     1      -1.496   1.689  -0.109  0.00  0.00    +0.098 S 
ATOM     28  O   UNL     1      -2.463   0.656   0.027  0.00  0.00    -0.148 OA
ATOM     29  O   UNL     1      -1.466   2.821   0.749  0.00  0.00    -0.148 OA
BRANCH  27  30
ATOM     30  C   UNL     1      -1.648   2.307  -1.752  0.00  0.00    +0.148 A 
ATOM     31  C   UNL     1      -2.143   1.690  -2.853  0.00  0.00    +0.037 A 
ATOM     32  C   UNL     1      -2.164   2.377  -4.053  0.00  0.00    +0.010 A 
ATOM     33  C   UNL     1      -1.690   3.646  -4.092  0.00  0.00    +0.047 A 
ATOM     34  S   UNL     1      -1.197   3.909  -2.397  0.00  0.00    -0.077 S 
ENDBRANCH  27  30
ENDBRANCH  26  27
ENDBRANCH   6  26
TORSDOF 8
