REMARK  Name = ZINC59060942
REMARK  12 active torsions:
REMARK  status: ('A' for Active; 'I' for Inactive)
REMARK    1  A    between atoms: C_1  and  C_2
REMARK    2  A    between atoms: C_5  and  C_35
REMARK    3  A    between atoms: N_8  and  C_10
REMARK    4  A    between atoms: C_10  and  C_11
REMARK    5  A    between atoms: C_16  and  C_17
REMARK    6  A    between atoms: C_17  and  N_18
REMARK    7  A    between atoms: C_19  and  C_21
REMARK    8  A    between atoms: C_21  and  N_22
REMARK    9  A    between atoms: N_22  and  C_23
REMARK   10  A    between atoms: N_22  and  S_24
REMARK   11  A    between atoms: S_24  and  C_27
REMARK   12  A    between atoms: C_30  and  C_33
REMARK                            x       y       z     vdW  Elec       q    Type
REMARK                         _______ _______ _______ _____ _____    ______ ____
ROOT
ATOM      1  N   UNL     1       2.001  -0.039   4.675  0.00  0.00    -0.310 N 
ATOM      2  C   UNL     1       1.155   0.690   5.429  0.00  0.00    +0.229 C 
ATOM      3  O   UNL     1       0.498   1.574   4.921  0.00  0.00    -0.274 OA
ATOM      4  H   UNL     1       2.526  -0.746   5.081  0.00  0.00    +0.149 HD
ENDROOT
BRANCH   1   5
ATOM      5  C   UNL     1       2.126   0.235   3.241  0.00  0.00    +0.139 C 
BRANCH   5  11
ATOM      6  C   UNL     1       2.517  -2.035   2.263  0.00  0.00    -0.059 A 
ATOM      7  C   UNL     1       3.340  -2.980   1.678  0.00  0.00    +0.002 A 
ATOM      8  C   UNL     1       4.670  -2.687   1.442  0.00  0.00    +0.000 A 
ATOM      9  C   UNL     1       5.178  -1.450   1.792  0.00  0.00    +0.000 A 
ATOM     10  C   UNL     1       4.356  -0.505   2.377  0.00  0.00    +0.005 A 
ATOM     11  C   UNL     1       3.024  -0.796   2.608  0.00  0.00    -0.029 A 
BRANCH   6  12
ATOM     12  C   UNL     1       1.067  -2.354   2.520  0.00  0.00    -0.043 C 
BRANCH  12  18
ATOM     13  C   UNL     1       2.237  -5.715   5.881  0.00  0.00    +0.005 C 
ATOM     14  C   UNL     1       1.497  -4.399   5.637  0.00  0.00    -0.031 C 
ATOM     15  C   UNL     1       0.021  -4.565   6.009  0.00  0.00    +0.003 C 
ATOM     16  C   UNL     1      -0.726  -3.267   5.688  0.00  0.00    -0.031 C 
ATOM     17  C   UNL     1      -0.535  -2.928   4.208  0.00  0.00    -0.075 C 
ATOM     18  N   UNL     1       0.894  -2.756   3.922  0.00  0.00    +0.383 N 
ATOM     19  C   UNL     1       1.607  -4.017   4.160  0.00  0.00    -0.075 C 
ATOM     20  C   UNL     1      -2.216  -3.449   5.983  0.00  0.00    +0.005 C 
ATOM     21  H   UNL     1       1.272  -2.039   4.524  0.00  0.00    -0.081 HD
ENDBRANCH  12  18
ENDBRANCH   6  12
ENDBRANCH   5  11
ENDBRANCH   1   5
BRANCH   2  22
ATOM     22  C   UNL     1       1.026   0.407   6.904  0.00  0.00    +0.204 C 
BRANCH  22  23
ATOM     23  N   UNL     1       0.052   1.328   7.494  0.00  0.00    -0.171 NA
ATOM     24  C   UNL     1      -1.377   1.010   7.451  0.00  0.00    +0.132 C 
BRANCH  23  25
ATOM     25  S   UNL     1       0.566   2.730   8.210  0.00  0.00    +0.061 S 
ATOM     26  O   UNL     1      -0.443   3.107   9.137  0.00  0.00    -0.153 OA
ATOM     27  O   UNL     1       1.916   2.515   8.600  0.00  0.00    -0.153 OA
BRANCH  25  28
ATOM     28  C   UNL     1       0.594   3.973   6.962  0.00  0.00    +0.106 A 
ATOM     29  C   UNL     1       1.739   4.170   6.212  0.00  0.00    +0.030 A 
ATOM     30  C   UNL     1       1.768   5.142   5.233  0.00  0.00    +0.021 A 
ATOM     31  C   UNL     1       0.637   5.927   5.000  0.00  0.00    +0.052 A 
ATOM     32  C   UNL     1      -0.516   5.723   5.761  0.00  0.00    +0.021 A 
ATOM     33  C   UNL     1      -0.532   4.744   6.733  0.00  0.00    +0.030 A 
BRANCH  31  34
ATOM     34  C   UNL     1       0.659   6.938   3.986  0.00  0.00    +0.099 C 
ATOM     35  N   UNL     1       0.677   7.740   3.182  0.00  0.00    -0.191 NA
ENDBRANCH  31  34
ENDBRANCH  25  28
ENDBRANCH  23  25
ENDBRANCH  22  23
ENDBRANCH   2  22
TORSDOF 9
