REMARK  Name = ZINC22279507
REMARK  9 active torsions:
REMARK  status: ('A' for Active; 'I' for Inactive)
REMARK    1  A    between atoms: C_1  and  C_2
REMARK    2  A    between atoms: C_3  and  C_32
REMARK    3  A    between atoms: N_4  and  C_27
REMARK    4  A    between atoms: C_5  and  N_9
REMARK    5  A    between atoms: C_6  and  C_7
REMARK    6  A    between atoms: C_10  and  C_12
REMARK    7  A    between atoms: C_12  and  S_13
REMARK    8  A    between atoms: S_13  and  C_14
REMARK    9  A    between atoms: C_17  and  C_20
REMARK                            x       y       z     vdW  Elec       q    Type
REMARK                         _______ _______ _______ _____ _____    ______ ____
ROOT
ATOM      1  N   UNL     1       5.901  -2.946  -0.161  0.00  0.00    -0.270 N 
ATOM      2  C   UNL     1       5.032  -3.792   0.427  0.00  0.00    +0.229 C 
ATOM      3  O   UNL     1       5.437  -4.804   0.958  0.00  0.00    -0.275 OA
ATOM      4  H   UNL     1       5.548  -1.982  -0.557  0.00  0.00    +0.156 HD
ENDROOT
BRANCH   1   9
ATOM      5  C   UNL     1      10.213  -5.545  -0.596  0.00  0.00    +0.047 C 
ATOM      6  C   UNL     1       9.204  -4.433  -0.463  0.00  0.00    -0.011 A 
ATOM      7  C   UNL     1       9.466  -3.118  -0.397  0.00  0.00    +0.022 A 
ATOM      8  N   UNL     1       8.289  -2.428  -0.280  0.00  0.00    -0.329 N 
ATOM      9  C   UNL     1       7.240  -3.290  -0.268  0.00  0.00    +0.124 A 
ATOM     10  C   UNL     1       7.746  -4.578  -0.375  0.00  0.00    +0.095 A 
ATOM     11  C   UNL     1      10.839  -2.498  -0.445  0.00  0.00    +0.064 C 
BRANCH   8  12
ATOM     12  C   UNL     1       8.178  -0.970  -0.182  0.00  0.00    +0.089 C 
ATOM     13  C   UNL     1       7.326  -0.587   1.046  0.00  0.00    +0.025 C 
ATOM     14  C   UNL     1       6.512   0.644   0.573  0.00  0.00    +0.002 C 
ATOM     15  C   UNL     1       6.176   0.289  -0.896  0.00  0.00    +0.002 C 
ATOM     16  C   UNL     1       7.447  -0.413  -1.416  0.00  0.00    +0.025 C 
ENDBRANCH   8  12
BRANCH  10  17
ATOM     17  C   UNL     1       6.998  -5.799  -0.397  0.00  0.00    +0.103 C 
ATOM     18  N   UNL     1       6.405  -6.768  -0.415  0.00  0.00    -0.191 NA
ENDBRANCH  10  17
ENDBRANCH   1   9
BRANCH   2  19
ATOM     19  C   UNL     1       3.558  -3.480   0.425  0.00  0.00    +0.173 C 
BRANCH  19  20
ATOM     20  S   UNL     1       2.647  -4.864   1.153  0.00  0.00    -0.077 S 
BRANCH  20  21
ATOM     21  C   UNL     1       1.001  -4.247   1.027  0.00  0.00    +0.185 A 
ATOM     22  N   UNL     1      -0.136  -4.886   1.432  0.00  0.00    -0.201 NA
ATOM     23  H   UNL     1       1.253  -2.283   0.093  0.00  0.00    +0.191 HD
ATOM     24  C   UNL     1      -1.170  -4.027   1.135  0.00  0.00    +0.182 A 
ATOM     25  N   UNL     1      -0.638  -2.959   0.588  0.00  0.00    -0.152 NA
ATOM     26  N   UNL     1       0.639  -3.088   0.525  0.00  0.00    -0.253 N 
BRANCH  24  27
ATOM     27  C   UNL     1      -2.607  -4.263   1.384  0.00  0.00    +0.021 A 
ATOM     28  C   UNL     1      -3.030  -5.457   1.971  0.00  0.00    +0.013 A 
ATOM     29  C   UNL     1      -4.373  -5.670   2.204  0.00  0.00    +0.021 A 
ATOM     30  C   UNL     1      -5.301  -4.707   1.849  0.00  0.00    +0.041 A 
ATOM     31  C   UNL     1      -4.889  -3.522   1.262  0.00  0.00    +0.021 A 
ATOM     32  C   UNL     1      -3.549  -3.296   1.028  0.00  0.00    +0.013 A 
ATOM     33 CL   UNL     1      -6.990  -4.985   2.140  0.00  0.00    -0.084 Cl
ENDBRANCH  24  27
ENDBRANCH  20  21
ENDBRANCH  19  20
ENDBRANCH   2  19
TORSDOF 7
