REMARK  Name = ZINC13496066
REMARK  8 active torsions:
REMARK  status: ('A' for Active; 'I' for Inactive)
REMARK    1  A    between atoms: C_1  and  C_2
REMARK    2  A    between atoms: C_5  and  C_8
REMARK    3  A    between atoms: C_8  and  C_10
REMARK    4  A    between atoms: C_8  and  N_23
REMARK    5  A    between atoms: N_12  and  C_13
REMARK    6  A    between atoms: C_13  and  C_14
REMARK    7  A    between atoms: N_23  and  C_24
REMARK    8  A    between atoms: C_29  and  C_31
REMARK                            x       y       z     vdW  Elec       q    Type
REMARK                         _______ _______ _______ _____ _____    ______ ____
ROOT
ATOM      1  C   UNL     1       4.943  -2.778   0.287  0.00  0.00    +0.193 C 
ENDROOT
BRANCH   1   6
ATOM      2  C   UNL     1       4.886  -4.949   5.643  0.00  0.00    +0.044 C 
ATOM      3  C   UNL     1       4.901  -4.383   4.246  0.00  0.00    -0.050 A 
ATOM      4  C   UNL     1       5.112  -5.217   3.164  0.00  0.00    +0.004 A 
ATOM      5  C   UNL     1       5.125  -4.698   1.883  0.00  0.00    +0.006 A 
ATOM      6  C   UNL     1       4.928  -3.344   1.684  0.00  0.00    -0.018 A 
ATOM      7  C   UNL     1       4.722  -2.509   2.766  0.00  0.00    +0.006 A 
ATOM      8  C   UNL     1       4.704  -3.029   4.047  0.00  0.00    +0.004 A 
ENDBRANCH   1   6
BRANCH   1   9
ATOM      9  C   UNL     1       4.831  -3.901  -0.711  0.00  0.00    +0.238 C 
ATOM     10  O   UNL     1       3.898  -3.932  -1.486  0.00  0.00    -0.273 OA
ATOM     11  N   UNL     1       5.766  -4.871  -0.743  0.00  0.00    -0.309 N 
ATOM     12  H   UNL     1       6.511  -4.846  -0.123  0.00  0.00    +0.149 HD
BRANCH  11  13
ATOM     13  C   UNL     1       5.657  -5.963  -1.714  0.00  0.00    +0.139 C 
BRANCH  13  14
ATOM     14  C   UNL     1       6.819  -6.906  -1.541  0.00  0.00    -0.027 A 
ATOM     15  C   UNL     1       7.984  -6.703  -2.257  0.00  0.00    +0.009 A 
ATOM     16  C   UNL     1       9.055  -7.563  -2.098  0.00  0.00    +0.050 A 
ATOM     17  C   UNL     1       8.958  -8.638  -1.230  0.00  0.00    +0.166 A 
ATOM     18  C   UNL     1       7.782  -8.846  -0.513  0.00  0.00    +0.167 A 
ATOM     19  C   UNL     1       6.715  -7.977  -0.673  0.00  0.00    +0.054 A 
ATOM     20  O   UNL     1       7.936  -9.957   0.264  0.00  0.00    -0.453 OA
ATOM     21  C   UNL     1       9.065 -10.660  -0.288  0.00  0.00    +0.466 C 
ATOM     22  O   UNL     1       9.848  -9.619  -0.901  0.00  0.00    -0.453 OA
ENDBRANCH  13  14
ENDBRANCH  11  13
ENDBRANCH   1   9
BRANCH   1  23
ATOM     23  N   UNL     1       3.813  -1.861   0.120  0.00  0.00    -0.279 N 
ATOM     24  C   UNL     1       4.029  -0.593  -0.285  0.00  0.00    +0.248 C 
ATOM     25  O   UNL     1       5.124  -0.265  -0.698  0.00  0.00    -0.270 OA
BRANCH  24  26
ATOM     26  C   UNL     1       2.935   0.396  -0.227  0.00  0.00    +0.041 A 
ATOM     27  C   UNL     1       1.613  -0.029  -0.068  0.00  0.00    +0.017 A 
ATOM     28  C   UNL     1       0.595   0.896  -0.016  0.00  0.00    +0.050 A 
ATOM     29  C   UNL     1       0.875   2.254  -0.121  0.00  0.00    +0.162 A 
ATOM     30  C   UNL     1       2.190   2.684  -0.277  0.00  0.00    +0.163 A 
ATOM     31  C   UNL     1       3.217   1.760  -0.331  0.00  0.00    +0.062 A 
ATOM     32  O   UNL     1       2.482   4.010  -0.373  0.00  0.00    -0.485 OA
ATOM     33  C   UNL     1       1.395   4.887  -0.689  0.00  0.00    +0.270 C 
ATOM     34  C   UNL     1       0.201   4.510   0.198  0.00  0.00    +0.270 C 
ATOM     35  O   UNL     1      -0.148   3.148  -0.075  0.00  0.00    -0.485 OA
ENDBRANCH  24  26
BRANCH  23  36
ATOM     36  C   UNL     1       2.450  -2.321   0.393  0.00  0.00    +0.077 C 
ATOM     37  C   UNL     1       1.896  -1.618   1.650  0.00  0.00    +0.022 C 
ATOM     38  C   UNL     1       1.059  -2.713   2.358  0.00  0.00    +0.002 C 
ATOM     39  C   UNL     1       1.902  -3.991   2.129  0.00  0.00    +0.002 C 
ATOM     40  C   UNL     1       2.453  -3.829   0.697  0.00  0.00    +0.022 C 
ENDBRANCH  23  36
ENDBRANCH   1  23
TORSDOF 7
