REMARK  Name = ZINC02072845
REMARK  16 active torsions:
REMARK  status: ('A' for Active; 'I' for Inactive)
REMARK    1  A    between atoms: C_1  and  C_2
REMARK    2  A    between atoms: C_2  and  C_3
REMARK    3  A    between atoms: C_3  and  O_4
REMARK    4  A    between atoms: O_4  and  C_5
REMARK    5  A    between atoms: C_5  and  C_7
REMARK    6  A    between atoms: C_8  and  C_40
REMARK    7  A    between atoms: C_12  and  C_14
REMARK    8  A    between atoms: C_18  and  O_22
REMARK    9  A    between atoms: C_19  and  O_20
REMARK   10  A    between atoms: O_20  and  C_21
REMARK   11  A    between atoms: O_22  and  C_23
REMARK   12  A    between atoms: C_27  and  C_30
REMARK   13  A    between atoms: C_33  and  O_38
REMARK   14  A    between atoms: C_34  and  O_36
REMARK   15  A    between atoms: O_36  and  C_37
REMARK   16  A    between atoms: O_38  and  C_39
REMARK                            x       y       z     vdW  Elec       q    Type
REMARK                         _______ _______ _______ _____ _____    ______ ____
ROOT
ATOM      1  C   UNL     1      -0.899   3.377  -0.074  0.00  0.00    +0.065 C 
ATOM      2  C   UNL     1      -1.354   2.176   0.317  0.00  0.00    +0.016 C 
ATOM      3  N   UNL     1      -0.622   1.045   0.083  0.00  0.00    -0.321 N 
ATOM      4  C   UNL     1       0.717   1.125  -0.188  0.00  0.00    +0.016 C 
ATOM      5  C   UNL     1       1.264   2.287  -0.604  0.00  0.00    +0.024 C 
ATOM      6  C   UNL     1       0.411   3.516  -0.793  0.00  0.00    +0.096 C 
ATOM      7  C   UNL     1       2.641   2.386  -0.871  0.00  0.00    +0.162 C 
ATOM      8  O   UNL     1       3.100   3.445  -1.252  0.00  0.00    -0.292 OA
ATOM      9  C   UNL     1       3.557   1.205  -0.694  0.00  0.00    +0.088 C 
ATOM     10  C   UNL     1       2.982   0.286   0.389  0.00  0.00    +0.032 C 
ATOM     11  C   UNL     1       1.562  -0.113  -0.016  0.00  0.00    +0.059 C 
ATOM     12  C   UNL     1      -2.681   2.075   1.024  0.00  0.00    +0.061 C 
ATOM     13  H   UNL     1      -1.109   0.059   0.112  0.00  0.00    +0.152 HD
ENDROOT
BRANCH   6  14
ATOM     14  C   UNL     1       0.149   3.716  -2.263  0.00  0.00    +0.010 A 
ATOM     15  C   UNL     1       0.314   4.965  -2.831  0.00  0.00    +0.008 A 
ATOM     16  C   UNL     1       0.079   5.151  -4.181  0.00  0.00    +0.004 A 
ATOM     17  C   UNL     1      -0.332   4.090  -4.967  0.00  0.00    +0.049 A 
ATOM     18  C   UNL     1      -0.503   2.836  -4.403  0.00  0.00    +0.162 A 
ATOM     19  C   UNL     1      -0.262   2.648  -3.045  0.00  0.00    +0.166 A 
BRANCH  19  20
ATOM     20  O   UNL     1      -0.429   1.419  -2.487  0.00  0.00    -0.491 OA
ATOM     21  C   UNL     1      -1.773   0.981  -2.275  0.00  0.00    +0.277 C 
ENDBRANCH  19  20
BRANCH  18  22
ATOM     22  O   UNL     1      -0.906   1.792  -5.174  0.00  0.00    -0.491 OA
ATOM     23  C   UNL     1      -1.135   2.058  -6.559  0.00  0.00    +0.277 C 
ENDBRANCH  18  22
ENDBRANCH   6  14
BRANCH  10  24
ATOM     24  C   UNL     1       3.840  -0.947   0.513  0.00  0.00    -0.040 A 
ATOM     25  C   UNL     1       4.008  -1.782  -0.576  0.00  0.00    +0.008 A 
ATOM     26  C   UNL     1       4.794  -2.914  -0.467  0.00  0.00    +0.049 A 
ATOM     27  C   UNL     1       5.413  -3.215   0.735  0.00  0.00    +0.161 A 
ATOM     28  C   UNL     1       5.243  -2.375   1.831  0.00  0.00    +0.162 A 
ATOM     29  C   UNL     1       4.460  -1.238   1.714  0.00  0.00    +0.053 A 
BRANCH  28  30
ATOM     30  O   UNL     1       5.849  -2.666   3.014  0.00  0.00    -0.491 OA
ATOM     31  C   UNL     1       5.630  -1.758   4.096  0.00  0.00    +0.277 C 
ENDBRANCH  28  30
BRANCH  27  32
ATOM     32  O   UNL     1       6.186  -4.329   0.844  0.00  0.00    -0.491 OA
ATOM     33  C   UNL     1       6.315  -5.145  -0.322  0.00  0.00    +0.277 C 
ENDBRANCH  27  32
ENDBRANCH  10  24
BRANCH   1  34
ATOM     34  C   UNL     1      -1.671   4.532   0.191  0.00  0.00    +0.338 C 
ATOM     35  O   UNL     1      -2.735   4.433   0.772  0.00  0.00    -0.245 OA
BRANCH  34  36
ATOM     36  O   UNL     1      -1.227   5.745  -0.202  0.00  0.00    -0.461 OA
BRANCH  36  37
ATOM     37  C   UNL     1      -2.057   6.868   0.099  0.00  0.00    +0.232 C 
BRANCH  37  39
ATOM     38  C   UNL     1      -2.283   9.349  -0.097  0.00  0.00    +0.007 C 
ATOM     39  C   UNL     1      -1.394   8.146  -0.419  0.00  0.00    +0.038 C 
ENDBRANCH  37  39
ENDBRANCH  36  37
ENDBRANCH  34  36
ENDBRANCH   1  34
TORSDOF 10
