REMARK  Name = ZINC38768319
REMARK  13 active torsions:
REMARK  status: ('A' for Active; 'I' for Inactive)
REMARK    1  A    between atoms: C_1  and  C_2
REMARK    2  A    between atoms: C_5  and  C_34
REMARK    3  A    between atoms: C_6  and  C_8
REMARK    4  A    between atoms: C_8  and  O_9
REMARK    5  A    between atoms: O_9  and  C_10
REMARK    6  A    between atoms: C_13  and  C_17
REMARK    7  A    between atoms: C_14  and  O_16
REMARK    8  A    between atoms: C_19  and  C_24
REMARK    9  A    between atoms: C_20  and  C_23
REMARK   10  A    between atoms: C_27  and  O_32
REMARK   11  A    between atoms: C_28  and  O_30
REMARK   12  A    between atoms: O_30  and  C_31
REMARK   13  A    between atoms: O_32  and  C_33
REMARK                            x       y       z     vdW  Elec       q    Type
REMARK                         _______ _______ _______ _____ _____    ______ ____
ROOT
ATOM      1  C   UNL     1       0.061  -2.448   4.833  0.00  0.00    +0.124 A 
ATOM      2  C   UNL     1       0.085  -3.825   5.008  0.00  0.00    +0.046 A 
ATOM      3  C   UNL     1       0.098  -4.360   6.281  0.00  0.00    +0.013 A 
ATOM      4  C   UNL     1       0.087  -3.527   7.383  0.00  0.00    +0.022 A 
ATOM      5  C   UNL     1       0.063  -2.150   7.214  0.00  0.00    +0.126 A 
ATOM      6  C   UNL     1       0.055  -1.610   5.937  0.00  0.00    +0.091 A 
ENDROOT
BRANCH   4   7
ATOM      7  C   UNL     1       0.101  -4.115   8.771  0.00  0.00    +0.164 C 
ATOM      8  C   UNL     1      -1.314  -4.291   9.295  0.00  0.00    +0.011 C 
ATOM      9  C   UNL     1      -1.418  -5.628   9.487  0.00  0.00    +0.064 C 
ATOM     10  N   UNL     1      -0.277  -6.242   9.152  0.00  0.00    -0.182 NA
ATOM     11  N   UNL     1       0.621  -5.493   8.749  0.00  0.00    -0.297 N 
ATOM     12  C   UNL     1      -2.648  -6.328  10.006  0.00  0.00    +0.068 C 
ATOM     13  H   UNL     1       1.508  -5.763   8.467  0.00  0.00    +0.183 HD
BRANCH   8  14
ATOM     14  C   UNL     1      -2.331  -3.256   9.535  0.00  0.00    -0.014 A 
ATOM     15  C   UNL     1      -2.857  -2.527   8.463  0.00  0.00    +0.012 A 
ATOM     16  C   UNL     1      -3.809  -1.557   8.692  0.00  0.00    +0.050 A 
ATOM     17  C   UNL     1      -4.249  -1.302   9.984  0.00  0.00    +0.162 A 
ATOM     18  C   UNL     1      -3.729  -2.024  11.057  0.00  0.00    +0.162 A 
ATOM     19  C   UNL     1      -2.779  -3.002  10.836  0.00  0.00    +0.057 A 
BRANCH  18  20
ATOM     20  O   UNL     1      -4.162  -1.770  12.321  0.00  0.00    -0.491 OA
ATOM     21  C   UNL     1      -3.587  -2.548  13.373  0.00  0.00    +0.277 C 
ENDBRANCH  18  20
BRANCH  17  22
ATOM     22  O   UNL     1      -5.188  -0.345  10.203  0.00  0.00    -0.491 OA
ATOM     23  C   UNL     1      -5.677   0.358   9.059  0.00  0.00    +0.277 C 
ENDBRANCH  17  22
ENDBRANCH   8  14
ENDBRANCH   4   7
BRANCH   5  24
ATOM     24  O   UNL     1       0.051  -1.332   8.299  0.00  0.00    -0.506 OA
ATOM     25  H   UNL     1       0.931  -1.079   8.610  0.00  0.00    +0.292 HD
ENDBRANCH   5  24
BRANCH   1  26
ATOM     26  O   UNL     1       0.047  -1.922   3.580  0.00  0.00    -0.487 OA
BRANCH  26  27
ATOM     27  C   UNL     1       0.054  -2.845   2.489  0.00  0.00    +0.264 C 
BRANCH  27  33
ATOM     28  C   UNL     1      -0.018   1.503   0.010  0.00  0.00    +0.044 C 
ATOM     29  C   UNL     1       0.002  -0.004   0.002  0.00  0.00    -0.050 A 
ATOM     30  C   UNL     1       0.006  -0.689  -1.199  0.00  0.00    +0.003 A 
ATOM     31  C   UNL     1       0.025  -2.071  -1.207  0.00  0.00    +0.004 A 
ATOM     32  C   UNL     1       0.040  -2.768  -0.013  0.00  0.00    -0.044 A 
ATOM     33  C   UNL     1       0.037  -2.084   1.188  0.00  0.00    -0.007 A 
ATOM     34  C   UNL     1       0.023  -0.702   1.195  0.00  0.00    +0.010 A 
ATOM     35  C   UNL     1       0.059  -4.275  -0.021  0.00  0.00    +0.044 C 
ENDBRANCH  27  33
ENDBRANCH  26  27
ENDBRANCH   1  26
TORSDOF 8
