REMARK  Name = ZINC01630527
REMARK  12 active torsions:
REMARK  status: ('A' for Active; 'I' for Inactive)
REMARK    1  A    between atoms: C_1  and  C_2
REMARK    2  A    between atoms: C_17  and  O_33
REMARK    3  A    between atoms: C_20  and  C_23
REMARK    4  A    between atoms: C_23  and  C_24
REMARK    5  A    between atoms: C_24  and  C_25
REMARK    6  A    between atoms: C_24  and  C_29
REMARK    7  A    between atoms: C_25  and  O_27
REMARK    8  A    between atoms: O_27  and  C_28
REMARK    9  A    between atoms: C_29  and  O_31
REMARK   10  A    between atoms: O_31  and  C_32
REMARK   11  A    between atoms: O_33  and  C_34
REMARK   12  A    between atoms: C_34  and  C_36
REMARK                            x       y       z     vdW  Elec       q    Type
REMARK                         _______ _______ _______ _____ _____    ______ ____
ROOT
ATOM      1  C   UNL     1       3.396   0.128   0.295  0.00  0.00    +0.109 C 
ATOM      2  C   UNL     1       3.320   0.851  -1.025  0.00  0.00    +0.212 C 
ATOM      3  O   UNL     1       4.096   0.572  -1.914  0.00  0.00    -0.276 OA
ATOM      4  N   UNL     1       2.389   1.806  -1.218  0.00  0.00    -0.301 N 
ATOM      5  C   UNL     1       2.290   2.436  -2.541  0.00  0.00    +0.112 C 
ATOM      6  C   UNL     1       1.327   1.581  -3.385  0.00  0.00    +0.056 C 
ATOM      7  C   UNL     1       1.661   0.131  -3.145  0.00  0.00    -0.014 A 
ATOM      8  C   UNL     1       2.791  -0.606  -3.711  0.00  0.00    +0.003 A 
ATOM      9  C   UNL     1       3.830  -0.277  -4.583  0.00  0.00    +0.010 A 
ATOM     10  C   UNL     1       4.756  -1.222  -4.923  0.00  0.00    +0.001 A 
ATOM     11  C   UNL     1       4.670  -2.509  -4.410  0.00  0.00    +0.002 A 
ATOM     12  C   UNL     1       3.652  -2.856  -3.549  0.00  0.00    +0.026 A 
ATOM     13  C   UNL     1       2.699  -1.909  -3.188  0.00  0.00    +0.047 A 
ATOM     14  N   UNL     1       1.590  -1.942  -2.374  0.00  0.00    -0.355 N 
ATOM     15  H   UNL     1       1.285  -2.719  -1.881  0.00  0.00    +0.166 HD
ATOM     16  C   UNL     1       0.979  -0.711  -2.361  0.00  0.00    +0.061 A 
ATOM     17  C   UNL     1      -0.262  -0.368  -1.589  0.00  0.00    +0.223 C 
ATOM     18  C   UNL     1       0.077   0.145  -0.183  0.00  0.00    +0.056 C 
ATOM     19  C   UNL     1       0.088   1.690  -0.234  0.00  0.00    +0.012 C 
ATOM     20  C   UNL     1       1.531   2.168  -0.117  0.00  0.00    +0.111 C 
ENDROOT
BRANCH  19  21
ATOM     21  C   UNL     1      -0.733   2.248   0.930  0.00  0.00    +0.031 C 
BRANCH  21  22
ATOM     22  C   UNL     1      -2.207   1.888   0.733  0.00  0.00    +0.206 C 
BRANCH  22  23
ATOM     23  C   UNL     1      -2.987   2.271   1.964  0.00  0.00    +0.321 C 
ATOM     24  O   UNL     1      -2.422   2.781   2.903  0.00  0.00    -0.250 OA
BRANCH  23  25
ATOM     25  O   UNL     1      -4.309   2.047   2.017  0.00  0.00    -0.467 OA
ATOM     26  C   UNL     1      -4.996   2.442   3.234  0.00  0.00    +0.280 C 
ENDBRANCH  23  25
ENDBRANCH  22  23
BRANCH  22  27
ATOM     27  C   UNL     1      -2.751   2.633  -0.459  0.00  0.00    +0.321 C 
ATOM     28  O   UNL     1      -2.015   3.315  -1.132  0.00  0.00    -0.250 OA
BRANCH  27  29
ATOM     29  O   UNL     1      -4.053   2.538  -0.773  0.00  0.00    -0.467 OA
ATOM     30  C   UNL     1      -4.507   3.283  -1.933  0.00  0.00    +0.280 C 
ENDBRANCH  27  29
ENDBRANCH  22  27
ENDBRANCH  21  22
ENDBRANCH  19  21
BRANCH  17  31
ATOM     31  O   UNL     1      -0.997   0.658  -2.306  0.00  0.00    -0.455 OA
BRANCH  31  32
ATOM     32  C   UNL     1      -1.881   0.245  -3.227  0.00  0.00    +0.305 C 
ATOM     33  O   UNL     1      -2.035  -0.937  -3.429  0.00  0.00    -0.251 OA
ATOM     34  C   UNL     1      -2.681   1.253  -4.011  0.00  0.00    +0.136 C 
ENDBRANCH  31  32
ENDBRANCH  17  31
TORSDOF 8
