REMARK  Name = ZINC12470089
REMARK  4 active torsions:
REMARK  status: ('A' for Active; 'I' for Inactive)
REMARK    1  A    between atoms: C_1  and  C_2
REMARK    2  A    between atoms: C_13  and  C_14
REMARK    3  A    between atoms: C_13  and  N_53
REMARK    4  A    between atoms: N_16  and  C_17
REMARK                            x       y       z     vdW  Elec       q    Type
REMARK                         _______ _______ _______ _____ _____    ______ ____
ROOT
ATOM      1  C   UNL     1       6.402  -1.716   0.476  0.00  0.00    +0.197 C 
ATOM      2  O   UNL     1       6.463  -0.899  -0.418  0.00  0.00    -0.278 OA
ATOM      3  N   UNL     1       7.327  -2.693   0.560  0.00  0.00    -0.306 N 
ATOM      4  H   UNL     1       7.278  -3.347   1.276  0.00  0.00    +0.150 HD
ENDROOT
BRANCH   3   5
ATOM      5  C   UNL     1       8.406  -2.768  -0.428  0.00  0.00    +0.135 C 
ATOM      6  C   UNL     1       7.969  -3.595  -1.612  0.00  0.00    -0.015 A 
ATOM      7  C   UNL     1       6.944  -3.440  -2.522  0.00  0.00    +0.006 A 
ATOM      8  C   UNL     1       6.768  -4.370  -3.531  0.00  0.00    +0.000 A 
ATOM      9  C   UNL     1       7.619  -5.456  -3.630  0.00  0.00    +0.001 A 
ATOM     10  C   UNL     1       8.647  -5.618  -2.725  0.00  0.00    +0.009 A 
ATOM     11  C   UNL     1       8.831  -4.684  -1.704  0.00  0.00    -0.012 A 
ATOM     12  C   UNL     1       9.834  -4.614  -0.613  0.00  0.00    -0.012 A 
ATOM     13  C   UNL     1       9.600  -3.479   0.160  0.00  0.00    -0.015 A 
ATOM     14  C   UNL     1      10.408  -3.195   1.240  0.00  0.00    +0.006 A 
ATOM     15  C   UNL     1      11.458  -4.038   1.561  0.00  0.00    +0.000 A 
ATOM     16  C   UNL     1      11.698  -5.167   0.800  0.00  0.00    +0.001 A 
ATOM     17  C   UNL     1      10.895  -5.460  -0.283  0.00  0.00    +0.009 A 
ENDBRANCH   3   5
BRANCH   1  18
ATOM     18  C   UNL     1       5.293  -1.639   1.493  0.00  0.00    +0.019 C 
BRANCH  18  30
ATOM     19  C   UNL     1       5.177   3.230   1.404  0.00  0.00    +0.050 C 
ATOM     20  C   UNL     1       4.298   1.989   1.237  0.00  0.00    +0.154 C 
ATOM     21  C   UNL     1       5.175   0.756   1.214  0.00  0.00    -0.033 C 
ATOM     22  C   UNL     1       3.719  -0.700  -0.087  0.00  0.00    -0.038 C 
ATOM     23  C   UNL     1       2.391   0.030  -0.032  0.00  0.00    -0.022 A 
ATOM     24  C   UNL     1       1.209  -0.681  -0.022  0.00  0.00    +0.005 A 
ATOM     25  C   UNL     1       0.002  -0.004   0.002  0.00  0.00    +0.000 A 
ATOM     26  C   UNL     1      -0.017   1.379   0.010  0.00  0.00    +0.004 A 
ATOM     27  C   UNL     1       1.168   2.091   0.002  0.00  0.00    +0.046 A 
ATOM     28  C   UNL     1       2.378   1.411  -0.009  0.00  0.00    +0.122 A 
ATOM     29  O   UNL     1       3.550   2.102   0.020  0.00  0.00    -0.491 OA
ATOM     30  N   UNL     1       4.399  -0.503   1.215  0.00  0.00    +0.391 N 
ATOM     31  H   UNL     1       3.688  -0.452   1.953  0.00  0.00    -0.081 HD
ENDBRANCH  18  30
ENDBRANCH   1  18
TORSDOF 3
