REMARK  Name = ZINC59487759
REMARK  16 active torsions:
REMARK  status: ('A' for Active; 'I' for Inactive)
REMARK    1  A    between atoms: C_1  and  C_2
REMARK    2  A    between atoms: C_5  and  N_8
REMARK    3  A    between atoms: N_9  and  C_10
REMARK    4  A    between atoms: C_12  and  C_39
REMARK    5  A    between atoms: C_15  and  N_16
REMARK    6  A    between atoms: C_17  and  C_19
REMARK    7  A    between atoms: C_21  and  N_32
REMARK    8  A    between atoms: C_23  and  N_25
REMARK    9  A    between atoms: C_26  and  C_28
REMARK   10  A    between atoms: C_28  and  C_29
REMARK   11  A    between atoms: C_28  and  C_30
REMARK   12  A    between atoms: C_28  and  C_31
REMARK   13  A    between atoms: C_33  and  C_35
REMARK   14  A    between atoms: C_35  and  C_36
REMARK   15  A    between atoms: C_35  and  C_37
REMARK   16  A    between atoms: C_35  and  C_38
REMARK                            x       y       z     vdW  Elec       q    Type
REMARK                         _______ _______ _______ _____ _____    ______ ____
ROOT
ATOM      1  C   UNL     1      -0.518  -6.307   6.187  0.00  0.00    +0.041 A 
ATOM      2  C   UNL     1      -0.409  -4.958   5.848  0.00  0.00    +0.036 A 
ATOM      3  C   UNL     1      -0.158  -4.015   6.833  0.00  0.00    +0.036 A 
ATOM      4  C   UNL     1      -0.015  -4.412   8.156  0.00  0.00    +0.046 A 
ATOM      5  C   UNL     1      -0.122  -5.754   8.497  0.00  0.00    +0.036 A 
ATOM      6  C   UNL     1      -0.380  -6.701   7.518  0.00  0.00    +0.036 A 
ENDROOT
BRANCH   1   8
ATOM      7  N   UNL     1      -0.919  -6.932   3.854  0.00  0.00    -0.280 N 
ATOM      8  C   UNL     1      -0.786  -7.315   5.139  0.00  0.00    +0.248 C 
ATOM      9  O   UNL     1      -0.886  -8.489   5.437  0.00  0.00    -0.270 OA
ATOM     10  H   UNL     1      -0.763  -6.008   3.605  0.00  0.00    +0.155 HD
BRANCH   7  16
ATOM     11  C   UNL     1      -0.980  -7.628   1.532  0.00  0.00    +0.108 A 
ATOM     12  C   UNL     1      -1.344  -8.575   0.569  0.00  0.00    +0.034 A 
ATOM     13  C   UNL     1      -1.999  -9.726   0.950  0.00  0.00    -0.048 A 
ATOM     14  C   UNL     1      -2.300  -9.951   2.283  0.00  0.00    +0.005 A 
ATOM     15  C   UNL     1      -1.947  -9.026   3.246  0.00  0.00    +0.026 A 
ATOM     16  C   UNL     1      -1.281  -7.864   2.883  0.00  0.00    +0.061 A 
ATOM     17  C   UNL     1      -2.390 -10.744  -0.090  0.00  0.00    +0.044 C 
BRANCH  11  19
ATOM     18  N   UNL     1      -0.057  -6.275  -0.081  0.00  0.00    -0.149 NA
ATOM     19  N   UNL     1      -0.332  -6.487   1.162  0.00  0.00    -0.147 NA
BRANCH  18  24
ATOM     20  C   UNL     1       2.623  -1.550  -1.612  0.00  0.00    +0.044 C 
ATOM     21  C   UNL     1       1.907  -2.811  -1.203  0.00  0.00    -0.050 A 
ATOM     22  C   UNL     1       1.547  -3.740  -2.163  0.00  0.00    +0.005 A 
ATOM     23  C   UNL     1       0.891  -4.897  -1.797  0.00  0.00    +0.030 A 
ATOM     24  C   UNL     1       0.592  -5.130  -0.452  0.00  0.00    +0.086 A 
ATOM     25  C   UNL     1       0.960  -4.188   0.512  0.00  0.00    +0.030 A 
ATOM     26  C   UNL     1       1.619  -3.038   0.132  0.00  0.00    +0.005 A 
ENDBRANCH  18  24
ENDBRANCH  11  19
ENDBRANCH   7  16
ENDBRANCH   1   8
BRANCH   5  27
ATOM     27  N   UNL     1       0.024  -6.150   9.832  0.00  0.00    -0.285 N 
ATOM     28  C   UNL     1       0.560  -7.351  10.123  0.00  0.00    +0.223 C 
ATOM     29  O   UNL     1       1.004  -8.049   9.236  0.00  0.00    -0.275 OA
ATOM     30  H   UNL     1      -0.262  -5.559  10.546  0.00  0.00    +0.155 HD
BRANCH  28  31
ATOM     31  C   UNL     1       0.610  -7.827  11.552  0.00  0.00    +0.039 C 
ATOM     32  C   UNL     1       1.263  -9.210  11.607  0.00  0.00    +0.020 C 
ATOM     33  C   UNL     1       1.429  -6.843  12.390  0.00  0.00    +0.020 C 
ATOM     34  C   UNL     1      -0.812  -7.912  12.111  0.00  0.00    +0.020 C 
ENDBRANCH  28  31
ENDBRANCH   5  27
BRANCH   3  35
ATOM     35  N   UNL     1      -0.048  -2.662   6.494  0.00  0.00    -0.285 N 
ATOM     36  C   UNL     1      -0.525  -1.717   7.329  0.00  0.00    +0.223 C 
ATOM     37  O   UNL     1      -0.971  -2.034   8.412  0.00  0.00    -0.275 OA
ATOM     38  H   UNL     1       0.371  -2.404   5.658  0.00  0.00    +0.155 HD
BRANCH  36  39
ATOM     39  C   UNL     1      -0.505  -0.268   6.917  0.00  0.00    +0.039 C 
ATOM     40  C   UNL     1      -1.099   0.589   8.036  0.00  0.00    +0.020 C 
ATOM     41  C   UNL     1       0.938   0.167   6.652  0.00  0.00    +0.020 C 
ATOM     42  C   UNL     1      -1.333  -0.088   5.643  0.00  0.00    +0.020 C 
ENDBRANCH  36  39
ENDBRANCH   3  35
TORSDOF 8
