REMARK  Name = ZINC22107917
REMARK  13 active torsions:
REMARK  status: ('A' for Active; 'I' for Inactive)
REMARK    1  A    between atoms: C_1  and  C_2
REMARK    2  A    between atoms: C_2  and  O_3
REMARK    3  A    between atoms: O_3  and  C_4
REMARK    4  A    between atoms: C_6  and  C_20
REMARK    5  A    between atoms: C_9  and  O_10
REMARK    6  A    between atoms: O_10  and  C_11
REMARK    7  A    between atoms: C_11  and  C_12
REMARK    8  A    between atoms: C_20  and  N_21
REMARK    9  A    between atoms: N_21  and  C_22
REMARK   10  A    between atoms: C_22  and  C_23
REMARK   11  A    between atoms: C_23  and  S_24
REMARK   12  A    between atoms: S_24  and  C_25
REMARK   13  A    between atoms: N_29  and  C_30
REMARK                            x       y       z     vdW  Elec       q    Type
REMARK                         _______ _______ _______ _____ _____    ______ ____
ROOT
ATOM      1  C   UNL     1       1.812   2.382   1.201  0.00  0.00    +0.164 A 
ATOM      2  C   UNL     1       3.041   3.023   1.188  0.00  0.00    +0.051 A 
ATOM      3  C   UNL     1       3.637   3.350  -0.015  0.00  0.00    -0.059 A 
ATOM      4  C   UNL     1       3.013   3.034  -1.208  0.00  0.00    +0.025 A 
ATOM      5  C   UNL     1       1.790   2.389  -1.202  0.00  0.00    +0.086 A 
ATOM      6  C   UNL     1       1.186   2.059   0.002  0.00  0.00    +0.181 A 
ATOM      7 CL   UNL     1       1.009   1.993  -2.702  0.00  0.00    -0.080 Cl
ENDROOT
BRANCH   1   8
ATOM      8  O   UNL     1       1.221   2.066   2.385  0.00  0.00    -0.489 OA
BRANCH   8  10
ATOM      9  C   UNL     1       1.108   1.995   4.798  0.00  0.00    +0.048 C 
ATOM     10  C   UNL     1       1.921   2.429   3.577  0.00  0.00    +0.226 C 
ENDBRANCH   8  10
ENDBRANCH   1   8
BRANCH   6  11
ATOM     11  O   UNL     1      -0.017   1.425   0.010  0.00  0.00    -0.482 OA
BRANCH  11  12
ATOM     12  C   UNL     1       0.002  -0.004   0.002  0.00  0.00    +0.264 C 
BRANCH  12  13
ATOM     13  C   UNL     1      -1.412  -0.526   0.013  0.00  0.00    -0.010 A 
ATOM     14  C   UNL     1      -2.046  -0.777   1.215  0.00  0.00    +0.010 A 
ATOM     15  C   UNL     1      -3.345  -1.250   1.226  0.00  0.00    +0.039 A 
ATOM     16  C   UNL     1      -4.006  -1.484   0.032  0.00  0.00    +0.123 A 
ATOM     17  C   UNL     1      -3.368  -1.237  -1.171  0.00  0.00    +0.039 A 
ATOM     18  C   UNL     1      -2.071  -0.758  -1.180  0.00  0.00    +0.010 A 
ATOM     19  F   UNL     1      -5.273  -1.951   0.042  0.00  0.00    -0.205 F 
ENDBRANCH  12  13
ENDBRANCH  11  12
ENDBRANCH   6  11
BRANCH   3  20
ATOM     20  C   UNL     1       4.970   4.053  -0.027  0.00  0.00    -0.047 C 
BRANCH  20  21
ATOM     21  N   UNL     1       4.757   5.506  -0.019  0.00  0.00    +0.382 N 
ATOM     22  H   UNL     1       4.181   5.798  -0.909  0.00  0.00    -0.085 HD
ATOM     23  H   UNL     1       4.201   5.790   0.887  0.00  0.00    -0.085 HD
BRANCH  21  24
ATOM     24  C   UNL     1       6.038   6.226  -0.030  0.00  0.00    -0.071 C 
BRANCH  24  25
ATOM     25  C   UNL     1       5.776   7.733  -0.021  0.00  0.00    +0.058 C 
BRANCH  25  26
ATOM     26  S   UNL     1       7.354   8.620  -0.034  0.00  0.00    -0.086 S 
BRANCH  26  27
ATOM     27  C   UNL     1       6.771  10.283  -0.021  0.00  0.00    +0.214 A 
ATOM     28  N   UNL     1       5.514  10.671  -0.004  0.00  0.00    -0.101 NA
ATOM     29  N   UNL     1       5.439  11.953   0.002  0.00  0.00    -0.022 NA
ATOM     30  N   UNL     1       6.619  12.472  -0.009  0.00  0.00    -0.038 NA
ATOM     31  N   UNL     1       7.534  11.405  -0.019  0.00  0.00    -0.187 N 
BRANCH  31  32
ATOM     32  C   UNL     1       8.934  11.483  -0.027  0.00  0.00    +0.070 A 
ATOM     33  C   UNL     1       9.688  10.539   0.656  0.00  0.00    +0.028 A 
ATOM     34  C   UNL     1      11.067  10.616   0.641  0.00  0.00    +0.002 A 
ATOM     35  C   UNL     1      11.696  11.639  -0.044  0.00  0.00    +0.000 A 
ATOM     36  C   UNL     1      10.948  12.584  -0.721  0.00  0.00    +0.002 A 
ATOM     37  C   UNL     1       9.569  12.509  -0.715  0.00  0.00    +0.028 A 
ENDBRANCH  31  32
ENDBRANCH  26  27
ENDBRANCH  25  26
ENDBRANCH  24  25
ENDBRANCH  21  24
ENDBRANCH  20  21
ENDBRANCH   3  20
TORSDOF 12
