REMARK  Name = ZINC39667617
REMARK  11 active torsions:
REMARK  status: ('A' for Active; 'I' for Inactive)
REMARK    1  A    between atoms: C_1  and  C_2
REMARK    2  A    between atoms: C_6  and  C_9
REMARK    3  A    between atoms: C_7  and  C_8
REMARK    4  A    between atoms: C_9  and  N_10
REMARK    5  A    between atoms: C_11  and  C_13
REMARK    6  A    between atoms: C_24  and  C_26
REMARK    7  A    between atoms: C_28  and  C_35
REMARK    8  A    between atoms: N_30  and  C_31
REMARK    9  A    between atoms: C_31  and  C_32
REMARK   10  A    between atoms: C_31  and  C_33
REMARK   11  A    between atoms: C_31  and  C_34
REMARK                            x       y       z     vdW  Elec       q    Type
REMARK                         _______ _______ _______ _____ _____    ______ ____
ROOT
ATOM      1  C   UNL     1      -2.518  -3.838   5.005  0.00  0.00    +0.100 C 
ATOM      2  C   UNL     1      -3.487  -4.538   4.026  0.00  0.00    +0.121 C 
ATOM      3  N   UNL     1      -3.636  -5.911   4.564  0.00  0.00    -0.295 N 
ATOM      4  C   UNL     1      -3.687  -5.727   6.034  0.00  0.00    +0.115 C 
ATOM      5  C   UNL     1      -2.655  -4.619   6.322  0.00  0.00    -0.004 C 
ATOM      6  C   UNL     1      -3.161  -3.701   7.431  0.00  0.00    -0.010 C 
ATOM      7  C   UNL     1      -3.233  -4.485   8.744  0.00  0.00    -0.082 C 
ATOM      8  N   UNL     1      -1.902  -5.004   9.081  0.00  0.00    +0.379 N 
ATOM      9  C   UNL     1      -1.463  -5.958   8.055  0.00  0.00    -0.082 C 
ATOM     10  C   UNL     1      -1.315  -5.236   6.713  0.00  0.00    -0.010 C 
ATOM     11  C   UNL     1      -3.708  -7.066   3.873  0.00  0.00    +0.265 C 
ATOM     12  O   UNL     1      -3.821  -8.122   4.464  0.00  0.00    -0.268 OA
ATOM     13  H   UNL     1      -1.247  -4.238   9.129  0.00  0.00    -0.086 HD
ATOM     14  H   UNL     1      -1.940  -5.468   9.976  0.00  0.00    -0.086 HD
ENDROOT
BRANCH  11  15
ATOM     15  C   UNL     1      -3.651  -7.048   2.402  0.00  0.00    +0.124 A 
ATOM     16  C   UNL     1      -3.736  -5.937   1.581  0.00  0.00    +0.057 A 
ATOM     17  C   UNL     1      -3.631  -6.431   0.279  0.00  0.00    +0.061 A 
ATOM     18  N   UNL     1      -3.495  -7.731   0.352  0.00  0.00    -0.175 NA
ATOM     19  N   UNL     1      -3.497  -8.124   1.575  0.00  0.00    -0.254 N 
ATOM     20  C   UNL     1      -3.667  -5.613  -0.986  0.00  0.00    +0.067 C 
BRANCH  19  21
ATOM     21  C   UNL     1      -3.358  -9.514   2.014  0.00  0.00    +0.056 C 
ATOM     22  C   UNL     1      -4.643  -9.957   2.719  0.00  0.00    +0.036 C 
ATOM     23  C   UNL     1      -3.108 -10.411   0.800  0.00  0.00    +0.036 C 
ATOM     24  C   UNL     1      -2.180  -9.628   2.984  0.00  0.00    +0.036 C 
ENDBRANCH  19  21
ENDBRANCH  11  15
BRANCH   1  26
ATOM     25  N   UNL     1      -0.173  -3.052   4.936  0.00  0.00    -0.311 N 
ATOM     26  C   UNL     1      -1.103  -3.920   4.491  0.00  0.00    +0.218 C 
ATOM     27  O   UNL     1      -0.802  -4.768   3.677  0.00  0.00    -0.275 OA
ATOM     28  H   UNL     1      -0.429  -2.330   5.531  0.00  0.00    +0.149 HD
BRANCH  25  29
ATOM     29  C   UNL     1       1.224  -3.200   4.521  0.00  0.00    +0.139 C 
BRANCH  29  35
ATOM     30  C   UNL     1       3.674  -1.362   8.479  0.00  0.00    +0.044 C 
ATOM     31  C   UNL     1       3.225  -1.232   7.047  0.00  0.00    -0.047 A 
ATOM     32  C   UNL     1       3.572  -0.113   6.312  0.00  0.00    +0.003 A 
ATOM     33  C   UNL     1       3.160   0.006   4.998  0.00  0.00    +0.001 A 
ATOM     34  C   UNL     1       2.400  -0.993   4.419  0.00  0.00    +0.005 A 
ATOM     35  C   UNL     1       2.053  -2.111   5.153  0.00  0.00    -0.027 A 
ATOM     36  C   UNL     1       2.469  -2.233   6.466  0.00  0.00    -0.043 A 
ATOM     37  C   UNL     1       2.095  -3.455   7.264  0.00  0.00    +0.044 C 
ENDBRANCH  29  35
ENDBRANCH  25  29
ENDBRANCH   1  26
TORSDOF 5
