REMARK  Name = ZINC13583767
REMARK  8 active torsions:
REMARK  status: ('A' for Active; 'I' for Inactive)
REMARK    1  A    between atoms: C_1  and  C_2
REMARK    2  A    between atoms: C_5  and  S_8
REMARK    3  A    between atoms: S_8  and  N_11
REMARK    4  A    between atoms: C_19  and  C_21
REMARK    5  A    between atoms: N_23  and  C_24
REMARK    6  A    between atoms: C_24  and  C_25
REMARK    7  A    between atoms: C_30  and  O_31
REMARK    8  A    between atoms: O_31  and  C_32
REMARK                            x       y       z     vdW  Elec       q    Type
REMARK                         _______ _______ _______ _____ _____    ______ ____
ROOT
ATOM      1  N   UNL     1      -1.245   2.048   0.019  0.00  0.00    -0.203 N 
ATOM      2  C   UNL     1      -1.282   3.482   0.334  0.00  0.00    +0.132 C 
ATOM      3  C   UNL     1      -0.157   4.165  -0.456  0.00  0.00    +0.025 C 
ATOM      4  C   UNL     1       1.186   3.613   0.022  0.00  0.00    +0.038 C 
ATOM      5  C   UNL     1       1.174   2.107  -0.001  0.00  0.00    -0.024 A 
ATOM      6  C   UNL     1      -0.017   1.390   0.007  0.00  0.00    +0.054 A 
ATOM      7  C   UNL     1       0.003  -0.004  -0.003  0.00  0.00    +0.026 A 
ATOM      8  C   UNL     1       1.201  -0.679  -0.025  0.00  0.00    +0.015 A 
ATOM      9  C   UNL     1       2.401   0.037  -0.036  0.00  0.00    +0.037 A 
ATOM     10  C   UNL     1       2.378   1.433  -0.024  0.00  0.00    +0.018 A 
ENDROOT
BRANCH   9  11
ATOM     11  C   UNL     1       3.690  -0.681  -0.061  0.00  0.00    +0.244 C 
ATOM     12  O   UNL     1       4.733  -0.057  -0.071  0.00  0.00    -0.270 OA
ATOM     13  N   UNL     1       3.711  -2.029  -0.072  0.00  0.00    -0.307 N 
ATOM     14  H   UNL     1       2.878  -2.526  -0.063  0.00  0.00    +0.149 HD
BRANCH  13  15
ATOM     15  C   UNL     1       4.990  -2.741  -0.096  0.00  0.00    +0.143 C 
BRANCH  15  16
ATOM     16  C   UNL     1       4.738  -4.227  -0.104  0.00  0.00    +0.011 A 
ATOM     17  C   UNL     1       4.849  -4.954   1.066  0.00  0.00    +0.009 A 
ATOM     18  C   UNL     1       4.613  -6.316   1.060  0.00  0.00    +0.001 A 
ATOM     19  C   UNL     1       4.275  -6.956  -0.118  0.00  0.00    +0.004 A 
ATOM     20  C   UNL     1       4.167  -6.235  -1.291  0.00  0.00    +0.046 A 
ATOM     21  C   UNL     1       4.399  -4.867  -1.287  0.00  0.00    +0.125 A 
BRANCH  21  22
ATOM     22  O   UNL     1       4.294  -4.155  -2.440  0.00  0.00    -0.495 OA
ATOM     23  C   UNL     1       3.941  -4.880  -3.620  0.00  0.00    +0.277 C 
ENDBRANCH  21  22
ENDBRANCH  15  16
ENDBRANCH  13  15
ENDBRANCH   9  11
BRANCH   1  24
ATOM     24  S   UNL     1      -2.642   1.224  -0.316  0.00  0.00    +0.075 S 
ATOM     25  O   UNL     1      -3.616   2.200  -0.662  0.00  0.00    -0.150 OA
ATOM     26  O   UNL     1      -2.287   0.160  -1.187  0.00  0.00    -0.150 OA
BRANCH  24  31
ATOM     27  C   UNL     1      -4.497  -1.311   4.836  0.00  0.00    +0.044 C 
ATOM     28  C   UNL     1      -4.034  -0.678   3.549  0.00  0.00    -0.050 A 
ATOM     29  C   UNL     1      -4.460   0.594   3.212  0.00  0.00    +0.005 A 
ATOM     30  C   UNL     1      -4.035   1.174   2.032  0.00  0.00    +0.029 A 
ATOM     31  C   UNL     1      -3.184   0.484   1.189  0.00  0.00    +0.109 A 
ATOM     32  C   UNL     1      -2.762  -0.789   1.524  0.00  0.00    +0.029 A 
ATOM     33  C   UNL     1      -3.183  -1.368   2.706  0.00  0.00    +0.005 A 
ENDBRANCH  24  31
ENDBRANCH   1  24
TORSDOF 6
