REMARK  Name = ZINC18196111
REMARK  10 active torsions:
REMARK  status: ('A' for Active; 'I' for Inactive)
REMARK    1  A    between atoms: C_1  and  C_2
REMARK    2  A    between atoms: C_5  and  N_8
REMARK    3  A    between atoms: C_11  and  C_13
REMARK    4  A    between atoms: C_14  and  C_26
REMARK    5  A    between atoms: C_20  and  C_24
REMARK    6  A    between atoms: C_20  and  C_25
REMARK    7  A    between atoms: C_28  and  N_35
REMARK    8  A    between atoms: C_29  and  O_34
REMARK    9  A    between atoms: C_30  and  O_32
REMARK   10  A    between atoms: O_32  and  C_33
REMARK                            x       y       z     vdW  Elec       q    Type
REMARK                         _______ _______ _______ _____ _____    ______ ____
ROOT
ATOM      1  N   UNL     1       0.057  -4.172  -0.021  0.00  0.00    -0.218 N 
ATOM      2  C   UNL     1       0.692  -4.965   0.866  0.00  0.00    +0.131 A 
ATOM      3  C   UNL     1       0.462  -6.266   0.501  0.00  0.00    +0.027 A 
ATOM      4  C   UNL     1      -0.336  -6.254  -0.635  0.00  0.00    +0.066 A 
ATOM      5  N   UNL     1      -0.587  -5.005  -0.950  0.00  0.00    -0.170 NA
ATOM      6  C   UNL     1      -0.834  -7.468  -1.376  0.00  0.00    +0.068 C 
ATOM      7  C   UNL     1       1.027  -7.428   1.267  0.00  0.00    +0.089 C 
ATOM      8  C   UNL     1       1.543  -6.952   2.608  0.00  0.00    +0.024 C 
ATOM      9  C   UNL     1       1.737  -5.644   2.886  0.00  0.00    +0.017 C 
ATOM     10  N   UNL     1       1.460  -4.651   1.981  0.00  0.00    -0.302 N 
ATOM     11  C   UNL     1       2.284  -5.213   4.228  0.00  0.00    +0.058 C 
ATOM     12  C   UNL     1       1.824  -6.190   5.310  0.00  0.00    -0.023 C 
ATOM     13  C   UNL     1       2.323  -7.590   4.939  0.00  0.00    +0.086 C 
ATOM     14  C   UNL     1       1.814  -7.942   3.569  0.00  0.00    +0.162 C 
ATOM     15  O   UNL     1       1.631  -9.110   3.286  0.00  0.00    -0.292 OA
ATOM     16  C   UNL     1       0.296  -6.191   5.388  0.00  0.00    +0.011 C 
ATOM     17  C   UNL     1       2.409  -5.776   6.662  0.00  0.00    +0.011 C 
ATOM     18  H   UNL     1       1.792  -3.750   2.116  0.00  0.00    +0.153 HD
ENDROOT
BRANCH   1  23
ATOM     19  C   UNL     1      -0.018   1.503   0.010  0.00  0.00    +0.044 C 
ATOM     20  C   UNL     1       0.002  -0.004   0.002  0.00  0.00    -0.050 A 
ATOM     21  C   UNL     1       0.006  -0.688  -1.200  0.00  0.00    +0.005 A 
ATOM     22  C   UNL     1       0.024  -2.068  -1.211  0.00  0.00    +0.028 A 
ATOM     23  C   UNL     1       0.039  -2.771  -0.013  0.00  0.00    +0.067 A 
ATOM     24  C   UNL     1       0.036  -2.082   1.192  0.00  0.00    +0.028 A 
ATOM     25  C   UNL     1       0.023  -0.700   1.196  0.00  0.00    +0.005 A 
ENDBRANCH   1  23
BRANCH   7  26
ATOM     26  C   UNL     1       2.158  -8.043   0.484  0.00  0.00    -0.029 A 
ATOM     27  C   UNL     1       3.270  -7.284   0.168  0.00  0.00    +0.041 A 
ATOM     28  C   UNL     1       4.311  -7.843  -0.550  0.00  0.00    +0.171 A 
ATOM     29  C   UNL     1       4.242  -9.166  -0.954  0.00  0.00    +0.189 A 
ATOM     30  C   UNL     1       3.123  -9.930  -0.635  0.00  0.00    +0.164 A 
ATOM     31  C   UNL     1       2.085  -9.365   0.089  0.00  0.00    +0.054 A 
BRANCH  28  32
ATOM     32  N   UNL     1       5.499  -7.027  -0.888  0.00  0.00    +0.060 N 
ATOM     33  O   UNL     1       5.559  -5.872  -0.536  0.00  0.00    -0.126 OA
ATOM     34  O   UNL     1       6.409  -7.516  -1.516  0.00  0.00    -0.126 OA
ENDBRANCH  28  32
BRANCH  30  35
ATOM     35  O   UNL     1       3.050 -11.230  -1.029  0.00  0.00    -0.491 OA
ATOM     36  C   UNL     1       1.873 -11.953  -0.666  0.00  0.00    +0.277 C 
ENDBRANCH  30  35
BRANCH  29  37
ATOM     37  O   UNL     1       5.264  -9.718  -1.660  0.00  0.00    -0.502 OA
ATOM     38  H   UNL     1       5.946 -10.127  -1.111  0.00  0.00    +0.292 HD
ENDBRANCH  29  37
ENDBRANCH   7  26
TORSDOF 5
