REMARK  Name = ZINC36783723
REMARK  8 active torsions:
REMARK  status: ('A' for Active; 'I' for Inactive)
REMARK    1  A    between atoms: C_1  and  C_2
REMARK    2  A    between atoms: C_2  and  N_3
REMARK    3  A    between atoms: C_12  and  S_13
REMARK    4  A    between atoms: S_13  and  C_14
REMARK    5  A    between atoms: C_14  and  C_15
REMARK    6  A    between atoms: N_17  and  C_18
REMARK    7  A    between atoms: C_20  and  N_25
REMARK    8  A    between atoms: C_29  and  C_33
REMARK                            x       y       z     vdW  Elec       q    Type
REMARK                         _______ _______ _______ _____ _____    ______ ____
ROOT
ATOM      1  N   UNL     1       0.680  -0.519  -1.188  0.00  0.00    -0.288 N 
ATOM      2  C   UNL     1      -0.033  -0.747  -2.306  0.00  0.00    +0.263 A 
ATOM      3  O   UNL     1      -1.238  -0.560  -2.319  0.00  0.00    -0.267 OA
ATOM      4  C   UNL     1       0.642  -1.211  -3.479  0.00  0.00    +0.076 A 
ATOM      5  C   UNL     1       0.071  -1.520  -4.792  0.00  0.00    -0.023 A 
ATOM      6  C   UNL     1       0.925  -1.946  -5.745  0.00  0.00    -0.004 A 
ATOM      7  S   UNL     1       2.516  -1.963  -4.964  0.00  0.00    -0.073 S 
ATOM      8  C   UNL     1       2.029  -1.394  -3.355  0.00  0.00    +0.117 A 
ATOM      9  N   UNL     1       2.675  -1.150  -2.221  0.00  0.00    -0.216 NA
ATOM     10  C   UNL     1       2.030  -0.717  -1.156  0.00  0.00    +0.173 A 
ATOM     11  C   UNL     1       0.594  -2.323  -7.157  0.00  0.00    +0.046 C 
ATOM     12  C   UNL     1      -0.812  -1.799  -7.481  0.00  0.00    -0.009 C 
ATOM     13  C   UNL     1      -1.756  -2.186  -6.338  0.00  0.00    +0.008 C 
ATOM     14  C   UNL     1      -1.418  -1.372  -5.089  0.00  0.00    +0.037 C 
ATOM     15  C   UNL     1      -1.303  -2.422  -8.790  0.00  0.00    +0.008 C 
ENDROOT
BRANCH   1  17
ATOM     16  C   UNL     1      -0.033   1.487   0.017  0.00  0.00    +0.027 C 
ATOM     17  C   UNL     1      -0.004  -0.043   0.017  0.00  0.00    +0.124 C 
ENDBRANCH   1  17
BRANCH  10  18
ATOM     18  S   UNL     1       2.921  -0.397   0.330  0.00  0.00    -0.078 S 
BRANCH  18  19
ATOM     19  C   UNL     1       4.640  -0.793  -0.095  0.00  0.00    +0.173 C 
BRANCH  19  20
ATOM     20  C   UNL     1       5.521  -0.559   1.105  0.00  0.00    +0.228 C 
ATOM     21  O   UNL     1       5.037  -0.165   2.145  0.00  0.00    -0.275 OA
ATOM     22  N   UNL     1       6.846  -0.789   1.023  0.00  0.00    -0.284 N 
ATOM     23  H   UNL     1       7.224  -1.166   0.213  0.00  0.00    +0.155 HD
BRANCH  22  24
ATOM     24  C   UNL     1       7.678  -0.483   2.107  0.00  0.00    +0.054 A 
ATOM     25  C   UNL     1       7.214  -0.642   3.406  0.00  0.00    +0.057 A 
ATOM     26  C   UNL     1       8.037  -0.341   4.474  0.00  0.00    +0.128 A 
ATOM     27  C   UNL     1       9.322   0.120   4.250  0.00  0.00    +0.034 A 
ATOM     28  C   UNL     1       9.787   0.280   2.958  0.00  0.00    +0.024 A 
ATOM     29  C   UNL     1       8.971  -0.025   1.885  0.00  0.00    +0.062 A 
ATOM     30 CL   UNL     1       9.558   0.168   0.263  0.00  0.00    -0.082 Cl
BRANCH  26  31
ATOM     31  N   UNL     1       7.543  -0.509   5.859  0.00  0.00    +0.056 N 
ATOM     32  O   UNL     1       6.420  -0.911   6.055  0.00  0.00    -0.126 OA
ATOM     33  O   UNL     1       8.263  -0.246   6.794  0.00  0.00    -0.126 OA
ENDBRANCH  26  31
ENDBRANCH  22  24
ENDBRANCH  19  20
ENDBRANCH  18  19
ENDBRANCH  10  18
TORSDOF 6
