REMARK  Name = ZINC35870262
REMARK  6 active torsions:
REMARK  status: ('A' for Active; 'I' for Inactive)
REMARK    1  A    between atoms: C_1  and  C_2
REMARK    2  A    between atoms: C_2  and  C_4
REMARK    3  A    between atoms: C_2  and  N_10
REMARK    4  A    between atoms: C_11  and  C_13
REMARK    5  A    between atoms: C_18  and  N_36
REMARK    6  A    between atoms: N_26  and  C_29
REMARK                            x       y       z     vdW  Elec       q    Type
REMARK                         _______ _______ _______ _____ _____    ______ ____
ROOT
ATOM      1  C   UNL     1       2.736  -1.073  -2.455  0.00  0.00    +0.101 C 
ATOM      2  C   UNL     1       2.242  -2.477  -2.802  0.00  0.00    +0.051 C 
ATOM      3  C   UNL     1       2.625  -3.414  -1.686  0.00  0.00    -0.023 A 
ATOM      4  C   UNL     1       1.843  -4.524  -1.429  0.00  0.00    +0.038 A 
ATOM      5  C   UNL     1       2.179  -5.385  -0.400  0.00  0.00    +0.127 A 
ATOM      6  C   UNL     1       3.298  -5.135   0.374  0.00  0.00    +0.034 A 
ATOM      7  C   UNL     1       4.084  -4.030   0.118  0.00  0.00    +0.025 A 
ATOM      8  C   UNL     1       3.751  -3.166  -0.921  0.00  0.00    +0.033 A 
ATOM      9  N   UNL     1       4.586  -2.064  -1.174  0.00  0.00    -0.323 N 
ATOM     10  C   UNL     1       4.247  -1.100  -2.203  0.00  0.00    +0.103 C 
ATOM     11  C   UNL     1       4.703   0.313  -1.877  0.00  0.00    +0.128 C 
ATOM     12  N   UNL     1       5.930   0.349  -1.107  0.00  0.00    -0.325 N 
ATOM     13  C   UNL     1       6.198  -0.576  -0.018  0.00  0.00    +0.124 C 
ATOM     14  C   UNL     1       5.818  -1.987  -0.390  0.00  0.00    +0.124 C 
ENDROOT
BRANCH  12  15
ATOM     15  C   UNL     1       6.893   1.312  -1.423  0.00  0.00    +0.048 A 
ATOM     16  C   UNL     1       6.867   2.553  -0.801  0.00  0.00    +0.024 A 
ATOM     17  C   UNL     1       7.821   3.502  -1.115  0.00  0.00    +0.002 A 
ATOM     18  C   UNL     1       8.801   3.217  -2.048  0.00  0.00    +0.002 A 
ATOM     19  C   UNL     1       8.831   1.982  -2.670  0.00  0.00    +0.022 A 
ATOM     20  C   UNL     1       7.883   1.026  -2.356  0.00  0.00    +0.062 A 
ATOM     21 CL   UNL     1       7.925  -0.527  -3.131  0.00  0.00    -0.082 Cl
ENDBRANCH  12  15
BRANCH   1  23
ATOM     22  N   UNL     1       0.688  -0.476  -1.203  0.00  0.00    -0.308 N 
ATOM     23  C   UNL     1       2.031  -0.587  -1.215  0.00  0.00    +0.219 C 
ATOM     24  O   UNL     1       2.672  -0.295  -0.228  0.00  0.00    -0.275 OA
ATOM     25  H   UNL     1       0.175  -0.710  -1.993  0.00  0.00    +0.149 HD
BRANCH  22  27
ATOM     26  C   UNL     1      -0.019   1.526   0.010  0.00  0.00    +0.033 C 
ATOM     27  C   UNL     1       0.002  -0.004   0.002  0.00  0.00    +0.100 C 
BRANCH  27  28
ATOM     28  C   UNL     1      -1.412  -0.526   0.013  0.00  0.00    -0.027 A 
ATOM     29  C   UNL     1      -2.141  -0.569  -1.161  0.00  0.00    +0.005 A 
ATOM     30  C   UNL     1      -3.438  -1.047  -1.151  0.00  0.00    +0.000 A 
ATOM     31  C   UNL     1      -4.005  -1.483   0.032  0.00  0.00    +0.000 A 
ATOM     32  C   UNL     1      -3.275  -1.441   1.205  0.00  0.00    +0.000 A 
ATOM     33  C   UNL     1      -1.977  -0.966   1.195  0.00  0.00    +0.005 A 
ENDBRANCH  27  28
ENDBRANCH  22  27
ENDBRANCH   1  23
BRANCH   5  34
ATOM     34  N   UNL     1       1.341  -6.573  -0.127  0.00  0.00    +0.056 N 
ATOM     35  O   UNL     1       0.363  -6.792  -0.802  0.00  0.00    -0.126 OA
ATOM     36  O   UNL     1       1.635  -7.326   0.773  0.00  0.00    -0.126 OA
ENDBRANCH   5  34
TORSDOF 5
