REMARK  Name = ZINC32634636
REMARK  6 active torsions:
REMARK  status: ('A' for Active; 'I' for Inactive)
REMARK    1  A    between atoms: C_4  and  O_7
REMARK    2  A    between atoms: O_7  and  C_8
REMARK    3  A    between atoms: C_8  and  C_9
REMARK    4  A    between atoms: C_9  and  N_11
REMARK    5  A    between atoms: N_13  and  C_24
REMARK    6  A    between atoms: C_29  and  C_30
REMARK                            x       y       z     vdW  Elec       q    Type
REMARK                         _______ _______ _______ _____ _____    ______ ____
ROOT
ATOM      1  N   UNL     1       4.664  -3.520   0.081  0.00  0.00    -0.156 NA
ATOM      2  C   UNL     1       5.794  -4.208  -0.038  0.00  0.00    +0.154 C 
ATOM      3  N   UNL     1       7.043  -3.688  -0.101  0.00  0.00    -0.275 N 
ATOM      4  C   UNL     1       8.186  -4.569  -0.273  0.00  0.00    +0.116 C 
ATOM      5  C   UNL     1       8.957  -4.155  -1.548  0.00  0.00    +0.190 C 
ATOM      6  S   UNL     1       9.517  -5.790  -2.195  0.00  0.00    -0.028 S 
ATOM      7  O   UNL     1      10.701  -6.184  -1.515  0.00  0.00    -0.174 OA
ATOM      8  O   UNL     1       9.495  -5.766  -3.616  0.00  0.00    -0.174 OA
ATOM      9  C   UNL     1       8.095  -6.789  -1.575  0.00  0.00    +0.182 C 
ATOM     10  C   UNL     1       7.750  -6.039  -0.286  0.00  0.00    +0.097 C 
ATOM     11  S   UNL     1       5.931  -5.876  -0.132  0.00  0.00    -0.086 S 
ENDROOT
BRANCH   3  12
ATOM     12  C   UNL     1       7.233  -2.306   0.001  0.00  0.00    +0.047 A 
ATOM     13  C   UNL     1       7.013  -1.490  -1.101  0.00  0.00    +0.024 A 
ATOM     14  C   UNL     1       7.201  -0.126  -0.998  0.00  0.00    +0.002 A 
ATOM     15  C   UNL     1       7.607   0.428   0.203  0.00  0.00    +0.001 A 
ATOM     16  C   UNL     1       7.827  -0.381   1.302  0.00  0.00    +0.014 A 
ATOM     17  C   UNL     1       7.635  -1.746   1.206  0.00  0.00    +0.076 A 
BRANCH  17  18
ATOM     18  C   UNL     1       7.868  -2.626   2.407  0.00  0.00    +0.419 C 
ATOM     19  F   UNL     1       8.126  -1.829   3.527  0.00  0.00    -0.166 F 
ATOM     20  F   UNL     1       6.731  -3.406   2.642  0.00  0.00    -0.166 F 
ATOM     21  F   UNL     1       8.965  -3.462   2.167  0.00  0.00    -0.166 F 
ENDBRANCH  17  18
ENDBRANCH   3  12
BRANCH   1  22
ATOM     22  C   UNL     1       4.704  -2.213   0.328  0.00  0.00    +0.276 C 
ATOM     23  O   UNL     1       5.251  -1.801   1.333  0.00  0.00    -0.270 OA
BRANCH  22  24
ATOM     24  C   UNL     1       4.072  -1.244  -0.637  0.00  0.00    +0.326 C 
BRANCH  24  25
ATOM     25  O   UNL     1       4.245   0.090  -0.155  0.00  0.00    -0.483 OA
BRANCH  25  29
ATOM     26  C   UNL     1       2.679   3.133  -2.459  0.00  0.00    +0.000 A 
ATOM     27  C   UNL     1       3.335   3.429  -1.278  0.00  0.00    +0.004 A 
ATOM     28  C   UNL     1       3.860   2.412  -0.505  0.00  0.00    +0.045 A 
ATOM     29  C   UNL     1       3.729   1.093  -0.914  0.00  0.00    +0.121 A 
ATOM     30  C   UNL     1       3.069   0.798  -2.098  0.00  0.00    +0.045 A 
ATOM     31  C   UNL     1       2.546   1.819  -2.868  0.00  0.00    +0.004 A 
ENDBRANCH  25  29
ENDBRANCH  24  25
ENDBRANCH  22  24
ENDBRANCH   1  22
TORSDOF 6
