REMARK  Name = ZINC13259014
REMARK  7 active torsions:
REMARK  status: ('A' for Active; 'I' for Inactive)
REMARK    1  A    between atoms: N_9  and  S_11
REMARK    2  A    between atoms: S_11  and  C_14
REMARK    3  A    between atoms: C_18  and  C_20
REMARK    4  A    between atoms: N_22  and  C_23
REMARK    5  A    between atoms: C_23  and  C_25
REMARK    6  A    between atoms: C_23  and  C_28
REMARK    7  A    between atoms: C_25  and  C_26
REMARK                            x       y       z     vdW  Elec       q    Type
REMARK                         _______ _______ _______ _____ _____    ______ ____
ROOT
ATOM      1  C   UNL     1      -2.422   2.338   0.202  0.00  0.00    +0.106 A 
ATOM      2  C   UNL     1      -1.383   1.424   0.190  0.00  0.00    +0.028 A 
ATOM      3  C   UNL     1      -0.071   1.860   0.144  0.00  0.00    +0.003 A 
ATOM      4  C   UNL     1       0.210   3.210   0.116  0.00  0.00    +0.013 A 
ATOM      5  C   UNL     1      -0.833   4.138   0.134  0.00  0.00    +0.039 A 
ATOM      6  C   UNL     1      -2.154   3.691   0.180  0.00  0.00    +0.041 A 
ENDROOT
BRANCH   5   7
ATOM      7  C   UNL     1      -0.539   5.586   0.104  0.00  0.00    +0.245 C 
ATOM      8  O   UNL     1      -1.449   6.391   0.120  0.00  0.00    -0.270 OA
ATOM      9  N   UNL     1       0.739   6.014   0.060  0.00  0.00    -0.304 N 
ATOM     10  H   UNL     1       1.466   5.375   0.121  0.00  0.00    +0.150 HD
BRANCH   9  11
ATOM     11  C   UNL     1       1.028   7.443  -0.080  0.00  0.00    +0.116 C 
BRANCH  11  12
ATOM     12  C   UNL     1       0.955   7.830  -1.535  0.00  0.00    -0.008 A 
ATOM     13  C   UNL     1       1.169   6.879  -2.515  0.00  0.00    +0.007 A 
ATOM     14  C   UNL     1       1.103   7.234  -3.849  0.00  0.00    +0.000 A 
ATOM     15  C   UNL     1       0.822   8.540  -4.205  0.00  0.00    +0.001 A 
ATOM     16  C   UNL     1       0.607   9.492  -3.226  0.00  0.00    +0.020 A 
ATOM     17  C   UNL     1       0.668   9.136  -1.890  0.00  0.00    +0.046 A 
ATOM     18 CL   UNL     1       0.391  10.329  -0.660  0.00  0.00    -0.083 Cl
ENDBRANCH  11  12
BRANCH  11  19
ATOM     19  C   UNL     1       2.431   7.734   0.455  0.00  0.00    +0.152 C 
BRANCH  19  20
ATOM     20  C   UNL     1       2.462   7.492   1.942  0.00  0.00    +0.358 C 
ATOM     21  O   UNL     1       1.488   7.047   2.502  0.00  0.00    -0.246 OA
ATOM     22  O   UNL     1       3.571   7.770   2.645  0.00  0.00    -0.246 OA
ENDBRANCH  19  20
ENDBRANCH  11  19
ENDBRANCH   9  11
ENDBRANCH   5   7
BRANCH   1  23
ATOM     23  S   UNL     1      -4.090   1.772   0.253  0.00  0.00    +0.061 S 
ATOM     24  O   UNL     1      -4.888   2.813  -0.294  0.00  0.00    -0.153 OA
ATOM     25  O   UNL     1      -4.088   0.454  -0.278  0.00  0.00    -0.153 OA
BRANCH  23  34
ATOM     26  C   UNL     1      -3.355   3.228   6.448  0.00  0.00    +0.000 A 
ATOM     27  C   UNL     1      -4.182   4.205   5.925  0.00  0.00    +0.000 A 
ATOM     28  C   UNL     1      -4.735   4.035   4.673  0.00  0.00    +0.005 A 
ATOM     29  C   UNL     1      -4.467   2.891   3.933  0.00  0.00    -0.028 A 
ATOM     30  C   UNL     1      -3.638   1.921   4.449  0.00  0.00    -0.042 A 
ATOM     31  C   UNL     1      -3.086   2.092   5.713  0.00  0.00    +0.004 A 
ATOM     32  C   UNL     1      -3.287   0.662   3.700  0.00  0.00    +0.052 C 
ATOM     33  C   UNL     1      -4.310   0.385   2.592  0.00  0.00    +0.114 C 
ATOM     34  N   UNL     1      -4.513   1.639   1.849  0.00  0.00    -0.172 NA
ATOM     35  C   UNL     1      -5.111   2.764   2.576  0.00  0.00    +0.144 C 
ENDBRANCH  23  34
ENDBRANCH   1  23
TORSDOF 7
