REMARK  Name = ZINC13273915
REMARK  7 active torsions:
REMARK  status: ('A' for Active; 'I' for Inactive)
REMARK    1  A    between atoms: C_4  and  O_9
REMARK    2  A    between atoms: C_5  and  C_7
REMARK    3  A    between atoms: O_9  and  C_10
REMARK    4  A    between atoms: C_13  and  S_19
REMARK    5  A    between atoms: C_15  and  N_16
REMARK    6  A    between atoms: S_19  and  N_22
REMARK    7  A    between atoms: C_25  and  C_28
REMARK                            x       y       z     vdW  Elec       q    Type
REMARK                         _______ _______ _______ _____ _____    ______ ____
ROOT
ATOM      1  C   UNL     1      -1.168   3.417   0.131  0.00  0.00    +0.159 A 
ATOM      2  C   UNL     1       0.047   4.087   0.127  0.00  0.00    +0.050 A 
ATOM      3  C   UNL     1       0.076   5.464   0.240  0.00  0.00    +0.032 A 
ATOM      4  C   UNL     1      -1.105   6.174   0.357  0.00  0.00    +0.108 A 
ATOM      5  C   UNL     1      -2.317   5.508   0.361  0.00  0.00    +0.065 A 
ATOM      6  C   UNL     1      -2.351   4.132   0.243  0.00  0.00    +0.170 A 
ENDROOT
BRANCH   6   7
ATOM      7  N   UNL     1      -3.650   3.421   0.242  0.00  0.00    +0.060 N 
ATOM      8  O   UNL     1      -4.688   4.050   0.341  0.00  0.00    -0.126 OA
ATOM      9  O   UNL     1      -3.679   2.208   0.142  0.00  0.00    -0.126 OA
ENDBRANCH   6   7
BRANCH   4  10
ATOM     10  S   UNL     1      -1.065   7.929   0.501  0.00  0.00    +0.061 S 
ATOM     11  O   UNL     1      -2.272   8.312   1.145  0.00  0.00    -0.153 OA
ATOM     12  O   UNL     1       0.215   8.265   1.019  0.00  0.00    -0.153 OA
BRANCH  10  13
ATOM     13  N   UNL     1      -1.131   8.548  -1.034  0.00  0.00    -0.177 NA
ATOM     14  C   UNL     1       0.102   8.810  -1.789  0.00  0.00    +0.110 C 
ATOM     15  C   UNL     1       0.090  10.258  -2.275  0.00  0.00    +0.032 C 
ATOM     16  C   UNL     1      -1.197  10.520  -3.061  0.00  0.00    +0.105 C 
ATOM     17  C   UNL     1      -2.406  10.304  -2.149  0.00  0.00    +0.032 C 
ATOM     18  C   UNL     1      -2.423   8.851  -1.664  0.00  0.00    +0.110 C 
BRANCH  16  19
ATOM     19  C   UNL     1      -1.196  11.939  -3.567  0.00  0.00    +0.359 C 
ATOM     20  O   UNL     1      -2.073  12.700  -3.232  0.00  0.00    -0.246 OA
ATOM     21  O   UNL     1      -0.221  12.358  -4.389  0.00  0.00    -0.246 OA
ENDBRANCH  16  19
ENDBRANCH  10  13
ENDBRANCH   4  10
BRANCH   1  22
ATOM     22  O   UNL     1      -1.199   2.063   0.019  0.00  0.00    -0.453 OA
BRANCH  22  26
ATOM     23  C   UNL     1       2.396   0.022   0.029  0.00  0.00    +0.001 A 
ATOM     24  C   UNL     1       1.819   0.416  -1.168  0.00  0.00    +0.004 A 
ATOM     25  C   UNL     1       0.619   1.100  -1.173  0.00  0.00    +0.047 A 
ATOM     26  C   UNL     1      -0.018   1.397   0.023  0.00  0.00    +0.143 A 
ATOM     27  C   UNL     1       0.563   1.000   1.236  0.00  0.00    +0.105 A 
ATOM     28  C   UNL     1       1.778   0.309   1.226  0.00  0.00    +0.019 A 
BRANCH  27  29
ATOM     29  C   UNL     1      -0.103   1.310   2.514  0.00  0.00    +0.390 C 
ATOM     30  O   UNL     1      -1.159   1.911   2.518  0.00  0.00    -0.240 OA
ATOM     31  O   UNL     1       0.459   0.926   3.677  0.00  0.00    -0.240 OA
ENDBRANCH  27  29
ENDBRANCH  22  26
ENDBRANCH   1  22
TORSDOF 7
