REMARK  Name = ZINC39674450
REMARK  9 active torsions:
REMARK  status: ('A' for Active; 'I' for Inactive)
REMARK    1  A    between atoms: C_1  and  C_2
REMARK    2  A    between atoms: C_4  and  C_9
REMARK    3  A    between atoms: C_5  and  C_8
REMARK    4  A    between atoms: C_9  and  C_11
REMARK    5  A    between atoms: C_9  and  N_12
REMARK    6  A    between atoms: C_13  and  C_15
REMARK    7  A    between atoms: C_26  and  C_28
REMARK    8  A    between atoms: C_32  and  O_33
REMARK    9  A    between atoms: O_33  and  C_34
REMARK                            x       y       z     vdW  Elec       q    Type
REMARK                         _______ _______ _______ _____ _____    ______ ____
ROOT
ATOM      1  C   UNL     1      -2.977  -1.073  -4.149  0.00  0.00    +0.100 C 
ATOM      2  C   UNL     1      -2.382   0.160  -4.867  0.00  0.00    +0.121 C 
ATOM      3  N   UNL     1      -2.870   0.051  -6.262  0.00  0.00    -0.296 N 
ATOM      4  C   UNL     1      -4.266  -0.429  -6.128  0.00  0.00    +0.115 C 
ATOM      5  C   UNL     1      -4.213  -1.456  -4.979  0.00  0.00    -0.004 C 
ATOM      6  C   UNL     1      -5.474  -1.357  -4.126  0.00  0.00    -0.010 C 
ATOM      7  C   UNL     1      -6.683  -1.799  -4.956  0.00  0.00    -0.082 C 
ATOM      8  N   UNL     1      -6.485  -3.179  -5.416  0.00  0.00    +0.379 N 
ATOM      9  C   UNL     1      -5.324  -3.247  -6.311  0.00  0.00    -0.082 C 
ATOM     10  C   UNL     1      -4.058  -2.867  -5.538  0.00  0.00    -0.010 C 
ATOM     11  C   UNL     1      -2.196   0.327  -7.396  0.00  0.00    +0.251 C 
ATOM     12  O   UNL     1      -1.017   0.624  -7.346  0.00  0.00    -0.270 OA
ATOM     13  H   UNL     1      -6.330  -3.778  -4.619  0.00  0.00    -0.086 HD
ATOM     14  H   UNL     1      -7.308  -3.488  -5.910  0.00  0.00    -0.086 HD
ENDROOT
BRANCH  11  15
ATOM     15  C   UNL     1      -2.886   0.268  -8.694  0.00  0.00    +0.087 A 
ATOM     16  C   UNL     1      -4.227   0.562  -8.812  0.00  0.00    +0.063 A 
ATOM     17  S   UNL     1      -4.552   0.361 -10.446  0.00  0.00    -0.081 S 
ATOM     18  C   UNL     1      -2.940  -0.115 -11.030  0.00  0.00    +0.120 A 
ATOM     19  C   UNL     1      -2.188  -0.095  -9.906  0.00  0.00    +0.158 A 
ATOM     20 CL   UNL     1      -2.450  -0.505 -12.649  0.00  0.00    -0.072 Cl
BRANCH  19  21
ATOM     21  O   UNL     1      -0.861  -0.400  -9.915  0.00  0.00    -0.492 OA
ATOM     22  C   UNL     1      -0.509  -1.771  -9.715  0.00  0.00    +0.277 C 
ENDBRANCH  19  21
ENDBRANCH  11  15
BRANCH   1  24
ATOM     23  N   UNL     1      -3.456  -1.676  -1.798  0.00  0.00    -0.309 N 
ATOM     24  C   UNL     1      -3.380  -0.716  -2.741  0.00  0.00    +0.219 C 
ATOM     25  O   UNL     1      -3.636   0.435  -2.457  0.00  0.00    -0.275 OA
ATOM     26  H   UNL     1      -3.251  -2.596  -2.025  0.00  0.00    +0.149 HD
BRANCH  23  27
ATOM     27  C   UNL     1      -3.848  -1.329  -0.430  0.00  0.00    +0.100 C 
ATOM     28  C   UNL     1      -2.617  -0.864   0.351  0.00  0.00    +0.033 C 
BRANCH  27  31
ATOM     29  C   UNL     1      -2.535  -3.867   1.184  0.00  0.00    +0.039 C 
ATOM     30  C   UNL     1      -3.838  -3.924   0.384  0.00  0.00    +0.154 C 
ATOM     31  C   UNL     1      -4.443  -2.538   0.244  0.00  0.00    -0.001 C 
ATOM     32  C   UNL     1      -5.624  -2.640   0.857  0.00  0.00    +0.063 C 
ATOM     33  N   UNL     1      -5.808  -3.889   1.341  0.00  0.00    -0.159 NA
ATOM     34  N   UNL     1      -4.871  -4.668   1.125  0.00  0.00    -0.180 NA
ATOM     35  C   UNL     1      -6.619  -1.516   0.991  0.00  0.00    +0.067 C 
ENDBRANCH  27  31
ENDBRANCH  23  27
ENDBRANCH   1  24
TORSDOF 5
