REMARK  Name = ZINC09257637
REMARK  5 active torsions:
REMARK  status: ('A' for Active; 'I' for Inactive)
REMARK    1  A    between atoms: C_3  and  N_15
REMARK    2  A    between atoms: C_5  and  S_7
REMARK    3  A    between atoms: S_7  and  N_10
REMARK    4  A    between atoms: C_16  and  C_18
REMARK    5  A    between atoms: C_21  and  C_23
REMARK                            x       y       z     vdW  Elec       q    Type
REMARK                         _______ _______ _______ _____ _____    ______ ____
ROOT
ATOM      1  C   UNL     1       2.600   2.433  -3.844  0.00  0.00    +0.004 A 
ATOM      2  C   UNL     1       3.467   1.364  -3.954  0.00  0.00    +0.023 A 
ATOM      3  C   UNL     1       3.708   0.551  -2.853  0.00  0.00    +0.036 A 
ATOM      4  C   UNL     1       3.081   0.821  -1.644  0.00  0.00    +0.052 A 
ATOM      5  C   UNL     1       2.210   1.889  -1.542  0.00  0.00    +0.110 A 
ATOM      6  C   UNL     1       1.972   2.695  -2.640  0.00  0.00    +0.029 A 
ENDROOT
BRANCH   3   7
ATOM      7  N   UNL     1       4.586  -0.532  -2.961  0.00  0.00    -0.280 N 
ATOM      8  C   UNL     1       4.654  -1.233  -4.110  0.00  0.00    +0.267 C 
ATOM      9  O   UNL     1       4.015  -0.873  -5.080  0.00  0.00    -0.268 OA
ATOM     10  H   UNL     1       5.146  -0.779  -2.208  0.00  0.00    +0.155 HD
BRANCH   8  11
ATOM     11  C   UNL     1       5.502  -2.434  -4.191  0.00  0.00    +0.134 A 
ATOM     12  C   UNL     1       5.577  -3.154  -5.357  0.00  0.00    +0.080 A 
ATOM     13  S   UNL     1       6.678  -4.422  -4.913  0.00  0.00    -0.074 S 
ATOM     14  C   UNL     1       6.961  -3.914  -3.224  0.00  0.00    +0.116 A 
ATOM     15  N   UNL     1       6.206  -2.830  -3.140  0.00  0.00    -0.234 NA
BRANCH  14  16
ATOM     16  C   UNL     1       7.813  -4.535  -2.198  0.00  0.00    +0.044 A 
ATOM     17  C   UNL     1       8.595  -5.659  -2.287  0.00  0.00    +0.018 A 
ATOM     18  C   UNL     1       9.317  -6.051  -1.183  0.00  0.00    +0.008 A 
ATOM     19  C   UNL     1       9.226  -5.323  -0.039  0.00  0.00    +0.046 A 
ATOM     20  S   UNL     1       8.093  -4.025  -0.510  0.00  0.00    -0.095 S 
ENDBRANCH  14  16
ENDBRANCH   8  11
ENDBRANCH   3   7
BRANCH   5  21
ATOM     21  S   UNL     1       1.408   2.228  -0.011  0.00  0.00    +0.073 S 
ATOM     22  O   UNL     1       1.068   3.607  -0.027  0.00  0.00    -0.150 OA
ATOM     23  O   UNL     1       2.217   1.654   1.007  0.00  0.00    -0.150 OA
BRANCH  21  24
ATOM     24  N   UNL     1      -0.019   1.388  -0.010  0.00  0.00    -0.205 N 
ATOM     25  C   UNL     1      -0.009   0.018  -0.019  0.00  0.00    +0.088 C 
ATOM     26  C   UNL     1       0.759  -2.139  -0.035  0.00  0.00    +0.114 C 
ATOM     27  C   UNL     1      -0.728  -2.241  -0.446  0.00  0.00    +0.028 C 
ATOM     28  C   UNL     1      -1.249  -0.848  -0.013  0.00  0.00    +0.072 C 
ATOM     29  H   UNL     1      -0.863   1.867  -0.006  0.00  0.00    +0.175 HD
ATOM     30  N   UNL     1       1.075  -0.695  -0.029  0.00  0.00    -0.375 N 
ATOM     31  H   UNL     1       2.026  -0.307  -0.032  0.00  0.00    +0.161 HD
ENDBRANCH  21  24
ENDBRANCH   5  21
TORSDOF 5
