REMARK  Name = ZINC03376324
REMARK  11 active torsions:
REMARK  status: ('A' for Active; 'I' for Inactive)
REMARK    1  A    between atoms: C_1  and  C_2
REMARK    2  A    between atoms: C_2  and  C_4
REMARK    3  A    between atoms: C_2  and  N_53
REMARK    4  A    between atoms: C_7  and  S_16
REMARK    5  A    between atoms: N_8  and  C_9
REMARK    6  A    between atoms: S_16  and  C_17
REMARK    7  A    between atoms: C_17  and  C_19
REMARK    8  A    between atoms: C_17  and  C_20
REMARK    9  A    between atoms: N_22  and  C_23
REMARK   10  A    between atoms: C_30  and  N_53
REMARK   11  A    between atoms: C_31  and  N_53
REMARK                            x       y       z     vdW  Elec       q    Type
REMARK                         _______ _______ _______ _____ _____    ______ ____
ROOT
ATOM      1  C   UNL     1      -1.693   3.480   0.062  0.00  0.00    +0.125 A 
ATOM      2  N   UNL     1      -1.677   3.034  -1.162  0.00  0.00    -0.135 NA
ATOM      3  N   UNL     1      -2.599   3.602  -1.853  0.00  0.00    -0.122 NA
ATOM      4  C   UNL     1      -3.261   4.451  -1.102  0.00  0.00    +0.197 A 
ATOM      5  N   UNL     1      -2.707   4.396   0.148  0.00  0.00    -0.275 N 
ENDROOT
BRANCH   5   6
ATOM      6  C   UNL     1      -3.094   5.128   1.280  0.00  0.00    +0.050 A 
ATOM      7  C   UNL     1      -3.620   4.473   2.385  0.00  0.00    +0.028 A 
ATOM      8  C   UNL     1      -3.996   5.195   3.501  0.00  0.00    +0.022 A 
ATOM      9  C   UNL     1      -3.859   6.572   3.513  0.00  0.00    +0.041 A 
ATOM     10  C   UNL     1      -3.341   7.228   2.410  0.00  0.00    +0.022 A 
ATOM     11  C   UNL     1      -2.958   6.510   1.295  0.00  0.00    +0.028 A 
ATOM     12 CL   UNL     1      -4.339   7.478   4.914  0.00  0.00    -0.084 Cl
ENDBRANCH   5   6
BRANCH   1  14
ATOM     13  C   UNL     1       0.606   3.694   0.967  0.00  0.00    -0.005 C 
ATOM     14  C   UNL     1      -0.771   3.060   1.178  0.00  0.00    -0.003 C 
BRANCH  14  17
ATOM     15  C   UNL     1       0.041   1.126  -0.031  0.00  0.00    -0.096 C 
ATOM     16  C   UNL     1       0.053   1.133   2.391  0.00  0.00    -0.096 C 
ATOM     17  N   UNL     1      -0.668   1.586   1.182  0.00  0.00    +0.382 N 
ATOM     18  H   UNL     1      -1.613   1.185   1.188  0.00  0.00    -0.082 HD
ENDBRANCH  14  17
ENDBRANCH   1  14
BRANCH   4  19
ATOM     19  S   UNL     1      -4.613   5.463  -1.605  0.00  0.00    -0.073 S 
BRANCH  19  20
ATOM     20  C   UNL     1      -4.747   4.968  -3.341  0.00  0.00    +0.137 C 
ATOM     21  C   UNL     1      -3.482   5.393  -4.091  0.00  0.00    +0.029 C 
BRANCH  20  22
ATOM     22  C   UNL     1      -5.947   5.635  -3.962  0.00  0.00    +0.230 C 
ATOM     23  O   UNL     1      -6.371   6.673  -3.500  0.00  0.00    -0.274 OA
ATOM     24  N   UNL     1      -6.550   5.077  -5.031  0.00  0.00    -0.282 N 
ATOM     25  H   UNL     1      -6.173   4.282  -5.440  0.00  0.00    +0.155 HD
BRANCH  24  26
ATOM     26  C   UNL     1      -7.719   5.645  -5.551  0.00  0.00    +0.069 A 
ATOM     27  C   UNL     1      -7.892   7.022  -5.532  0.00  0.00    +0.026 A 
ATOM     28  C   UNL     1      -9.044   7.580  -6.050  0.00  0.00    +0.002 A 
ATOM     29  C   UNL     1     -10.031   6.769  -6.579  0.00  0.00    +0.003 A 
ATOM     30  C   UNL     1      -9.867   5.396  -6.595  0.00  0.00    +0.040 A 
ATOM     31  C   UNL     1      -8.713   4.831  -6.082  0.00  0.00    +0.144 A 
ATOM     32  F   UNL     1      -8.552   3.490  -6.098  0.00  0.00    -0.204 F 
ENDBRANCH  24  26
ENDBRANCH  20  22
ENDBRANCH  19  20
ENDBRANCH   4  19
TORSDOF 7
