REMARK  Name = ZINC33494933
REMARK  8 active torsions:
REMARK  status: ('A' for Active; 'I' for Inactive)
REMARK    1  A    between atoms: C_1  and  C_2
REMARK    2  A    between atoms: C_2  and  C_3
REMARK    3  A    between atoms: C_3  and  C_4
REMARK    4  A    between atoms: C_4  and  C_5
REMARK    5  A    between atoms: C_5  and  N_6
REMARK    6  A    between atoms: N_6  and  C_7
REMARK    7  A    between atoms: C_8  and  C_15
REMARK    8  A    between atoms: N_17  and  N_18
REMARK                            x       y       z     vdW  Elec       q    Type
REMARK                         _______ _______ _______ _____ _____    ______ ____
ROOT
ATOM      1  C   UNL     1      -1.397  -1.897  -0.108  0.00  0.00    +0.058 A 
ATOM      2  C   UNL     1      -1.466  -2.704   1.038  0.00  0.00    +0.061 A 
ATOM      3  C   UNL     1      -1.486  -4.094   0.904  0.00  0.00    +0.030 A 
ATOM      4  C   UNL     1      -1.440  -4.665  -0.350  0.00  0.00    +0.020 A 
ATOM      5  C   UNL     1      -1.372  -3.865  -1.481  0.00  0.00    +0.037 A 
ATOM      6  C   UNL     1      -1.356  -2.490  -1.365  0.00  0.00    +0.064 A 
ATOM      7 CL   UNL     1      -1.279  -1.500  -2.788  0.00  0.00    -0.082 Cl
ATOM      8 BR   UNL     1      -1.468  -6.547  -0.529  0.00  0.00    -0.050 Br
ENDROOT
BRANCH   2   9
ATOM      9  C   UNL     1      -1.514  -2.087   2.377  0.00  0.00    +0.259 C 
ATOM     10  O   UNL     1      -1.496  -0.877   2.490  0.00  0.00    -0.269 OA
ATOM     11  N   UNL     1      -1.580  -2.866   3.475  0.00  0.00    -0.250 N 
ATOM     12  H   UNL     1      -1.597  -3.961   3.373  0.00  0.00    +0.169 HD
BRANCH  11  13
ATOM     13  N   UNL     1      -1.625  -2.295   4.715  0.00  0.00    -0.254 NA
ATOM     14  H   UNL     1      -1.676  -3.083   5.480  0.00  0.00    +0.140 HD
ATOM     15  H   UNL     1      -0.721  -1.688   4.873  0.00  0.00    +0.140 HD
ENDBRANCH  11  13
ENDBRANCH   2   9
BRANCH   1  16
ATOM     16  N   UNL     1      -1.376  -0.512   0.012  0.00  0.00    -0.342 N 
ATOM     17  H   UNL     1      -2.219   0.185   0.131  0.00  0.00    +0.146 HD
BRANCH  16  18
ATOM     18  C   UNL     1       0.000  -0.001  -0.036  0.00  0.00    +0.101 C 
BRANCH  18  19
ATOM     19  C   UNL     1      -0.007   1.506   0.228  0.00  0.00    +0.019 C 
BRANCH  19  20
ATOM     20  C   UNL     1       1.427   2.039   0.178  0.00  0.00    +0.001 C 
BRANCH  20  22
ATOM     21  C   UNL     1       2.853   4.079   0.391  0.00  0.00    +0.004 C 
ATOM     22  C   UNL     1       1.420   3.546   0.442  0.00  0.00    -0.003 C 
ENDBRANCH  20  22
ENDBRANCH  19  20
ENDBRANCH  18  19
ENDBRANCH  16  18
ENDBRANCH   1  16
TORSDOF 7
