REMARK  Name = ZINC18709031
REMARK  10 active torsions:
REMARK  status: ('A' for Active; 'I' for Inactive)
REMARK    1  A    between atoms: C_1  and  C_2
REMARK    2  A    between atoms: C_2  and  O_3
REMARK    3  A    between atoms: O_3  and  C_4
REMARK    4  A    between atoms: C_4  and  C_6
REMARK    5  A    between atoms: C_7  and  C_22
REMARK    6  A    between atoms: C_12  and  C_14
REMARK    7  A    between atoms: C_17  and  O_20
REMARK    8  A    between atoms: O_20  and  C_21
REMARK    9  A    between atoms: C_22  and  N_23
REMARK   10  A    between atoms: N_26  and  C_29
REMARK                            x       y       z     vdW  Elec       q    Type
REMARK                         _______ _______ _______ _____ _____    ______ ____
ROOT
ATOM      1  C   UNL     1      -1.658   6.533  -1.623  0.00  0.00    +0.079 C 
ATOM      2  C   UNL     1      -0.476   6.039  -2.048  0.00  0.00    +0.038 C 
ATOM      3  N   UNL     1      -0.210   5.895  -3.380  0.00  0.00    -0.271 N 
ATOM      4  C   UNL     1      -1.078   6.213  -4.349  0.00  0.00    +0.304 C 
ATOM      5  O   UNL     1      -0.752   6.045  -5.508  0.00  0.00    -0.252 OA
ATOM      6  N   UNL     1      -2.298   6.718  -4.081  0.00  0.00    -0.288 N 
ATOM      7  C   UNL     1      -2.681   6.916  -2.673  0.00  0.00    +0.144 C 
ATOM      8  H   UNL     1       0.763   5.499  -3.707  0.00  0.00    +0.156 HD
ATOM      9  H   UNL     1      -3.003   6.979  -4.885  0.00  0.00    +0.151 HD
ENDROOT
BRANCH   7  10
ATOM     10  C   UNL     1      -3.933   6.118  -2.415  0.00  0.00    -0.022 A 
ATOM     11  C   UNL     1      -4.016   4.806  -2.844  0.00  0.00    +0.009 A 
ATOM     12  C   UNL     1      -5.160   4.071  -2.604  0.00  0.00    +0.046 A 
ATOM     13  C   UNL     1      -6.232   4.654  -1.943  0.00  0.00    +0.120 A 
ATOM     14  C   UNL     1      -6.149   5.972  -1.519  0.00  0.00    +0.046 A 
ATOM     15  C   UNL     1      -5.000   6.701  -1.756  0.00  0.00    +0.009 A 
BRANCH  13  16
ATOM     16  O   UNL     1      -7.361   3.934  -1.711  0.00  0.00    -0.495 OA
ATOM     17  C   UNL     1      -7.376   2.583  -2.175  0.00  0.00    +0.277 C 
ENDBRANCH  13  16
ENDBRANCH   7  10
BRANCH   1  18
ATOM     18  C   UNL     1      -1.933   6.687  -0.244  0.00  0.00    +0.339 C 
ATOM     19  O   UNL     1      -2.605   5.857   0.340  0.00  0.00    -0.245 OA
BRANCH  18  20
ATOM     20  O   UNL     1      -1.449   7.755   0.425  0.00  0.00    -0.462 OA
BRANCH  20  22
ATOM     21  C   UNL     1      -1.136   9.114   2.398  0.00  0.00    +0.048 C 
ATOM     22  C   UNL     1      -1.765   7.848   1.815  0.00  0.00    +0.229 C 
ENDBRANCH  20  22
ENDBRANCH  18  20
ENDBRANCH   1  18
BRANCH   2  23
ATOM     23  C   UNL     1       0.570   5.645  -1.037  0.00  0.00    +0.136 C 
BRANCH  23  24
ATOM     24  N   UNL     1       0.808   4.198  -1.117  0.00  0.00    -0.294 NA
ATOM     25  C   UNL     1       1.640   3.738   0.004  0.00  0.00    +0.103 C 
ATOM     26  C   UNL     1       1.931   2.244  -0.159  0.00  0.00    +0.120 C 
ATOM     27  N   UNL     1       0.662   1.504  -0.208  0.00  0.00    -0.327 N 
ATOM     28  C   UNL     1      -0.170   1.963  -1.329  0.00  0.00    +0.120 C 
ATOM     29  C   UNL     1      -0.460   3.457  -1.166  0.00  0.00    +0.103 C 
BRANCH  27  30
ATOM     30  C   UNL     1       0.889   0.128  -0.284  0.00  0.00    +0.031 A 
ATOM     31  C   UNL     1      -0.185  -0.753  -0.340  0.00  0.00    +0.023 A 
ATOM     32  C   UNL     1       0.042  -2.113  -0.416  0.00  0.00    +0.003 A 
ATOM     33  C   UNL     1       1.336  -2.600  -0.436  0.00  0.00    +0.020 A 
ATOM     34  C   UNL     1       2.408  -1.726  -0.381  0.00  0.00    +0.043 A 
ATOM     35  C   UNL     1       2.187  -0.364  -0.310  0.00  0.00    +0.043 A 
ATOM     36 CL   UNL     1       4.031  -2.342  -0.408  0.00  0.00    -0.083 Cl
ENDBRANCH  27  30
ENDBRANCH  23  24
ENDBRANCH   2  23
TORSDOF 8
