REMARK  Name = ZINC38547410
REMARK  7 active torsions:
REMARK  status: ('A' for Active; 'I' for Inactive)
REMARK    1  A    between atoms: C_1  and  C_2
REMARK    2  A    between atoms: C_6  and  N_8
REMARK    3  A    between atoms: N_8  and  C_9
REMARK    4  A    between atoms: C_9  and  C_11
REMARK    5  A    between atoms: C_9  and  C_17
REMARK    6  A    between atoms: C_21  and  N_22
REMARK    7  A    between atoms: C_23  and  C_25
REMARK                            x       y       z     vdW  Elec       q    Type
REMARK                         _______ _______ _______ _____ _____    ______ ____
ROOT
ATOM      1  C   UNL     1       0.779  -4.671   3.664  0.00  0.00    +0.009 A 
ATOM      2  C   UNL     1       1.798  -5.609   3.494  0.00  0.00    -0.030 A 
ATOM      3  C   UNL     1       2.406  -6.060   4.624  0.00  0.00    -0.005 A 
ATOM      4  S   UNL     1       1.578  -5.192   5.929  0.00  0.00    -0.078 S 
ATOM      5  C   UNL     1       0.447  -4.252   4.915  0.00  0.00    +0.078 A 
ATOM      6  C   UNL     1       3.514  -7.058   4.726  0.00  0.00    +0.043 C 
ATOM      7  C   UNL     1       3.633  -7.787   3.379  0.00  0.00    +0.005 C 
ATOM      8  C   UNL     1       3.626  -6.747   2.255  0.00  0.00    +0.005 C 
ATOM      9  C   UNL     1       2.235  -6.126   2.126  0.00  0.00    +0.036 C 
ENDROOT
BRANCH   5  10
ATOM     10  N   UNL     1      -0.525  -3.329   5.304  0.00  0.00    -0.273 N 
ATOM     11  C   UNL     1      -0.777  -3.127   6.613  0.00  0.00    +0.284 C 
ATOM     12  O   UNL     1      -0.157  -3.750   7.455  0.00  0.00    -0.266 OA
ATOM     13  H   UNL     1      -1.019  -2.832   4.633  0.00  0.00    +0.156 HD
BRANCH  11  14
ATOM     14  C   UNL     1      -1.798  -2.158   7.022  0.00  0.00    +0.189 A 
ATOM     15  C   UNL     1      -2.147  -1.854   8.307  0.00  0.00    +0.054 A 
ATOM     16  C   UNL     1      -3.157  -0.882   8.232  0.00  0.00    +0.042 A 
ATOM     17  C   UNL     1      -3.377  -0.638   6.921  0.00  0.00    +0.196 A 
ATOM     18  O   UNL     1      -2.553  -1.405   6.195  0.00  0.00    -0.458 OA
ENDBRANCH  11  14
ENDBRANCH   5  10
BRANCH   1  19
ATOM     19  C   UNL     1       0.052  -4.120   2.465  0.00  0.00    +0.136 C 
BRANCH  19  20
ATOM     20  C   UNL     1      -1.333  -4.711   2.401  0.00  0.00    -0.005 A 
ATOM     21  C   UNL     1      -1.561  -5.891   1.709  0.00  0.00    +0.009 A 
ATOM     22  C   UNL     1      -2.850  -6.398   1.676  0.00  0.00    +0.020 A 
ATOM     23  C   UNL     1      -3.859  -5.716   2.331  0.00  0.00    +0.111 A 
ATOM     24  N   UNL     1      -3.605  -4.596   2.979  0.00  0.00    -0.263 NA
ATOM     25  C   UNL     1      -2.390  -4.088   3.036  0.00  0.00    +0.116 A 
ENDBRANCH  19  20
BRANCH  19  26
ATOM     26  N   UNL     1      -0.045  -2.662   2.581  0.00  0.00    -0.320 N 
ATOM     27  H   UNL     1       0.085  -2.234   3.441  0.00  0.00    +0.148 HD
BRANCH  26  33
ATOM     28  C   UNL     1      -0.758   1.684   0.705  0.00  0.00    +0.063 C 
ATOM     29  C   UNL     1      -0.670   0.190   0.526  0.00  0.00    +0.014 A 
ATOM     30  C   UNL     1      -0.865  -0.359  -0.726  0.00  0.00    +0.021 A 
ATOM     31  C   UNL     1      -0.783  -1.735  -0.885  0.00  0.00    +0.005 A 
ATOM     32  C   UNL     1      -0.507  -2.513   0.225  0.00  0.00    +0.041 A 
ATOM     33  C   UNL     1      -0.322  -1.893   1.456  0.00  0.00    +0.097 A 
ATOM     34  N   UNL     1      -0.403  -0.576   1.567  0.00  0.00    -0.347 N 
ATOM     35  H   UNL     1      -0.266  -0.164   2.434  0.00  0.00    +0.167 HD
ENDBRANCH  26  33
ENDBRANCH  19  26
ENDBRANCH   1  19
TORSDOF 6
