REMARK  Name = ZINC24104626
REMARK  8 active torsions:
REMARK  status: ('A' for Active; 'I' for Inactive)
REMARK    1  A    between atoms: C_4  and  C_7
REMARK    2  A    between atoms: C_7  and  C_8
REMARK    3  A    between atoms: C_8  and  C_10
REMARK    4  A    between atoms: C_8  and  N_16
REMARK    5  A    between atoms: C_17  and  C_19
REMARK    6  A    between atoms: C_19  and  N_20
REMARK    7  A    between atoms: N_23  and  C_26
REMARK    8  A    between atoms: C_31  and  N_32
REMARK                            x       y       z     vdW  Elec       q    Type
REMARK                         _______ _______ _______ _____ _____    ______ ____
ROOT
ATOM      1  N   UNL     1       4.574   4.217   1.589  0.00  0.00    -0.310 N 
ATOM      2  C   UNL     1       3.437   3.501   1.490  0.00  0.00    +0.197 C 
ATOM      3  O   UNL     1       2.362   4.051   1.604  0.00  0.00    -0.278 OA
ATOM      4  H   UNL     1       5.549   3.718   1.486  0.00  0.00    +0.149 HD
ENDROOT
BRANCH   1   5
ATOM      5  C   UNL     1       4.512   5.660   1.836  0.00  0.00    +0.107 C 
BRANCH   5   6
ATOM      6  C   UNL     1       4.340   6.386   0.526  0.00  0.00    -0.027 A 
ATOM      7  C   UNL     1       5.034   5.966  -0.593  0.00  0.00    +0.005 A 
ATOM      8  C   UNL     1       4.873   6.629  -1.795  0.00  0.00    +0.000 A 
ATOM      9  C   UNL     1       4.025   7.718  -1.876  0.00  0.00    +0.000 A 
ATOM     10  C   UNL     1       3.335   8.141  -0.755  0.00  0.00    +0.000 A 
ATOM     11  C   UNL     1       3.492   7.475   0.446  0.00  0.00    +0.005 A 
ENDBRANCH   5   6
BRANCH   5  12
ATOM     12  C   UNL     1       5.808   6.119   2.507  0.00  0.00    +0.062 C 
BRANCH  12  16
ATOM     13  C   UNL     1       6.122   4.326   6.372  0.00  0.00    +0.000 A 
ATOM     14  C   UNL     1       6.650   3.684   5.267  0.00  0.00    +0.000 A 
ATOM     15  C   UNL     1       6.548   4.264   4.016  0.00  0.00    +0.004 A 
ATOM     16  C   UNL     1       5.918   5.486   3.870  0.00  0.00    -0.045 A 
ATOM     17  C   UNL     1       5.396   6.131   4.976  0.00  0.00    +0.004 A 
ATOM     18  C   UNL     1       5.493   5.548   6.226  0.00  0.00    +0.000 A 
ENDBRANCH  12  16
ENDBRANCH   5  12
ENDBRANCH   1   5
BRANCH   2  19
ATOM     19  C   UNL     1       3.501   2.017   1.237  0.00  0.00    +0.019 C 
BRANCH  19  20
ATOM     20  N   UNL     1       2.138   1.472   1.171  0.00  0.00    +0.387 N 
ATOM     21  C   UNL     1       1.419   1.992  -0.001  0.00  0.00    -0.059 C 
ATOM     22  C   UNL     1      -0.018   1.465   0.010  0.00  0.00    +0.086 C 
ATOM     23  N   UNL     1       0.002  -0.004   0.002  0.00  0.00    -0.332 N 
ATOM     24  C   UNL     1       0.721  -0.525   1.173  0.00  0.00    +0.086 C 
ATOM     25  C   UNL     1       2.158   0.003   1.162  0.00  0.00    -0.059 C 
ATOM     26  H   UNL     1       1.600   1.799   2.072  0.00  0.00    -0.081 HD
BRANCH  23  27
ATOM     27  C   UNL     1      -1.294  -0.522  -0.061  0.00  0.00    +0.060 A 
ATOM     28  C   UNL     1      -2.208  -0.233   0.944  0.00  0.00    +0.025 A 
ATOM     29  C   UNL     1      -3.490  -0.742   0.876  0.00  0.00    +0.002 A 
ATOM     30  C   UNL     1      -3.860  -1.548  -0.186  0.00  0.00    +0.002 A 
ATOM     31  C   UNL     1      -2.951  -1.842  -1.184  0.00  0.00    +0.034 A 
ATOM     32  C   UNL     1      -1.669  -1.332  -1.125  0.00  0.00    +0.147 A 
BRANCH  32  33
ATOM     33  N   UNL     1      -0.695  -1.648  -2.195  0.00  0.00    +0.058 N 
ATOM     34  O   UNL     1      -1.025  -2.358  -3.127  0.00  0.00    -0.126 OA
ATOM     35  O   UNL     1       0.435  -1.198  -2.141  0.00  0.00    -0.126 OA
ENDBRANCH  32  33
ENDBRANCH  23  27
ENDBRANCH  19  20
ENDBRANCH   2  19
TORSDOF 8
