REMARK  Name = ZINC20343111
REMARK  10 active torsions:
REMARK  status: ('A' for Active; 'I' for Inactive)
REMARK    1  A    between atoms: C_1  and  C_2
REMARK    2  A    between atoms: C_3  and  C_37
REMARK    3  A    between atoms: C_6  and  N_7
REMARK    4  A    between atoms: N_7  and  S_8
REMARK    5  A    between atoms: S_8  and  C_11
REMARK    6  A    between atoms: C_14  and  N_17
REMARK    7  A    between atoms: C_18  and  C_20
REMARK    8  A    between atoms: C_28  and  C_30
REMARK    9  A    between atoms: C_34  and  C_35
REMARK   10  A    between atoms: C_34  and  C_36
REMARK                            x       y       z     vdW  Elec       q    Type
REMARK                         _______ _______ _______ _____ _____    ______ ____
ROOT
ATOM      1  C   UNL     1       3.626   3.245   1.507  0.00  0.00    +0.111 A 
ATOM      2  C   UNL     1       4.616   3.680   2.369  0.00  0.00    +0.031 A 
ATOM      3  C   UNL     1       4.277   4.275   3.569  0.00  0.00    +0.025 A 
ATOM      4  C   UNL     1       2.940   4.426   3.913  0.00  0.00    +0.034 A 
ATOM      5  C   UNL     1       1.948   3.984   3.047  0.00  0.00    +0.025 A 
ATOM      6  C   UNL     1       2.294   3.395   1.847  0.00  0.00    +0.031 A 
ENDROOT
BRANCH   4   7
ATOM      7  N   UNL     1       2.593   5.023   5.130  0.00  0.00    -0.285 N 
ATOM      8  C   UNL     1       1.493   5.798   5.211  0.00  0.00    +0.222 C 
ATOM      9  O   UNL     1       0.760   5.912   4.252  0.00  0.00    -0.275 OA
ATOM     10  H   UNL     1       3.218   4.861   6.021  0.00  0.00    +0.155 HD
BRANCH   8  11
ATOM     11  C   UNL     1       1.173   6.521   6.494  0.00  0.00    +0.097 C 
ATOM     12  C   UNL     1      -0.140   7.347   6.342  0.00  0.00    +0.028 C 
ATOM     13  C   UNL     1      -0.474   7.829   7.787  0.00  0.00    +0.009 C 
ATOM     14  C   UNL     1       0.609   8.890   8.094  0.00  0.00    +0.009 C 
ATOM     15  C   UNL     1       1.479   8.934   6.801  0.00  0.00    +0.030 C 
ATOM     16  C   UNL     1       2.256   7.582   6.801  0.00  0.00    +0.122 C 
ATOM     17  C   UNL     1       0.409   8.652   5.722  0.00  0.00    -0.063 C 
ATOM     18  C   UNL     1       0.075   9.306   4.636  0.00  0.00    -0.076 C 
ATOM     19  C   UNL     1      -1.030   8.787   3.754  0.00  0.00    +0.039 C 
ATOM     20  C   UNL     1       0.797  10.577   4.271  0.00  0.00    +0.039 C 
BRANCH  16  21
ATOM     21  C   UNL     1       2.874   7.330   8.152  0.00  0.00    +0.360 C 
ATOM     22  O   UNL     1       2.560   6.351   8.786  0.00  0.00    -0.246 OA
ATOM     23  O   UNL     1       3.774   8.192   8.650  0.00  0.00    -0.246 OA
ENDBRANCH  16  21
ENDBRANCH   8  11
ENDBRANCH   4   7
BRANCH   1  24
ATOM     24  S   UNL     1       4.063   2.493  -0.025  0.00  0.00    +0.094 S 
ATOM     25  O   UNL     1       2.964   1.675  -0.404  0.00  0.00    -0.148 OA
ATOM     26  O   UNL     1       5.377   1.976   0.136  0.00  0.00    -0.148 OA
BRANCH  24  27
ATOM     27  N   UNL     1       4.164   3.701  -1.153  0.00  0.00    -0.057 NA
BRANCH  27  33
ATOM     28  C   UNL     1       4.583   6.089  -3.127  0.00  0.00    +0.051 C 
ATOM     29  C   UNL     1       5.347   5.732  -1.878  0.00  0.00    +0.037 A 
ATOM     30  C   UNL     1       6.443   6.408  -1.308  0.00  0.00    +0.085 A 
ATOM     31  N   UNL     1       6.775   5.742  -0.238  0.00  0.00    -0.081 NA
ATOM     32  O   UNL     1       6.063   4.779  -0.069  0.00  0.00    -0.336 OA
ATOM     33  C   UNL     1       5.136   4.677  -1.035  0.00  0.00    +0.262 A 
ATOM     34  C   UNL     1       7.103   7.657  -1.832  0.00  0.00    +0.069 C 
ENDBRANCH  27  33
ENDBRANCH  24  27
ENDBRANCH   1  24
TORSDOF 6
