REMARK  Name = ZINC60280313
REMARK  3 active torsions:
REMARK  status: ('A' for Active; 'I' for Inactive)
REMARK    1  A    between atoms: C_1  and  N_2
REMARK    2  A    between atoms: C_4  and  C_10
REMARK    3  A    between atoms: C_6  and  C_7
REMARK                            x       y       z     vdW  Elec       q    Type
REMARK                         _______ _______ _______ _____ _____    ______ ____
ROOT
ATOM      1  C   UNL     1      -0.013   1.086   0.008  0.00  0.00    +0.138 C 
ATOM      2  N   UNL     1      -0.721   1.571  -1.179  0.00  0.00    -0.282 N 
ATOM      3  C   UNL     1      -0.131   1.843  -2.394  0.00  0.00    +0.100 C 
ATOM      4  C   UNL     1      -1.274   2.309  -3.276  0.00  0.00    +0.172 C 
ATOM      5  N   UNL     1      -2.450   2.240  -2.395  0.00  0.00    -0.363 N 
ATOM      6  C   UNL     1      -2.064   1.814  -1.244  0.00  0.00    +0.079 C 
ATOM      7  N   UNL     1       1.116   1.728  -2.712  0.00  0.00    -0.388 N 
ATOM      8  H   UNL     1       1.757   1.417  -2.054  0.00  0.00    +0.157 HD
ATOM      9  H   UNL     1       1.411   1.953  -3.608  0.00  0.00    +0.157 HD
ATOM     10  H   UNL     1      -3.360   2.471  -2.640  0.00  0.00    +0.162 HD
ENDROOT
BRANCH   4  11
ATOM     11  C   UNL     1      -1.442   1.387  -4.456  0.00  0.00    -0.013 A 
ATOM     12  C   UNL     1      -0.922   1.740  -5.687  0.00  0.00    +0.055 A 
ATOM     13  C   UNL     1      -1.074   0.893  -6.775  0.00  0.00    +0.164 A 
ATOM     14  C   UNL     1      -1.749  -0.312  -6.623  0.00  0.00    +0.180 A 
ATOM     15  C   UNL     1      -2.271  -0.660  -5.386  0.00  0.00    +0.087 A 
ATOM     16  C   UNL     1      -2.111   0.187  -4.304  0.00  0.00    +0.030 A 
ATOM     17 CL   UNL     1      -3.119  -2.163  -5.193  0.00  0.00    -0.080 Cl
ATOM     18  O   UNL     1      -1.903  -1.162  -7.676  0.00  0.00    -0.483 OA
ATOM     19  C   UNL     1      -1.694  -0.613  -8.982  0.00  0.00    +0.270 C 
ATOM     20  C   UNL     1      -0.403   0.216  -8.953  0.00  0.00    +0.270 C 
ATOM     21  O   UNL     1      -0.559   1.256  -7.981  0.00  0.00    -0.485 OA
ENDBRANCH   4  11
BRANCH   6  22
ATOM     22  C   UNL     1      -3.000   1.609  -0.081  0.00  0.00    +0.051 C 
ATOM     23  C   UNL     1      -4.340   0.927  -0.364  0.00  0.00    +0.011 C 
ATOM     24  C   UNL     1      -4.293   2.426  -0.062  0.00  0.00    +0.011 C 
ENDBRANCH   6  22
TORSDOF 2
