REMARK  Name = ZINC26579873
REMARK  8 active torsions:
REMARK  status: ('A' for Active; 'I' for Inactive)
REMARK    1  A    between atoms: C_1  and  C_2
REMARK    2  A    between atoms: C_7  and  C_41
REMARK    3  A    between atoms: C_11  and  O_34
REMARK    4  A    between atoms: C_13  and  C_33
REMARK    5  A    between atoms: C_16  and  O_32
REMARK    6  A    between atoms: C_21  and  C_25
REMARK    7  A    between atoms: C_37  and  C_39
REMARK    8  A    between atoms: C_37  and  C_40
REMARK                            x       y       z     vdW  Elec       q    Type
REMARK                         _______ _______ _______ _____ _____    ______ ____
ROOT
ATOM      1  C   UNL     1       0.364   1.357  -1.099  0.00  0.00    +0.012 C 
ATOM      2  C   UNL     1       0.347  -0.154  -0.897  0.00  0.00    -0.019 C 
ATOM      3  C   UNL     1      -1.116  -0.609  -0.801  0.00  0.00    +0.010 C 
ATOM      4  C   UNL     1      -1.768  -0.050   0.465  0.00  0.00    +0.033 C 
ATOM      5  C   UNL     1      -1.038  -0.597   1.684  0.00  0.00    +0.130 C 
ATOM      6  C   UNL     1       0.435  -0.163   1.670  0.00  0.00    +0.021 C 
ATOM      7  C   UNL     1       1.093  -0.562   0.373  0.00  0.00    +0.009 C 
ATOM      8  C   UNL     1       2.547  -0.103   0.279  0.00  0.00    +0.040 C 
ATOM      9  C   UNL     1       3.227  -0.869  -0.856  0.00  0.00    +0.158 C 
ATOM     10  C   UNL     1       2.504  -0.665  -2.188  0.00  0.00    +0.139 C 
ATOM     11  C   UNL     1       1.007  -0.891  -2.059  0.00  0.00    +0.075 C 
ATOM     12  C   UNL     1       0.287  -0.723  -3.386  0.00  0.00    +0.163 C 
ATOM     13  C   UNL     1       1.101  -1.339  -4.499  0.00  0.00    +0.107 A 
ATOM     14  C   UNL     1       2.391  -1.777  -4.290  0.00  0.00    +0.137 A 
ATOM     15  C   UNL     1       3.101  -2.324  -5.381  0.00  0.00    +0.093 A 
ATOM     16  C   UNL     1       2.500  -2.409  -6.597  0.00  0.00    +0.144 A 
ATOM     17  O   UNL     1       1.236  -1.999  -6.787  0.00  0.00    -0.422 OA
ATOM     18  C   UNL     1       0.536  -1.467  -5.774  0.00  0.00    +0.346 A 
ATOM     19  O   UNL     1      -0.609  -1.094  -5.969  0.00  0.00    -0.245 OA
ATOM     20  O   UNL     1       2.993  -1.696  -3.083  0.00  0.00    -0.482 OA
ATOM     21  C   UNL     1       2.883   0.684  -2.794  0.00  0.00    +0.059 C 
ATOM     22  C   UNL     1       1.082  -0.922   2.852  0.00  0.00    +0.172 C 
ATOM     23  O   UNL     1       0.419  -0.504   4.044  0.00  0.00    -0.349 OA
ATOM     24  C   UNL     1      -0.996  -0.630   4.092  0.00  0.00    +0.165 C 
ATOM     25  O   UNL     1      -1.621  -0.149   2.903  0.00  0.00    -0.345 OA
ATOM     26  C   UNL     1      -1.381  -2.094   4.325  0.00  0.00    +0.074 C 
ATOM     27  C   UNL     1      -1.518   0.198   5.279  0.00  0.00    +0.074 C 
ATOM     28  C   UNL     1       0.552   1.328   1.979  0.00  0.00    +0.016 C 
ENDROOT
BRANCH  16  29
ATOM     29  C   UNL     1       3.256  -2.963  -7.738  0.00  0.00    +0.036 A 
ATOM     30  C   UNL     1       2.666  -3.059  -9.005  0.00  0.00    +0.014 A 
ATOM     31  C   UNL     1       3.417  -3.585 -10.040  0.00  0.00    +0.020 A 
ATOM     32  C   UNL     1       4.716  -3.996  -9.794  0.00  0.00    +0.111 A 
ATOM     33  N   UNL     1       5.246  -3.894  -8.590  0.00  0.00    -0.263 NA
ATOM     34  C   UNL     1       4.574  -3.395  -7.574  0.00  0.00    +0.122 A 
ENDBRANCH  16  29
BRANCH  12  35
ATOM     35  O   UNL     1       0.019   0.636  -3.722  0.00  0.00    -0.386 OA
ATOM     36  H   UNL     1      -0.439   0.750  -4.566  0.00  0.00    +0.210 HD
ENDBRANCH  12  35
BRANCH   9  37
ATOM     37  O   UNL     1       4.579  -0.419  -0.981  0.00  0.00    -0.388 OA
ATOM     38  H   UNL     1       5.112  -0.550  -0.185  0.00  0.00    +0.210 HD
ENDBRANCH   9  37
TORSDOF 3
