REMARK  Name = ZINC09933394
REMARK  7 active torsions:
REMARK  status: ('A' for Active; 'I' for Inactive)
REMARK    1  A    between atoms: C_1  and  O_2
REMARK    2  A    between atoms: O_2  and  C_3
REMARK    3  A    between atoms: C_4  and  N_26
REMARK    4  A    between atoms: C_6  and  C_10
REMARK    5  A    between atoms: N_11  and  N_12
REMARK    6  A    between atoms: C_13  and  C_15
REMARK    7  A    between atoms: C_15  and  C_16
REMARK                            x       y       z     vdW  Elec       q    Type
REMARK                         _______ _______ _______ _____ _____    ______ ____
ROOT
ATOM      1  N   UNL     1      -2.374   7.218  -1.598  0.00  0.00    -0.207 N 
ATOM      2  C   UNL     1      -2.376   5.891  -1.360  0.00  0.00    +0.237 C 
ATOM      3  O   UNL     1      -2.293   5.109  -2.284  0.00  0.00    -0.274 OA
ATOM      4  H   UNL     1      -2.441   7.843  -0.860  0.00  0.00    +0.177 HD
ENDROOT
BRANCH   1   6
ATOM      5  C   UNL     1      -2.276   8.971  -3.142  0.00  0.00    +0.138 C 
ATOM      6  N   UNL     1      -2.277   7.693  -2.912  0.00  0.00    -0.188 NA
BRANCH   5  10
ATOM      7  C   UNL     1      -1.982  10.413  -7.124  0.00  0.00    +0.163 A 
ATOM      8  C   UNL     1      -2.077  11.310  -6.068  0.00  0.00    +0.169 A 
ATOM      9  C   UNL     1      -2.178  10.847  -4.774  0.00  0.00    +0.046 A 
ATOM     10  C   UNL     1      -2.174   9.471  -4.524  0.00  0.00    -0.002 A 
ATOM     11  C   UNL     1      -2.078   8.572  -5.590  0.00  0.00    +0.027 A 
ATOM     12  C   UNL     1      -1.983   9.045  -6.881  0.00  0.00    +0.058 A 
ATOM     13  I   UNL     1      -1.839   7.699  -8.480  0.00  0.00    -0.040 I 
BRANCH   8  14
ATOM     14  N   UNL     1      -2.075  12.767  -6.333  0.00  0.00    +0.060 N 
ATOM     15  O   UNL     1      -2.158  13.554  -5.407  0.00  0.00    -0.126 OA
ATOM     16  O   UNL     1      -1.991  13.177  -7.476  0.00  0.00    -0.126 OA
ENDBRANCH   8  14
BRANCH   7  18
ATOM     17  C   UNL     1      -3.113  11.078  -9.107  0.00  0.00    +0.277 C 
ATOM     18  O   UNL     1      -1.888  10.875  -8.398  0.00  0.00    -0.492 OA
ENDBRANCH   7  18
ENDBRANCH   5  10
ENDBRANCH   1   6
BRANCH   2  19
ATOM     19  C   UNL     1      -2.480   5.380   0.054  0.00  0.00    +0.133 C 
BRANCH  19  20
ATOM     20  C   UNL     1      -2.460   3.873   0.045  0.00  0.00    -0.031 A 
ATOM     21  C   UNL     1      -3.628   3.173   0.036  0.00  0.00    +0.005 A 
ATOM     22  C   UNL     1      -3.629   1.779   0.029  0.00  0.00    +0.001 A 
ATOM     23  C   UNL     1      -2.462   1.078   0.019  0.00  0.00    +0.008 A 
ATOM     24  C   UNL     1      -1.237   1.766   0.018  0.00  0.00    -0.018 A 
ATOM     25  C   UNL     1      -1.236   3.183   0.031  0.00  0.00    -0.014 A 
ATOM     26  C   UNL     1      -0.011   3.871   0.023  0.00  0.00    +0.009 A 
ATOM     27  C   UNL     1       1.155   3.170   0.008  0.00  0.00    +0.001 A 
ATOM     28  C   UNL     1       1.155   1.776   0.001  0.00  0.00    +0.001 A 
ATOM     29  C   UNL     1      -0.013   1.076   0.008  0.00  0.00    +0.008 A 
ENDBRANCH  19  20
ENDBRANCH   2  19
TORSDOF 6
