REMARK  Name = ZINC58626674
REMARK  5 active torsions:
REMARK  status: ('A' for Active; 'I' for Inactive)
REMARK    1  A    between atoms: C_1  and  C_2
REMARK    2  A    between atoms: C_9  and  C_19
REMARK    3  A    between atoms: C_12  and  C_13
REMARK    4  A    between atoms: N_21  and  C_22
REMARK    5  A    between atoms: C_27  and  C_28
REMARK                            x       y       z     vdW  Elec       q    Type
REMARK                         _______ _______ _______ _____ _____    ______ ____
ROOT
ATOM      1  C   UNL     1       1.653   2.554   0.808  0.00  0.00    +0.051 C 
ATOM      2  C   UNL     1       1.688   1.066   0.570  0.00  0.00    +0.040 A 
ATOM      3  C   UNL     1       1.580   0.552  -0.744  0.00  0.00    +0.196 A 
ATOM      4  O   UNL     1       1.457   1.291  -1.707  0.00  0.00    -0.287 OA
ATOM      5  C   UNL     1       1.623  -0.915  -0.903  0.00  0.00    +0.065 A 
ATOM      6  C   UNL     1       1.524  -1.511  -2.160  0.00  0.00    +0.015 A 
ATOM      7  C   UNL     1       1.568  -2.885  -2.276  0.00  0.00    +0.002 A 
ATOM      8  C   UNL     1       1.709  -3.680  -1.153  0.00  0.00    +0.017 A 
ATOM      9  C   UNL     1       1.810  -3.104   0.113  0.00  0.00    +0.080 A 
ATOM     10  C   UNL     1       1.767  -1.708   0.245  0.00  0.00    +0.151 A 
ATOM     11  O   UNL     1       1.862  -1.124   1.455  0.00  0.00    -0.454 OA
ATOM     12  C   UNL     1       1.830   0.208   1.615  0.00  0.00    +0.142 A 
ENDROOT
BRANCH  12  13
ATOM     13  C   UNL     1       1.948   0.763   2.978  0.00  0.00    +0.018 A 
ATOM     14  C   UNL     1       1.140   0.274   4.007  0.00  0.00    +0.011 A 
ATOM     15  C   UNL     1       1.256   0.796   5.278  0.00  0.00    +0.001 A 
ATOM     16  C   UNL     1       2.170   1.803   5.535  0.00  0.00    +0.000 A 
ATOM     17  C   UNL     1       2.973   2.293   4.521  0.00  0.00    +0.001 A 
ATOM     18  C   UNL     1       2.873   1.775   3.246  0.00  0.00    +0.011 A 
ENDBRANCH  12  13
BRANCH   9  19
ATOM     19  C   UNL     1       1.960  -3.958   1.307  0.00  0.00    +0.252 C 
ATOM     20  O   UNL     1       2.047  -3.452   2.409  0.00  0.00    -0.270 OA
ATOM     21  N   UNL     1       2.000  -5.298   1.176  0.00  0.00    -0.281 N 
ATOM     22  H   UNL     1       2.009  -5.699   0.293  0.00  0.00    +0.155 HD
BRANCH  21  23
ATOM     23  C   UNL     1       2.029  -6.108   2.308  0.00  0.00    +0.046 A 
ATOM     24  C   UNL     1       1.595  -5.613   3.531  0.00  0.00    +0.024 A 
ATOM     25  C   UNL     1       1.624  -6.417   4.652  0.00  0.00    +0.002 A 
ATOM     26  C   UNL     1       2.084  -7.721   4.568  0.00  0.00    +0.001 A 
ATOM     27  C   UNL     1       2.517  -8.230   3.363  0.00  0.00    +0.015 A 
ATOM     28  C   UNL     1       2.489  -7.430   2.218  0.00  0.00    +0.058 A 
BRANCH  28  29
ATOM     29  C   UNL     1       2.947  -7.970   0.924  0.00  0.00    +0.249 C 
ATOM     30  O   UNL     1       3.696  -7.317   0.223  0.00  0.00    -0.270 OA
ATOM     31  N   UNL     1       2.534  -9.187   0.517  0.00  0.00    -0.293 N 
ATOM     32  C   UNL     1       1.531  -9.941   1.285  0.00  0.00    +0.136 C 
ATOM     33  C   UNL     1       0.429 -10.399   0.323  0.00  0.00    +0.179 C 
ATOM     34  O   UNL     1       1.025 -11.080  -0.785  0.00  0.00    -0.377 OA
ATOM     35  C   UNL     1       1.896 -10.264  -1.573  0.00  0.00    +0.179 C 
ATOM     36  C   UNL     1       3.068  -9.797  -0.710  0.00  0.00    +0.136 C 
ENDBRANCH  28  29
ENDBRANCH  21  23
ENDBRANCH   9  19
TORSDOF 4
