REMARK  Name = ZINC00755784
REMARK  4 active torsions:
REMARK  status: ('A' for Active; 'I' for Inactive)
REMARK    1  A    between atoms: C_1  and  C_2
REMARK    2  A    between atoms: C_9  and  C_17
REMARK    3  A    between atoms: C_11  and  C_15
REMARK    4  A    between atoms: C_12  and  N_14
REMARK                            x       y       z     vdW  Elec       q    Type
REMARK                         _______ _______ _______ _____ _____    ______ ____
ROOT
ATOM      1  C   UNL     1      -2.212   8.080  -4.721  0.00  0.00    +0.086 C 
ATOM      2  C   UNL     1      -2.247   7.255  -3.460  0.00  0.00    +0.110 A 
ATOM      3  C   UNL     1      -1.855   7.820  -2.304  0.00  0.00    +0.088 A 
ATOM      4  C   UNL     1      -1.883   7.059  -1.113  0.00  0.00    +0.144 A 
ATOM      5  C   UNL     1      -2.316   5.751  -1.184  0.00  0.00    +0.092 A 
ATOM      6  C   UNL     1      -2.708   5.234  -2.423  0.00  0.00    +0.345 A 
ATOM      7  O   UNL     1      -3.093   4.079  -2.498  0.00  0.00    -0.245 OA
ATOM      8  O   UNL     1      -2.668   5.989  -3.530  0.00  0.00    -0.427 OA
ATOM      9  C   UNL     1      -2.366   4.891   0.049  0.00  0.00    +0.112 C 
ATOM     10  C   UNL     1      -2.284   5.749   1.281  0.00  0.00    +0.099 C 
ATOM     11  C   UNL     1      -1.862   7.034   1.217  0.00  0.00    +0.199 C 
ATOM     12  O   UNL     1      -1.495   7.606   0.056  0.00  0.00    -0.441 OA
ENDROOT
BRANCH   9  13
ATOM     13  C   UNL     1      -1.207   3.928   0.034  0.00  0.00    +0.004 A 
ATOM     14  C   UNL     1      -1.224   2.572   0.022  0.00  0.00    +0.027 A 
ATOM     15  C   UNL     1      -0.024   1.887   0.012  0.00  0.00    +0.025 A 
ATOM     16  C   UNL     1       1.135   2.591   0.005  0.00  0.00    +0.060 A 
ATOM     17  S   UNL     1       0.544   4.275   0.019  0.00  0.00    -0.100 S 
ATOM     18 BR   UNL     1       0.002  -0.004   0.002  0.00  0.00    -0.050 Br
ENDBRANCH   9  13
BRANCH  11  19
ATOM     19  N   UNL     1      -1.805   7.774   2.371  0.00  0.00    -0.328 N 
ATOM     20  H   UNL     1      -2.065   7.376   3.216  0.00  0.00    +0.145 HD
ATOM     21  H   UNL     1      -1.504   8.696   2.342  0.00  0.00    +0.145 HD
ENDBRANCH  11  19
BRANCH  10  22
ATOM     22  C   UNL     1      -2.661   5.197   2.547  0.00  0.00    +0.101 C 
ATOM     23  N   UNL     1      -2.960   4.758   3.552  0.00  0.00    -0.191 NA
ENDBRANCH  10  22
TORSDOF 3
