REMARK  Name = ZINC09575459
REMARK  8 active torsions:
REMARK  status: ('A' for Active; 'I' for Inactive)
REMARK    1  A    between atoms: C_1  and  C_2
REMARK    2  A    between atoms: C_5  and  O_31
REMARK    3  A    between atoms: C_6  and  N_8
REMARK    4  A    between atoms: C_9  and  C_11
REMARK    5  A    between atoms: C_11  and  C_13
REMARK    6  A    between atoms: C_11  and  S_19
REMARK    7  A    between atoms: S_19  and  C_20
REMARK    8  A    between atoms: O_31  and  C_32
REMARK                            x       y       z     vdW  Elec       q    Type
REMARK                         _______ _______ _______ _____ _____    ______ ____
ROOT
ATOM      1  C   UNL     1       4.866   1.344  -0.251  0.00  0.00    +0.167 C 
ENDROOT
BRANCH   1   2
ATOM      2  C   UNL     1       5.317   0.879   1.110  0.00  0.00    -0.025 A 
ATOM      3  C   UNL     1       5.555   1.801   2.112  0.00  0.00    +0.005 A 
ATOM      4  C   UNL     1       5.964   1.374   3.361  0.00  0.00    +0.000 A 
ATOM      5  C   UNL     1       6.145   0.025   3.606  0.00  0.00    +0.000 A 
ATOM      6  C   UNL     1       5.912  -0.897   2.603  0.00  0.00    +0.000 A 
ATOM      7  C   UNL     1       5.498  -0.470   1.355  0.00  0.00    +0.005 A 
ENDBRANCH   1   2
BRANCH   1   9
ATOM      8  N   UNL     1       2.404   1.390  -0.013  0.00  0.00    -0.281 N 
ATOM      9  C   UNL     1       3.557   2.079  -0.121  0.00  0.00    +0.235 C 
ATOM     10  O   UNL     1       3.541   3.292  -0.116  0.00  0.00    -0.274 OA
ATOM     11  H   UNL     1       2.422   0.422   0.048  0.00  0.00    +0.155 HD
BRANCH   8  17
ATOM     12  C   UNL     1      -0.219   5.332   1.313  0.00  0.00    +0.044 C 
ATOM     13  C   UNL     1      -0.121   3.983   0.649  0.00  0.00    -0.048 A 
ATOM     14  C   UNL     1      -1.240   3.418   0.066  0.00  0.00    +0.007 A 
ATOM     15  C   UNL     1      -1.155   2.183  -0.549  0.00  0.00    +0.048 A 
ATOM     16  C   UNL     1       0.052   1.502  -0.574  0.00  0.00    +0.141 A 
ATOM     17  C   UNL     1       1.180   2.071   0.013  0.00  0.00    +0.076 A 
ATOM     18  C   UNL     1       1.088   3.313   0.624  0.00  0.00    +0.030 A 
BRANCH  16  19
ATOM     19  O   UNL     1       0.136   0.285  -1.175  0.00  0.00    -0.493 OA
ATOM     20  C   UNL     1      -1.061  -0.235  -1.756  0.00  0.00    +0.277 C 
ENDBRANCH  16  19
ENDBRANCH   8  17
ENDBRANCH   1   9
BRANCH   1  21
ATOM     21  S   UNL     1       6.116   2.453  -0.955  0.00  0.00    -0.108 S 
BRANCH  21  22
ATOM     22  C   UNL     1       7.526   1.420  -1.179  0.00  0.00    +0.013 A 
ATOM     23  C   UNL     1       7.466   0.078  -0.823  0.00  0.00    +0.018 A 
ATOM     24  C   UNL     1       8.570  -0.736  -0.997  0.00  0.00    +0.050 A 
ATOM     25  C   UNL     1       9.736  -0.210  -1.528  0.00  0.00    +0.162 A 
ATOM     26  C   UNL     1       9.799   1.129  -1.884  0.00  0.00    +0.163 A 
ATOM     27  C   UNL     1       8.694   1.946  -1.716  0.00  0.00    +0.064 A 
ATOM     28  O   UNL     1      10.954   1.635  -2.407  0.00  0.00    -0.488 OA
ATOM     29  C   UNL     1      12.064   1.713  -1.510  0.00  0.00    +0.232 C 
ATOM     30  C   UNL     1      12.804   0.386  -1.450  0.00  0.00    +0.082 C 
ATOM     31  C   UNL     1      11.951  -0.727  -0.862  0.00  0.00    +0.232 C 
ATOM     32  O   UNL     1      10.831  -1.007  -1.705  0.00  0.00    -0.488 OA
ENDBRANCH  21  22
ENDBRANCH   1  21
TORSDOF 6
