REMARK  Name = ZINC18198842
REMARK  5 active torsions:
REMARK  status: ('A' for Active; 'I' for Inactive)
REMARK    1  A    between atoms: C_1  and  C_2
REMARK    2  A    between atoms: N_5  and  C_7
REMARK    3  A    between atoms: C_12  and  C_13
REMARK    4  A    between atoms: C_18  and  C_20
REMARK    5  A    between atoms: C_29  and  C_32
REMARK                            x       y       z     vdW  Elec       q    Type
REMARK                         _______ _______ _______ _____ _____    ______ ____
ROOT
ATOM      1  C   UNL     1       9.174  -2.423  -1.079  0.00  0.00    +0.068 C 
ATOM      2  C   UNL     1       8.346  -1.495  -1.930  0.00  0.00    +0.066 A 
ATOM      3  C   UNL     1       7.724  -0.332  -1.496  0.00  0.00    +0.027 A 
ATOM      4  C   UNL     1       7.072   0.221  -2.566  0.00  0.00    +0.131 A 
ATOM      5  N   UNL     1       7.289  -0.576  -3.634  0.00  0.00    -0.217 N 
ATOM      6  N   UNL     1       8.091  -1.647  -3.209  0.00  0.00    -0.170 NA
ATOM      7  N   UNL     1       6.348   1.400  -2.443  0.00  0.00    -0.302 N 
ATOM      8  C   UNL     1       6.036   1.849  -1.184  0.00  0.00    +0.017 C 
ATOM      9  C   UNL     1       6.629   1.358  -0.074  0.00  0.00    +0.024 C 
ATOM     10  C   UNL     1       7.705   0.295  -0.131  0.00  0.00    +0.089 C 
ATOM     11  C   UNL     1       6.267   1.824   1.202  0.00  0.00    +0.162 C 
ATOM     12  O   UNL     1       6.825   1.368   2.181  0.00  0.00    -0.292 OA
ATOM     13  C   UNL     1       5.207   2.874   1.385  0.00  0.00    +0.088 C 
ATOM     14  C   UNL     1       4.213   2.785   0.223  0.00  0.00    +0.039 C 
ATOM     15  C   UNL     1       4.990   2.935  -1.086  0.00  0.00    +0.060 C 
ATOM     16  H   UNL     1       6.069   1.894  -3.229  0.00  0.00    +0.153 HD
ENDROOT
BRANCH   5  17
ATOM     17  C   UNL     1       6.803  -0.372  -4.927  0.00  0.00    +0.082 A 
ATOM     18  C   UNL     1       5.510  -0.752  -5.254  0.00  0.00    +0.029 A 
ATOM     19  C   UNL     1       5.029  -0.545  -6.532  0.00  0.00    +0.002 A 
ATOM     20  C   UNL     1       5.835   0.033  -7.499  0.00  0.00    +0.001 A 
ATOM     21  C   UNL     1       7.125   0.412  -7.194  0.00  0.00    +0.017 A 
ATOM     22  C   UNL     1       7.623   0.214  -5.904  0.00  0.00    +0.089 A 
BRANCH  22  23
ATOM     23  C   UNL     1       9.002   0.616  -5.571  0.00  0.00    +0.389 C 
ATOM     24  O   UNL     1       9.399   0.532  -4.426  0.00  0.00    -0.241 OA
ATOM     25  O   UNL     1       9.821   1.078  -6.536  0.00  0.00    -0.241 OA
ENDBRANCH  22  23
ENDBRANCH   5  17
BRANCH  10  26
ATOM     26  C   UNL     1       9.046   0.924   0.151  0.00  0.00    -0.035 A 
ATOM     27  C   UNL     1       9.527   1.924  -0.673  0.00  0.00    +0.004 A 
ATOM     28  C   UNL     1      10.754   2.504  -0.412  0.00  0.00    +0.000 A 
ATOM     29  C   UNL     1      11.505   2.076   0.667  0.00  0.00    +0.000 A 
ATOM     30  C   UNL     1      11.027   1.072   1.488  0.00  0.00    +0.000 A 
ATOM     31  C   UNL     1       9.797   0.496   1.229  0.00  0.00    +0.004 A 
ENDBRANCH  10  26
BRANCH  14  32
ATOM     32  C   UNL     1       3.195   3.890   0.339  0.00  0.00    -0.006 A 
ATOM     33  C   UNL     1       1.848   3.800   0.465  0.00  0.00    +0.011 A 
ATOM     34  C   UNL     1       1.104   4.961   0.551  0.00  0.00    +0.008 A 
ATOM     35  C   UNL     1       1.744   6.156   0.518  0.00  0.00    +0.045 A 
ATOM     36  S   UNL     1       3.449   5.657   0.347  0.00  0.00    -0.101 S 
ENDBRANCH  14  32
TORSDOF 4
