REMARK  Name = ZINC03325224
REMARK  6 active torsions:
REMARK  status: ('A' for Active; 'I' for Inactive)
REMARK    1  A    between atoms: C_6  and  C_7
REMARK    2  A    between atoms: N_12  and  C_13
REMARK    3  A    between atoms: C_13  and  C_14
REMARK    4  A    between atoms: C_20  and  C_22
REMARK    5  A    between atoms: C_22  and  S_23
REMARK    6  A    between atoms: S_23  and  C_24
REMARK                            x       y       z     vdW  Elec       q    Type
REMARK                         _______ _______ _______ _____ _____    ______ ____
ROOT
ATOM      1  C   UNL     1       5.247  -4.000  -1.352  0.00  0.00    +0.080 A 
ATOM      2  C   UNL     1       4.258  -4.437  -2.189  0.00  0.00    +0.076 A 
ATOM      3  S   UNL     1       2.839  -3.606  -1.488  0.00  0.00    -0.060 S 
ATOM      4  C   UNL     1       3.701  -2.770  -0.164  0.00  0.00    +0.168 A 
ATOM      5  N   UNL     1       4.942  -3.173  -0.363  0.00  0.00    -0.224 NA
ATOM      6  N   UNL     1       3.199  -1.918   0.812  0.00  0.00    -0.247 N 
ATOM      7  C   UNL     1       4.027  -1.385   1.732  0.00  0.00    +0.232 C 
ATOM      8  O   UNL     1       5.210  -1.649   1.708  0.00  0.00    -0.274 OA
ENDROOT
BRANCH   1  14
ATOM      9  C   UNL     1       7.635  -4.075  -0.640  0.00  0.00    +0.011 A 
ATOM     10  C   UNL     1       8.936  -4.495  -0.828  0.00  0.00    +0.016 A 
ATOM     11  C   UNL     1       9.264  -5.270  -1.927  0.00  0.00    +0.018 A 
ATOM     12  C   UNL     1       8.288  -5.634  -2.839  0.00  0.00    +0.016 A 
ATOM     13  C   UNL     1       6.983  -5.225  -2.657  0.00  0.00    +0.011 A 
ATOM     14  C   UNL     1       6.648  -4.443  -1.552  0.00  0.00    +0.001 A 
ATOM     15 BR   UNL     1      11.050  -5.835  -2.182  0.00  0.00    -0.050 Br
ENDBRANCH   1  14
BRANCH   6  16
ATOM     16  C   UNL     1       1.769  -1.600   0.841  0.00  0.00    +0.147 C 
BRANCH  16  17
ATOM     17  C   UNL     1       1.506  -0.359  -0.014  0.00  0.00    +0.136 C 
ATOM     18  C   UNL     1       0.002  -0.004   0.002  0.00  0.00    +0.035 C 
ATOM     19  C   UNL     1      -0.019   1.541   0.011  0.00  0.00    +0.031 C 
ATOM     20  C   UNL     1       1.474   1.937  -0.002  0.00  0.00    +0.160 C 
ATOM     21  O   UNL     1       2.163   0.795   0.553  0.00  0.00    -0.375 OA
ENDBRANCH  16  17
ENDBRANCH   6  16
BRANCH   7  22
ATOM     22  C   UNL     1       3.482  -0.461   2.791  0.00  0.00    +0.173 C 
BRANCH  22  23
ATOM     23  S   UNL     1       4.834   0.086   3.869  0.00  0.00    -0.075 S 
BRANCH  23  24
ATOM     24  C   UNL     1       4.046   1.144   5.037  0.00  0.00    +0.210 A 
ATOM     25  N   UNL     1       4.656   1.786   6.040  0.00  0.00    -0.188 NA
ATOM     26  C   UNL     1       3.773   2.489   6.718  0.00  0.00    +0.209 A 
ATOM     27  N   UNL     1       2.565   2.302   6.146  0.00  0.00    -0.246 N 
ATOM     28  H   UNL     1       1.677   2.801   6.562  0.00  0.00    +0.192 HD
ATOM     29  N   UNL     1       2.768   1.435   5.061  0.00  0.00    -0.144 NA
ATOM     30  N   UNL     1       4.037   3.279   7.821  0.00  0.00    -0.328 N 
ATOM     31  H   UNL     1       3.220   3.827   8.314  0.00  0.00    +0.145 HD
ATOM     32  H   UNL     1       5.064   3.361   8.206  0.00  0.00    +0.145 HD
ENDBRANCH  23  24
ENDBRANCH  22  23
ENDBRANCH   7  22
TORSDOF 6
