REMARK  Name = ZINC27550182
REMARK  7 active torsions:
REMARK  status: ('A' for Active; 'I' for Inactive)
REMARK    1  A    between atoms: C_1  and  C_2
REMARK    2  A    between atoms: C_2  and  C_4
REMARK    3  A    between atoms: C_2  and  N_14
REMARK    4  A    between atoms: N_14  and  C_15
REMARK    5  A    between atoms: N_20  and  C_23
REMARK    6  A    between atoms: C_26  and  N_29
REMARK    7  A    between atoms: N_30  and  C_31
REMARK                            x       y       z     vdW  Elec       q    Type
REMARK                         _______ _______ _______ _____ _____    ______ ____
ROOT
ATOM      1  C   UNL     1      -2.834  -4.274   2.841  0.00  0.00    +0.026 C 
ATOM      2  C   UNL     1      -2.123  -4.723   1.548  0.00  0.00    +0.090 C 
ATOM      3  C   UNL     1      -3.218  -4.668   0.504  0.00  0.00    +0.225 C 
ATOM      4  O   UNL     1      -3.085  -4.947  -0.668  0.00  0.00    -0.275 OA
ATOM      5  N   UNL     1      -4.356  -4.263   1.081  0.00  0.00    -0.212 N 
ATOM      6  C   UNL     1      -4.256  -4.010   2.395  0.00  0.00    +0.213 C 
ATOM      7  O   UNL     1      -5.158  -3.633   3.112  0.00  0.00    -0.277 OA
ENDROOT
BRANCH   5   8
ATOM      8  C   UNL     1      -5.553  -4.113   0.371  0.00  0.00    +0.044 A 
ATOM      9  C   UNL     1      -6.729  -3.817   1.051  0.00  0.00    +0.026 A 
ATOM     10  C   UNL     1      -7.909  -3.669   0.357  0.00  0.00    +0.031 A 
ATOM     11  C   UNL     1      -7.923  -3.815  -1.034  0.00  0.00    +0.086 A 
ATOM     12  C   UNL     1      -6.737  -4.112  -1.714  0.00  0.00    +0.031 A 
ATOM     13  C   UNL     1      -5.561  -4.254  -1.012  0.00  0.00    +0.026 A 
BRANCH  11  14
ATOM     14  N   UNL     1      -9.091  -3.670  -1.726  0.00  0.00    -0.149 NA
ATOM     15  N   UNL     1     -10.045  -2.953  -1.238  0.00  0.00    -0.149 NA
BRANCH  15  16
ATOM     16  C   UNL     1      -9.756  -1.894  -0.422  0.00  0.00    +0.086 A 
ATOM     17  C   UNL     1     -10.701  -1.440   0.501  0.00  0.00    +0.029 A 
ATOM     18  C   UNL     1     -10.402  -0.372   1.321  0.00  0.00    +0.002 A 
ATOM     19  C   UNL     1      -9.170   0.250   1.230  0.00  0.00    +0.000 A 
ATOM     20  C   UNL     1      -8.229  -0.193   0.317  0.00  0.00    +0.002 A 
ATOM     21  C   UNL     1      -8.511  -1.264  -0.504  0.00  0.00    +0.029 A 
ENDBRANCH  15  16
ENDBRANCH  11  14
ENDBRANCH   5   8
BRANCH   1  22
ATOM     22  N   UNL     1      -2.798  -5.343   3.848  0.00  0.00    +0.389 N 
ATOM     23  H   UNL     1      -3.099  -6.210   3.429  0.00  0.00    -0.084 HD
ATOM     24  H   UNL     1      -3.413  -5.106   4.612  0.00  0.00    -0.084 HD
BRANCH  22  26
ATOM     25  C   UNL     1      -1.026  -4.234   5.125  0.00  0.00    -0.013 C 
ATOM     26  C   UNL     1      -1.427  -5.494   4.353  0.00  0.00    -0.068 C 
BRANCH  26  27
ATOM     27  C   UNL     1      -1.356  -6.706   5.284  0.00  0.00    -0.041 C 
ATOM     28  C   UNL     1      -1.756  -7.965   4.513  0.00  0.00    +0.009 C 
ATOM     29  C   UNL     1      -1.686  -9.177   5.443  0.00  0.00    -0.010 C 
ATOM     30  C   UNL     1      -0.258  -9.334   5.970  0.00  0.00    +0.007 C 
ATOM     31  C   UNL     1       0.142  -8.075   6.741  0.00  0.00    -0.010 C 
ATOM     32  C   UNL     1       0.072  -6.862   5.810  0.00  0.00    +0.009 C 
ATOM     33  C   UNL     1      -0.815  -7.871   7.917  0.00  0.00    +0.007 C 
ATOM     34  C   UNL     1      -2.243  -7.714   7.391  0.00  0.00    -0.010 C 
ATOM     35  C   UNL     1      -2.643  -8.974   6.619  0.00  0.00    +0.007 C 
ATOM     36  C   UNL     1      -2.313  -6.502   6.460  0.00  0.00    +0.009 C 
ENDBRANCH  26  27
ENDBRANCH  22  26
ENDBRANCH   1  22
TORSDOF 6
