REMARK  Name = ZINC25028460
REMARK  6 active torsions:
REMARK  status: ('A' for Active; 'I' for Inactive)
REMARK    1  A    between atoms: C_1  and  C_2
REMARK    2  A    between atoms: C_2  and  C_28
REMARK    3  A    between atoms: N_5  and  C_9
REMARK    4  A    between atoms: C_9  and  C_10
REMARK    5  A    between atoms: N_12  and  C_13
REMARK    6  A    between atoms: C_13  and  C_18
REMARK                            x       y       z     vdW  Elec       q    Type
REMARK                         _______ _______ _______ _____ _____    ______ ____
ROOT
ATOM      1  C   UNL     1      -2.383  -4.359   0.550  0.00  0.00    +0.213 C 
ENDROOT
BRANCH   1   6
ATOM      2  C   UNL     1      -0.020  -7.729  -1.713  0.00  0.00    +0.047 C 
ATOM      3  C   UNL     1      -0.052  -6.200  -1.679  0.00  0.00    +0.135 C 
ATOM      4  C   UNL     1      -1.437  -5.707  -1.312  0.00  0.00    +0.251 C 
ATOM      5  O   UNL     1      -2.467  -5.894  -1.924  0.00  0.00    -0.272 OA
ATOM      6  N   UNL     1      -1.286  -5.017  -0.165  0.00  0.00    -0.215 N 
ATOM      7  C   UNL     1      -0.012  -5.011   0.244  0.00  0.00    +0.310 C 
ATOM      8  O   UNL     1       0.370  -4.456   1.255  0.00  0.00    -0.252 OA
ATOM      9  N   UNL     1       0.798  -5.688  -0.590  0.00  0.00    -0.281 N 
ATOM     10  H   UNL     1       1.877  -5.898  -0.589  0.00  0.00    +0.152 HD
BRANCH   3  11
ATOM     11  C   UNL     1       0.387  -5.633  -3.005  0.00  0.00    -0.015 A 
ATOM     12  C   UNL     1      -0.541  -5.420  -4.007  0.00  0.00    +0.006 A 
ATOM     13  C   UNL     1      -0.138  -4.895  -5.219  0.00  0.00    +0.004 A 
ATOM     14  C   UNL     1       1.195  -4.591  -5.439  0.00  0.00    -0.044 A 
ATOM     15  C   UNL     1       2.124  -4.810  -4.439  0.00  0.00    -0.044 A 
ATOM     16  C   UNL     1       1.717  -5.332  -3.222  0.00  0.00    +0.010 A 
ATOM     17  C   UNL     1       3.500  -4.402  -4.920  0.00  0.00    +0.036 C 
ATOM     18  C   UNL     1       3.248  -3.508  -6.153  0.00  0.00    +0.009 C 
ATOM     19  C   UNL     1       1.883  -4.021  -6.660  0.00  0.00    +0.036 C 
ENDBRANCH   3  11
ENDBRANCH   1   6
BRANCH   1  20
ATOM     20  C   UNL     1      -2.527  -2.943   0.055  0.00  0.00    +0.232 C 
ATOM     21  O   UNL     1      -1.787  -2.525  -0.810  0.00  0.00    -0.274 OA
ATOM     22  N   UNL     1      -3.479  -2.142   0.574  0.00  0.00    -0.304 N 
ATOM     23  H   UNL     1      -4.094  -2.492   1.415  0.00  0.00    +0.150 HD
BRANCH  22  24
ATOM     24  C   UNL     1      -3.694  -0.804   0.016  0.00  0.00    +0.060 C 
ATOM     25  C   UNL     1      -4.003  -0.904  -1.492  0.00  0.00    +0.030 C 
ATOM     26  C   UNL     1      -5.551  -0.885  -1.563  0.00  0.00    +0.002 C 
ATOM     27  C   UNL     1      -5.933   0.128  -0.455  0.00  0.00    +0.002 C 
ATOM     28  C   UNL     1      -4.920  -0.149   0.675  0.00  0.00    +0.030 C 
BRANCH  24  29
ATOM     29  C   UNL     1      -2.471   0.049   0.237  0.00  0.00    -0.020 A 
ATOM     30  C   UNL     1      -1.528  -0.326   1.175  0.00  0.00    +0.009 A 
ATOM     31  C   UNL     1      -0.408   0.456   1.384  0.00  0.00    +0.050 A 
ATOM     32  C   UNL     1      -0.224   1.617   0.647  0.00  0.00    +0.162 A 
ATOM     33  C   UNL     1      -1.171   1.993  -0.298  0.00  0.00    +0.162 A 
ATOM     34  C   UNL     1      -2.295   1.206  -0.499  0.00  0.00    +0.055 A 
ATOM     35  O   UNL     1      -1.010   3.127  -1.032  0.00  0.00    -0.485 OA
ATOM     36  C   UNL     1      -0.065   4.084  -0.540  0.00  0.00    +0.270 C 
ATOM     37  C   UNL     1       1.216   3.334  -0.148  0.00  0.00    +0.270 C 
ATOM     38  O   UNL     1       0.883   2.378   0.864  0.00  0.00    -0.485 OA
ENDBRANCH  24  29
ENDBRANCH  22  24
ENDBRANCH   1  20
TORSDOF 5
