REMARK  Name = ZINC34896777
REMARK  17 active torsions:
REMARK  status: ('A' for Active; 'I' for Inactive)
REMARK    1  A    between atoms: C_1  and  C_2
REMARK    2  A    between atoms: C_2  and  C_4
REMARK    3  A    between atoms: C_2  and  N_19
REMARK    4  A    between atoms: N_14  and  C_15
REMARK    5  A    between atoms: C_15  and  C_16
REMARK    6  A    between atoms: C_16  and  O_17
REMARK    7  A    between atoms: O_17  and  C_18
REMARK    8  A    between atoms: N_19  and  C_20
REMARK    9  A    between atoms: C_20  and  C_21
REMARK   10  A    between atoms: C_21  and  C_22
REMARK   11  A    between atoms: C_22  and  C_23
REMARK   12  A    between atoms: C_23  and  C_24
REMARK   13  A    between atoms: C_24  and  C_25
REMARK   14  A    between atoms: C_25  and  N_26
REMARK   15  A    between atoms: C_27  and  C_29
REMARK   16  A    between atoms: C_29  and  O_30
REMARK   17  A    between atoms: O_30  and  C_31
REMARK                            x       y       z     vdW  Elec       q    Type
REMARK                         _______ _______ _______ _____ _____    ______ ____
ROOT
ATOM      1  N   UNL     1       0.018  -0.143  -0.978  0.00  0.00    -0.289 N 
ATOM      2  C   UNL     1       1.227   0.347  -1.315  0.00  0.00    +0.254 C 
ATOM      3  O   UNL     1       1.578   0.351  -2.476  0.00  0.00    -0.272 OA
ENDROOT
BRANCH   1   5
ATOM      4  C   UNL     1      -0.673   1.406   0.784  0.00  0.00    +0.036 C 
ATOM      5  C   UNL     1      -0.446  -0.060   0.409  0.00  0.00    +0.139 C 
BRANCH   5   6
ATOM      6  C   UNL     1       0.594  -0.657   1.323  0.00  0.00    +0.133 A 
ATOM      7  N   UNL     1       1.239   0.136   2.123  0.00  0.00    -0.232 NA
ATOM      8  C   UNL     1       2.188  -0.329   2.973  0.00  0.00    +0.078 A 
ATOM      9  C   UNL     1       2.883   0.523   3.834  0.00  0.00    +0.028 A 
ATOM     10  C   UNL     1       3.838   0.007   4.681  0.00  0.00    +0.002 A 
ATOM     11  C   UNL     1       4.120  -1.353   4.690  0.00  0.00    +0.001 A 
ATOM     12  C   UNL     1       3.448  -2.214   3.850  0.00  0.00    +0.015 A 
ATOM     13  C   UNL     1       2.478  -1.712   2.986  0.00  0.00    +0.065 A 
ATOM     14  C   UNL     1       1.729  -2.582   2.068  0.00  0.00    +0.262 A 
ATOM     15  O   UNL     1       1.930  -3.782   2.029  0.00  0.00    -0.267 OA
ATOM     16  N   UNL     1       0.803  -1.998   1.272  0.00  0.00    -0.292 N 
BRANCH  16  17
ATOM     17  C   UNL     1       0.023  -2.820   0.342  0.00  0.00    +0.154 C 
BRANCH  17  18
ATOM     18  C   UNL     1       0.821  -3.030  -0.946  0.00  0.00    +0.181 C 
BRANCH  18  19
ATOM     19  O   UNL     1       1.995  -3.793  -0.660  0.00  0.00    -0.381 OA
ATOM     20  C   UNL     1       2.816  -4.047  -1.802  0.00  0.00    +0.194 C 
ENDBRANCH  18  19
ENDBRANCH  17  18
ENDBRANCH  16  17
ENDBRANCH   5   6
ENDBRANCH   1   5
BRANCH   1  21
ATOM     21  C   UNL     1      -0.833  -0.760  -1.998  0.00  0.00    +0.108 C 
BRANCH  21  22
ATOM     22  C   UNL     1      -1.727   0.308  -2.631  0.00  0.00    +0.019 C 
BRANCH  22  23
ATOM     23  C   UNL     1      -2.616  -0.335  -3.697  0.00  0.00    +0.001 C 
BRANCH  23  24
ATOM     24  C   UNL     1      -3.510   0.733  -4.329  0.00  0.00    -0.002 C 
BRANCH  24  25
ATOM     25  C   UNL     1      -4.398   0.089  -5.395  0.00  0.00    -0.020 C 
BRANCH  25  26
ATOM     26  C   UNL     1      -5.292   1.158  -6.028  0.00  0.00    -0.086 C 
BRANCH  26  27
ATOM     27  N   UNL     1      -6.145   0.540  -7.051  0.00  0.00    +0.378 N 
ATOM     28  H   UNL     1      -5.566   0.121  -7.764  0.00  0.00    -0.090 HD
ATOM     29  H   UNL     1      -6.721  -0.171  -6.625  0.00  0.00    -0.090 HD
ATOM     30  H   UNL     1      -6.735   1.244  -7.468  0.00  0.00    -0.090 HD
ENDBRANCH  26  27
ENDBRANCH  25  26
ENDBRANCH  24  25
ENDBRANCH  23  24
ENDBRANCH  22  23
ENDBRANCH  21  22
ENDBRANCH   1  21
BRANCH   2  31
ATOM     31  C   UNL     1       2.143   0.890  -0.249  0.00  0.00    +0.324 C 
BRANCH  31  32
ATOM     32  O   UNL     1       3.340   1.383  -0.856  0.00  0.00    -0.483 OA
BRANCH  32  33
ATOM     33  C   UNL     1       4.279   1.912  -0.027  0.00  0.00    +0.121 A 
ATOM     34  C   UNL     1       4.056   1.950   1.341  0.00  0.00    +0.047 A 
ATOM     35  C   UNL     1       5.012   2.487   2.181  0.00  0.00    +0.023 A 
ATOM     36  C   UNL     1       6.191   2.988   1.659  0.00  0.00    +0.041 A 
ATOM     37  C   UNL     1       6.415   2.951   0.294  0.00  0.00    +0.023 A 
ATOM     38  C   UNL     1       5.465   2.409  -0.549  0.00  0.00    +0.047 A 
ATOM     39 CL   UNL     1       7.391   3.663   2.716  0.00  0.00    -0.084 Cl
ENDBRANCH  32  33
ENDBRANCH  31  32
ENDBRANCH   2  31
TORSDOF 15
