REMARK  Name = ZINC54201403
REMARK  6 active torsions:
REMARK  status: ('A' for Active; 'I' for Inactive)
REMARK    1  A    between atoms: C_1  and  O_2
REMARK    2  A    between atoms: O_2  and  C_3
REMARK    3  A    between atoms: C_6  and  C_9
REMARK    4  A    between atoms: C_12  and  C_15
REMARK    5  A    between atoms: C_20  and  O_21
REMARK    6  A    between atoms: C_27  and  C_28
REMARK                            x       y       z     vdW  Elec       q    Type
REMARK                         _______ _______ _______ _____ _____    ______ ____
ROOT
ATOM      1  C   UNL     1       5.078  -2.264  -3.423  0.00  0.00    +0.069 C 
ATOM      2  N   UNL     1       5.165  -1.694  -4.576  0.00  0.00    -0.182 NA
ATOM      3  N   UNL     1       5.574  -2.545  -5.601  0.00  0.00    -0.195 N 
ATOM      4  C   UNL     1       5.794  -3.889  -5.045  0.00  0.00    +0.139 C 
ATOM      5  C   UNL     1       5.466  -3.720  -3.548  0.00  0.00    +0.087 C 
ATOM      6  C   UNL     1       5.744  -2.188  -6.912  0.00  0.00    +0.174 C 
ATOM      7  N   UNL     1       6.123  -2.947  -7.929  0.00  0.00    -0.152 NA
ATOM      8  C   UNL     1       6.249  -2.480  -9.150  0.00  0.00    +0.276 C 
ATOM      9  O   UNL     1       6.598  -3.190 -10.079  0.00  0.00    -0.267 OA
ATOM     10  C   UNL     1       5.942  -1.042  -9.338  0.00  0.00    +0.079 C 
ATOM     11  C   UNL     1       5.980  -0.285 -10.463  0.00  0.00    +0.028 C 
ATOM     12  S   UNL     1       5.500  -0.587  -7.666  0.00  0.00    -0.050 S 
ENDROOT
BRANCH  11  13
ATOM     13  C   UNL     1       5.811   1.172 -10.375  0.00  0.00    -0.024 A 
ATOM     14  C   UNL     1       5.795   1.804  -9.126  0.00  0.00    +0.011 A 
ATOM     15  C   UNL     1       5.636   3.170  -9.050  0.00  0.00    +0.039 A 
ATOM     16  C   UNL     1       5.491   3.920 -10.208  0.00  0.00    +0.123 A 
ATOM     17  C   UNL     1       5.505   3.300 -11.449  0.00  0.00    +0.039 A 
ATOM     18  C   UNL     1       5.670   1.936 -11.540  0.00  0.00    +0.011 A 
ATOM     19  F   UNL     1       5.334   5.259 -10.126  0.00  0.00    -0.205 F 
ENDBRANCH  11  13
BRANCH   1  23
ATOM     20  C   UNL     1       3.901  -0.343   0.175  0.00  0.00    +0.120 A 
ATOM     21  C   UNL     1       3.950   0.379  -1.011  0.00  0.00    +0.046 A 
ATOM     22  C   UNL     1       4.332  -0.240  -2.181  0.00  0.00    +0.013 A 
ATOM     23  C   UNL     1       4.669  -1.597  -2.174  0.00  0.00    -0.002 A 
ATOM     24  C   UNL     1       4.618  -2.318  -0.978  0.00  0.00    +0.013 A 
ATOM     25  C   UNL     1       4.240  -1.689   0.188  0.00  0.00    +0.046 A 
BRANCH  20  27
ATOM     26  C   UNL     1       3.188   1.659   1.242  0.00  0.00    +0.277 C 
ATOM     27  O   UNL     1       3.524   0.272   1.326  0.00  0.00    -0.495 OA
ENDBRANCH  20  27
ENDBRANCH   1  23
BRANCH   4  28
ATOM     28  C   UNL     1       7.230  -4.310  -5.227  0.00  0.00    +0.017 A 
ATOM     29  C   UNL     1       8.217  -3.354  -5.374  0.00  0.00    +0.009 A 
ATOM     30  C   UNL     1       9.534  -3.739  -5.541  0.00  0.00    +0.001 A 
ATOM     31  C   UNL     1       9.867  -5.081  -5.561  0.00  0.00    +0.004 A 
ATOM     32  C   UNL     1       8.884  -6.040  -5.414  0.00  0.00    +0.046 A 
ATOM     33  C   UNL     1       7.562  -5.656  -5.240  0.00  0.00    +0.122 A 
BRANCH  33  34
ATOM     34  O   UNL     1       6.594  -6.598  -5.090  0.00  0.00    -0.506 OA
ATOM     35  H   UNL     1       6.197  -6.890  -5.922  0.00  0.00    +0.292 HD
ENDBRANCH  33  34
ENDBRANCH   4  28
TORSDOF 5
