REMARK  Name = ZINC63138471
REMARK  6 active torsions:
REMARK  status: ('A' for Active; 'I' for Inactive)
REMARK    1  A    between atoms: C_1  and  O_2
REMARK    2  A    between atoms: O_2  and  C_3
REMARK    3  A    between atoms: C_6  and  C_9
REMARK    4  A    between atoms: C_9  and  C_10
REMARK    5  A    between atoms: C_10  and  N_11
REMARK    6  A    between atoms: C_31  and  C_33
REMARK                            x       y       z     vdW  Elec       q    Type
REMARK                         _______ _______ _______ _____ _____    ______ ____
ROOT
ATOM      1  N   UNL     1      -6.739  -3.548  -1.437  0.00  0.00    -0.291 N 
ATOM      2  C   UNL     1      -6.750  -5.001  -1.430  0.00  0.00    +0.203 C 
ATOM      3  C   UNL     1      -8.136  -5.555  -1.420  0.00  0.00    +0.234 C 
ATOM      4  O   UNL     1      -8.259  -6.762  -1.416  0.00  0.00    -0.274 OA
ATOM      5  N   UNL     1      -9.251  -4.816  -1.415  0.00  0.00    -0.279 N 
ATOM      6  C   UNL     1      -9.229  -3.357  -1.401  0.00  0.00    +0.167 C 
ATOM      7  C   UNL     1      -7.843  -2.803  -1.418  0.00  0.00    +0.237 C 
ATOM      8  O   UNL     1      -7.714  -1.597  -1.419  0.00  0.00    -0.274 OA
ATOM      9  C   UNL     1      -9.977  -2.833  -0.162  0.00  0.00    +0.065 C 
ATOM     10  C   UNL     1     -11.268  -3.610  -0.078  0.00  0.00    -0.034 C 
ATOM     11  C   UNL     1     -12.528  -3.213   0.044  0.00  0.00    -0.001 A 
ATOM     12  C   UNL     1     -13.121  -1.882   0.253  0.00  0.00    +0.010 A 
ATOM     13  C   UNL     1     -14.478  -1.833   0.312  0.00  0.00    +0.001 A 
ATOM     14  C   UNL     1     -15.295  -2.961   0.184  0.00  0.00    +0.002 A 
ATOM     15  C   UNL     1     -14.835  -4.224  -0.001  0.00  0.00    +0.026 A 
ATOM     16  C   UNL     1     -13.424  -4.405  -0.071  0.00  0.00    +0.043 A 
ATOM     17  N   UNL     1     -12.721  -5.489  -0.216  0.00  0.00    -0.375 N 
ATOM     18  C   UNL     1     -11.303  -5.132  -0.151  0.00  0.00    +0.131 C 
ATOM     19  C   UNL     1     -10.550  -5.525  -1.425  0.00  0.00    +0.133 C 
ATOM     20  H   UNL     1     -13.076  -6.383  -0.345  0.00  0.00    +0.160 HD
ENDROOT
BRANCH  19  21
ATOM     21  C   UNL     1     -10.319  -7.014  -1.444  0.00  0.00    -0.025 A 
ATOM     22  C   UNL     1     -10.298  -7.695  -2.647  0.00  0.00    +0.007 A 
ATOM     23  C   UNL     1     -10.086  -9.061  -2.664  0.00  0.00    +0.020 A 
ATOM     24  C   UNL     1      -9.896  -9.747  -1.478  0.00  0.00    +0.041 A 
ATOM     25  C   UNL     1      -9.917  -9.065  -0.274  0.00  0.00    +0.020 A 
ATOM     26  C   UNL     1     -10.123  -7.698  -0.258  0.00  0.00    +0.007 A 
ATOM     27 CL   UNL     1      -9.630 -11.462  -1.499  0.00  0.00    -0.084 Cl
ENDBRANCH  19  21
BRANCH   1  28
ATOM     28  C   UNL     1      -5.443  -2.865  -1.459  0.00  0.00    +0.113 C 
BRANCH  28  29
ATOM     29  C   UNL     1      -4.967  -2.626  -0.025  0.00  0.00    +0.054 C 
BRANCH  29  33
ATOM     30  C   UNL     1      -1.187  -0.634  -0.090  0.00  0.00    +0.120 A 
ATOM     31  C   UNL     1      -2.361   0.104  -0.070  0.00  0.00    +0.046 A 
ATOM     32  C   UNL     1      -3.582  -0.542  -0.050  0.00  0.00    +0.007 A 
ATOM     33  C   UNL     1      -3.634  -1.924  -0.048  0.00  0.00    -0.046 A 
ATOM     34  C   UNL     1      -2.465  -2.662  -0.067  0.00  0.00    +0.007 A 
ATOM     35  C   UNL     1      -1.242  -2.020  -0.094  0.00  0.00    +0.046 A 
BRANCH  30  37
ATOM     36  C   UNL     1      -0.004   1.428  -0.105  0.00  0.00    +0.277 C 
ATOM     37  O   UNL     1       0.015  -0.001  -0.111  0.00  0.00    -0.495 OA
ENDBRANCH  30  37
ENDBRANCH  29  33
ENDBRANCH  28  29
ENDBRANCH   1  28
TORSDOF 5
