REMARK  Name = ZINC39972235
REMARK  9 active torsions:
REMARK  status: ('A' for Active; 'I' for Inactive)
REMARK    1  A    between atoms: C_1  and  C_2
REMARK    2  A    between atoms: C_2  and  C_4
REMARK    3  A    between atoms: C_2  and  N_14
REMARK    4  A    between atoms: C_7  and  S_10
REMARK    5  A    between atoms: S_10  and  N_13
REMARK    6  A    between atoms: N_14  and  C_15
REMARK    7  A    between atoms: N_14  and  C_16
REMARK    8  A    between atoms: C_16  and  C_17
REMARK    9  A    between atoms: N_19  and  C_20
REMARK                            x       y       z     vdW  Elec       q    Type
REMARK                         _______ _______ _______ _____ _____    ______ ____
ROOT
ATOM      1  N   UNL     1       0.714  -0.488   1.192  0.00  0.00    +0.388 N 
ATOM      2  C   UNL     1       0.723  -1.957   1.182  0.00  0.00    -0.095 C 
ATOM      3  H   UNL     1       1.663  -0.146   1.186  0.00  0.00    -0.081 HD
ENDROOT
BRANCH   1   5
ATOM      4  C   UNL     1      -0.002   1.535   0.012  0.00  0.00    -0.008 C 
ATOM      5  C   UNL     1       0.008   0.005   0.002  0.00  0.00    -0.041 C 
BRANCH   5   6
ATOM      6  C   UNL     1       0.711  -0.484  -1.238  0.00  0.00    -0.061 A 
ATOM      7  C   UNL     1       2.092  -0.515  -1.283  0.00  0.00    +0.004 A 
ATOM      8  C   UNL     1       2.737  -0.964  -2.420  0.00  0.00    +0.029 A 
ATOM      9  C   UNL     1       2.001  -1.382  -3.512  0.00  0.00    +0.105 A 
ATOM     10  C   UNL     1       0.620  -1.353  -3.467  0.00  0.00    +0.029 A 
ATOM     11  C   UNL     1      -0.025  -0.907  -2.329  0.00  0.00    +0.004 A 
BRANCH   9  12
ATOM     12  S   UNL     1       2.823  -1.954  -4.962  0.00  0.00    +0.056 S 
ATOM     13  O   UNL     1       1.916  -1.774  -6.041  0.00  0.00    -0.153 OA
ATOM     14  O   UNL     1       4.119  -1.370  -4.951  0.00  0.00    -0.153 OA
BRANCH  12  15
ATOM     15  N   UNL     1       3.039  -3.587  -4.792  0.00  0.00    -0.204 NA
ATOM     16  H   UNL     1       3.057  -4.158  -5.575  0.00  0.00    +0.144 HD
ATOM     17  H   UNL     1       3.148  -3.972  -3.908  0.00  0.00    +0.144 HD
ENDBRANCH  12  15
ENDBRANCH   9  12
ENDBRANCH   5   6
ENDBRANCH   1   5
BRANCH   1  18
ATOM     18  C   UNL     1       0.028  -0.011   2.400  0.00  0.00    +0.019 C 
BRANCH  18  19
ATOM     19  C   UNL     1       0.819  -0.413   3.619  0.00  0.00    +0.201 C 
ATOM     20  O   UNL     1       1.852  -1.036   3.492  0.00  0.00    -0.278 OA
ATOM     21  N   UNL     1       0.379  -0.081   4.848  0.00  0.00    -0.287 N 
ATOM     22  H   UNL     1      -0.411   0.474   4.947  0.00  0.00    +0.155 HD
BRANCH  21  23
ATOM     23  C   UNL     1       1.061  -0.537   5.984  0.00  0.00    +0.037 A 
ATOM     24  C   UNL     1       0.354  -0.869   7.131  0.00  0.00    +0.027 A 
ATOM     25  C   UNL     1       1.026  -1.319   8.252  0.00  0.00    +0.051 A 
ATOM     26  C   UNL     1       2.406  -1.440   8.234  0.00  0.00    +0.173 A 
ATOM     27  C   UNL     1       3.118  -1.107   7.084  0.00  0.00    +0.174 A 
ATOM     28  C   UNL     1       2.443  -0.661   5.959  0.00  0.00    +0.073 A 
ATOM     29  O   UNL     1       4.447  -1.310   7.319  0.00  0.00    -0.395 OA
ATOM     30  C   UNL     1       4.577  -1.380   8.752  0.00  0.00    +0.589 C 
ATOM     31  O   UNL     1       3.290  -1.852   9.190  0.00  0.00    -0.395 OA
ATOM     32  F   UNL     1       5.582  -2.285   9.110  0.00  0.00    -0.125 F 
ATOM     33  F   UNL     1       4.844  -0.113   9.283  0.00  0.00    -0.125 F 
ENDBRANCH  21  23
ENDBRANCH  18  19
ENDBRANCH   1  18
TORSDOF 7
