REMARK  Name = ZINC22010117
REMARK  9 active torsions:
REMARK  status: ('A' for Active; 'I' for Inactive)
REMARK    1  A    between atoms: C_1  and  O_2
REMARK    2  A    between atoms: O_2  and  C_3
REMARK    3  A    between atoms: C_3  and  C_4
REMARK    4  A    between atoms: CA_5  and  C_28
REMARK    5  A    between atoms: CA_9  and  N_13
REMARK    6  A    between atoms: C_14  and  C_16
REMARK    7  A    between atoms: C_16  and  C_20
REMARK    8  A    between atoms: N_17  and  O_18
REMARK    9  A    between atoms: O_18  and  C_19
REMARK                            x       y       z     vdW  Elec       q    Type
REMARK                         _______ _______ _______ _____ _____    ______ ____
ROOT
ATOM      1  N   UNL     1      -0.384   2.442   1.159  0.00  0.00    -0.296 N 
ATOM      2  C   UNL     1      -1.579   3.062   1.091  0.00  0.00    +0.267 C 
ATOM      3  O   UNL     1      -2.276   2.931   0.104  0.00  0.00    -0.268 OA
ATOM      4  H   UNL     1       0.205   2.485   2.087  0.00  0.00    +0.150 HD
ENDROOT
BRANCH   1   9
ATOM      5  C   UNL     1       3.299  -0.572  -1.256  0.00  0.00    -0.006 C 
ATOM      6  CA  UNL     1       2.221  -0.885  -0.556  0.00  0.00    +0.129 C 
ATOM      7  N   UNL     1       1.332   0.121  -0.124  0.00  0.00    -0.249 N 
ATOM      8  C   UNL     1       1.643   1.577  -0.004  0.00  0.00    +0.169 C 
ATOM      9  CA  UNL     1       0.130   1.712  -0.002  0.00  0.00    +0.191 C 
ATOM     10  C   UNL     1       0.019   0.210   0.141  0.00  0.00    +0.244 C 
ATOM     11  O   UNL     1      -0.872  -0.575   0.388  0.00  0.00    -0.273 OA
ATOM     12  S   UNL     1       2.470   2.033  -1.566  0.00  0.00    -0.131 S 
ATOM     13  C   UNL     1       3.789   0.782  -1.654  0.00  0.00    +0.106 C 
BRANCH   6  14
ATOM     14  C   UNL     1       1.947  -2.295  -0.225  0.00  0.00    +0.401 C 
ATOM     15  O   UNL     1       0.909  -2.599   0.330  0.00  0.00    -0.239 OA
ATOM     16  OXT UNL     1       2.848  -3.248  -0.537  0.00  0.00    -0.239 OA
ENDBRANCH   6  14
BRANCH   5  17
ATOM     17  C   UNL     1       4.143  -1.734  -1.711  0.00  0.00    +0.193 C 
BRANCH  17  19
ATOM     18  C   UNL     1       6.129  -2.267  -2.944  0.00  0.00    +0.194 C 
ATOM     19  O   UNL     1       5.199  -1.256  -2.547  0.00  0.00    -0.379 OA
ENDBRANCH  17  19
ENDBRANCH   5  17
ENDBRANCH   1   9
BRANCH   2  20
ATOM     20  C   UNL     1      -2.043   3.904   2.220  0.00  0.00    +0.179 C 
ATOM     21  N   UNL     1      -3.248   4.405   2.208  0.00  0.00    -0.079 NA
BRANCH  20  22
ATOM     22  C   UNL     1      -1.145   4.173   3.355  0.00  0.00    +0.067 A 
ATOM     23  C   UNL     1      -1.396   4.831   4.534  0.00  0.00    +0.131 A 
ATOM     24  N   UNL     1      -0.417   4.939   5.401  0.00  0.00    -0.233 NA
ATOM     25  C   UNL     1       0.783   4.442   5.151  0.00  0.00    +0.156 A 
ATOM     26  S   UNL     1       0.575   3.742   3.576  0.00  0.00    -0.051 S 
ATOM     27  N   UNL     1       1.915   4.472   5.943  0.00  0.00    -0.338 N 
ATOM     28  H   UNL     1       2.847   4.008   5.588  0.00  0.00    +0.144 HD
ATOM     29  H   UNL     1       1.884   4.960   6.928  0.00  0.00    +0.144 HD
ENDBRANCH  20  22
BRANCH  21  30
ATOM     30  O   UNL     1      -4.149   4.059   1.171  0.00  0.00    -0.396 OA
ATOM     31  C   UNL     1      -5.431   4.681   1.283  0.00  0.00    +0.313 C 
ENDBRANCH  21  30
ENDBRANCH   2  20
TORSDOF 7
