REMARK  Name = ZINC19984092
REMARK  6 active torsions:
REMARK  status: ('A' for Active; 'I' for Inactive)
REMARK    1  A    between atoms: C_1  and  C_2
REMARK    2  A    between atoms: C_7  and  N_8
REMARK    3  A    between atoms: C_9  and  C_11
REMARK    4  A    between atoms: C_11  and  C_13
REMARK    5  A    between atoms: C_11  and  N_14
REMARK    6  A    between atoms: C_22  and  C_26
REMARK                            x       y       z     vdW  Elec       q    Type
REMARK                         _______ _______ _______ _____ _____    ______ ____
ROOT
ATOM      1  C   UNL     1       2.425   1.191  -0.043  0.00  0.00    +0.164 C 
ATOM      2  C   UNL     1       2.554   0.267   1.170  0.00  0.00    +0.038 C 
ENDROOT
BRANCH   1   3
ATOM      3  N   UNL     1       1.139   1.890   0.010  0.00  0.00    -0.253 N 
ATOM      4  C   UNL     1       1.091   3.290   0.064  0.00  0.00    +0.079 A 
ATOM      5  C   UNL     1       2.207   4.049  -0.249  0.00  0.00    +0.027 A 
ATOM      6  C   UNL     1       2.139   5.429  -0.188  0.00  0.00    +0.002 A 
ATOM      7  C   UNL     1       0.962   6.052   0.183  0.00  0.00    +0.004 A 
ATOM      8  C   UNL     1      -0.156   5.300   0.496  0.00  0.00    +0.047 A 
ATOM      9  C   UNL     1      -0.096   3.918   0.438  0.00  0.00    +0.143 A 
ATOM     10  O   UNL     1      -1.185   3.163   0.741  0.00  0.00    -0.478 OA
ATOM     11  C   UNL     1      -1.335   1.934   0.020  0.00  0.00    +0.256 C 
ATOM     12  C   UNL     1      -0.020   1.196   0.008  0.00  0.00    +0.261 C 
ATOM     13  O   UNL     1      -0.003  -0.017  -0.007  0.00  0.00    -0.271 OA
ATOM     14  C   UNL     1      -1.765   2.230  -1.418  0.00  0.00    +0.062 C 
ENDBRANCH   1   3
BRANCH   1  16
ATOM     15  N   UNL     1       3.600  -0.359  -1.571  0.00  0.00    -0.284 N 
ATOM     16  C   UNL     1       2.500   0.373  -1.307  0.00  0.00    +0.238 C 
ATOM     17  O   UNL     1       1.571   0.375  -2.087  0.00  0.00    -0.273 OA
ATOM     18  H   UNL     1       4.478  -0.290  -0.912  0.00  0.00    +0.155 HD
BRANCH  15  25
ATOM     19  C   UNL     1       6.128  -1.030  -2.692  0.00  0.00    +0.045 C 
ATOM     20  C   UNL     1       4.837  -1.560  -3.263  0.00  0.00    -0.029 A 
ATOM     21  C   UNL     1       4.859  -2.397  -4.361  0.00  0.00    +0.005 A 
ATOM     22  C   UNL     1       3.675  -2.884  -4.884  0.00  0.00    +0.000 A 
ATOM     23  C   UNL     1       2.467  -2.535  -4.310  0.00  0.00    +0.002 A 
ATOM     24  C   UNL     1       2.439  -1.702  -3.209  0.00  0.00    +0.023 A 
ATOM     25  C   UNL     1       3.626  -1.207  -2.684  0.00  0.00    +0.036 A 
ENDBRANCH  15  25
ENDBRANCH   1  16
TORSDOF 3
