REMARK  Name = ZINC13234231
REMARK  9 active torsions:
REMARK  status: ('A' for Active; 'I' for Inactive)
REMARK    1  A    between atoms: C_1  and  C_2
REMARK    2  A    between atoms: C_2  and  C_3
REMARK    3  A    between atoms: C_2  and  C_4
REMARK    4  A    between atoms: C_4  and  C_6
REMARK    5  A    between atoms: C_4  and  N_8
REMARK    6  A    between atoms: C_18  and  S_19
REMARK    7  A    between atoms: S_19  and  C_20
REMARK    8  A    between atoms: C_20  and  C_21
REMARK    9  A    between atoms: C_32  and  C_34
REMARK                            x       y       z     vdW  Elec       q    Type
REMARK                         _______ _______ _______ _____ _____    ______ ____
ROOT
ATOM      1  N   UNL     1       6.780   5.832  -5.488  0.00  0.00    -0.273 N 
ATOM      2  C   UNL     1       6.188   6.163  -6.660  0.00  0.00    +0.263 A 
ATOM      3  O   UNL     1       5.937   7.322  -6.934  0.00  0.00    -0.267 OA
ATOM      4  C   UNL     1       5.860   5.071  -7.586  0.00  0.00    +0.065 A 
ATOM      5  C   UNL     1       5.250   5.309  -8.817  0.00  0.00    +0.015 A 
ATOM      6  C   UNL     1       4.966   4.256  -9.642  0.00  0.00    +0.001 A 
ATOM      7  C   UNL     1       5.279   2.955  -9.267  0.00  0.00    +0.002 A 
ATOM      8  C   UNL     1       5.877   2.695  -8.067  0.00  0.00    +0.028 A 
ATOM      9  C   UNL     1       6.179   3.749  -7.201  0.00  0.00    +0.079 A 
ATOM     10  N   UNL     1       6.769   3.537  -6.007  0.00  0.00    -0.223 NA
ATOM     11  C   UNL     1       7.054   4.526  -5.196  0.00  0.00    +0.173 A 
ENDROOT
BRANCH   1  12
ATOM     12  C   UNL     1       7.130   6.881  -4.527  0.00  0.00    +0.208 C 
BRANCH  12  14
ATOM     13  C   UNL     1       5.081   8.241  -4.971  0.00  0.00    +0.010 C 
ATOM     14  C   UNL     1       6.610   8.229  -5.032  0.00  0.00    +0.017 C 
ATOM     15  C   UNL     1       7.165   9.351  -4.153  0.00  0.00    +0.010 C 
ENDBRANCH  12  14
BRANCH  12  16
ATOM     16  C   UNL     1       6.503   6.569  -3.193  0.00  0.00    +0.379 C 
ATOM     17  O   UNL     1       5.834   5.572  -3.058  0.00  0.00    -0.244 OA
ATOM     18  O   UNL     1       6.689   7.398  -2.154  0.00  0.00    -0.244 OA
ENDBRANCH  12  16
ENDBRANCH   1  12
BRANCH  11  19
ATOM     19  S   UNL     1       7.825   4.154  -3.656  0.00  0.00    -0.078 S 
BRANCH  19  20
ATOM     20  C   UNL     1       7.947   2.353  -3.793  0.00  0.00    +0.173 C 
BRANCH  20  21
ATOM     21  C   UNL     1       8.595   1.798  -2.551  0.00  0.00    +0.227 C 
ATOM     22  O   UNL     1       8.941   2.546  -1.661  0.00  0.00    -0.275 OA
ATOM     23  N   UNL     1       8.790   0.470  -2.429  0.00  0.00    -0.283 N 
ATOM     24  C   UNL     1       8.451  -0.454  -3.516  0.00  0.00    +0.144 C 
ATOM     25  C   UNL     1       9.571  -1.454  -3.697  0.00  0.00    -0.027 A 
ATOM     26  C   UNL     1       9.542  -2.262  -4.825  0.00  0.00    +0.005 A 
ATOM     27  C   UNL     1      10.521  -3.212  -5.031  0.00  0.00    +0.000 A 
ATOM     28  C   UNL     1      11.540  -3.359  -4.107  0.00  0.00    +0.000 A 
ATOM     29  C   UNL     1      11.573  -2.552  -2.989  0.00  0.00    +0.004 A 
ATOM     30  C   UNL     1      10.589  -1.592  -2.780  0.00  0.00    -0.040 A 
ATOM     31  C   UNL     1      10.697  -0.741  -1.542  0.00  0.00    +0.069 C 
ATOM     32  C   UNL     1       9.348  -0.112  -1.197  0.00  0.00    +0.194 C 
BRANCH  32  33
ATOM     33  C   UNL     1       9.538   0.968  -0.163  0.00  0.00    +0.376 C 
ATOM     34  O   UNL     1       8.613   1.685   0.139  0.00  0.00    -0.244 OA
ATOM     35  O   UNL     1      10.734   1.134   0.422  0.00  0.00    -0.244 OA
ENDBRANCH  32  33
ENDBRANCH  20  21
ENDBRANCH  19  20
ENDBRANCH  11  19
TORSDOF 7
