REMARK  Name = ZINC12557311
REMARK  5 active torsions:
REMARK  status: ('A' for Active; 'I' for Inactive)
REMARK    1  A    between atoms: C_3  and  N_21
REMARK    2  A    between atoms: C_6  and  C_7
REMARK    3  A    between atoms: C_13  and  C_15
REMARK    4  A    between atoms: N_21  and  S_22
REMARK    5  A    between atoms: S_22  and  C_25
REMARK                            x       y       z     vdW  Elec       q    Type
REMARK                         _______ _______ _______ _____ _____    ______ ____
ROOT
ATOM      1  C   UNL     1       1.108   1.946   0.002  0.00  0.00    +0.015 A 
ATOM      2  C   UNL     1      -0.016   1.156  -0.063  0.00  0.00    +0.025 A 
ATOM      3  C   UNL     1      -1.276   1.718   0.127  0.00  0.00    +0.048 A 
ATOM      4  C   UNL     1      -1.401   3.078   0.395  0.00  0.00    +0.025 A 
ATOM      5  C   UNL     1      -0.280   3.874   0.461  0.00  0.00    +0.015 A 
ATOM      6  C   UNL     1       0.986   3.314   0.265  0.00  0.00    +0.037 A 
ENDROOT
BRANCH   6   7
ATOM      7  C   UNL     1       2.189   4.164   0.335  0.00  0.00    +0.247 C 
ATOM      8  O   UNL     1       3.276   3.662   0.547  0.00  0.00    -0.270 OA
ATOM      9  N   UNL     1       2.083   5.497   0.164  0.00  0.00    -0.290 N 
ATOM     10  C   UNL     1       0.824   6.244  -0.005  0.00  0.00    +0.109 C 
ATOM     11  C   UNL     1       1.228   7.537  -0.757  0.00  0.00    +0.021 C 
ATOM     12  C   UNL     1       2.608   7.849  -0.120  0.00  0.00    +0.029 C 
ATOM     13  C   UNL     1       3.205   6.447   0.122  0.00  0.00    +0.107 C 
BRANCH  13  14
ATOM     14  C   UNL     1       3.947   6.422   1.433  0.00  0.00    -0.024 A 
ATOM     15  C   UNL     1       3.261   6.335   2.635  0.00  0.00    +0.025 A 
ATOM     16  C   UNL     1       3.975   6.311   3.818  0.00  0.00    +0.111 A 
ATOM     17  N   UNL     1       5.292   6.378   3.812  0.00  0.00    -0.263 NA
ATOM     18  C   UNL     1       5.977   6.466   2.689  0.00  0.00    +0.111 A 
ATOM     19  C   UNL     1       5.331   6.491   1.467  0.00  0.00    +0.025 A 
ENDBRANCH  13  14
ENDBRANCH   6   7
BRANCH   3  20
ATOM     20  N   UNL     1      -2.411   0.917   0.055  0.00  0.00    -0.216 N 
ATOM     21  H   UNL     1      -2.606   0.287   0.766  0.00  0.00    +0.174 HD
BRANCH  20  22
ATOM     22  S   UNL     1      -3.428   1.040  -1.246  0.00  0.00    +0.072 S 
ATOM     23  O   UNL     1      -4.468   0.094  -1.038  0.00  0.00    -0.150 OA
ATOM     24  O   UNL     1      -3.684   2.425  -1.433  0.00  0.00    -0.150 OA
BRANCH  22  25
ATOM     25  C   UNL     1      -2.531   0.498  -2.662  0.00  0.00    +0.112 A 
ATOM     26  C   UNL     1      -2.629  -0.817  -3.079  0.00  0.00    +0.032 A 
ATOM     27  C   UNL     1      -1.928  -1.249  -4.190  0.00  0.00    +0.051 A 
ATOM     28  C   UNL     1      -1.127  -0.359  -4.886  0.00  0.00    +0.162 A 
ATOM     29  C   UNL     1      -1.028   0.960  -4.467  0.00  0.00    +0.164 A 
ATOM     30  C   UNL     1      -1.735   1.391  -3.357  0.00  0.00    +0.078 A 
ATOM     31  O   UNL     1      -0.236   1.829  -5.159  0.00  0.00    -0.488 OA
ATOM     32  C   UNL     1       1.171   1.589  -5.082  0.00  0.00    +0.232 C 
ATOM     33  C   UNL     1       1.598   0.554  -6.111  0.00  0.00    +0.082 C 
ATOM     34  C   UNL     1       0.990  -0.814  -5.844  0.00  0.00    +0.232 C 
ATOM     35  O   UNL     1      -0.431  -0.772  -5.984  0.00  0.00    -0.488 OA
ENDBRANCH  22  25
ENDBRANCH  20  22
ENDBRANCH   3  20
TORSDOF 5
