REMARK  Name = ZINC23582609
REMARK  9 active torsions:
REMARK  status: ('A' for Active; 'I' for Inactive)
REMARK    1  A    between atoms: C_1  and  O_2
REMARK    2  A    between atoms: O_2  and  C_3
REMARK    3  A    between atoms: C_3  and  C_5
REMARK    4  A    between atoms: C_8  and  C_10
REMARK    5  A    between atoms: C_10  and  O_11
REMARK    6  A    between atoms: O_11  and  C_12
REMARK    7  A    between atoms: C_12  and  C_14
REMARK    8  A    between atoms: C_19  and  S_20
REMARK    9  A    between atoms: S_20  and  N_23
REMARK                            x       y       z     vdW  Elec       q    Type
REMARK                         _______ _______ _______ _____ _____    ______ ____
ROOT
ATOM      1  C   UNL     1       3.002  -1.797  -1.033  0.00  0.00    +0.085 A 
ATOM      2  C   UNL     1       3.487  -2.228  -2.270  0.00  0.00    +0.017 A 
ATOM      3  C   UNL     1       4.707  -1.775  -2.725  0.00  0.00    +0.001 A 
ATOM      4  C   UNL     1       5.451  -0.894  -1.960  0.00  0.00    +0.002 A 
ATOM      5  C   UNL     1       4.974  -0.458  -0.736  0.00  0.00    +0.029 A 
ATOM      6  C   UNL     1       3.758  -0.908  -0.266  0.00  0.00    +0.119 A 
ENDROOT
BRANCH   6   7
ATOM      7  S   UNL     1       3.156  -0.357   1.295  0.00  0.00    +0.062 S 
ATOM      8  O   UNL     1       3.409  -1.404   2.221  0.00  0.00    -0.153 OA
ATOM      9  O   UNL     1       1.852   0.161   1.068  0.00  0.00    -0.153 OA
BRANCH   7  10
ATOM     10  N   UNL     1       4.098   0.923   1.759  0.00  0.00    -0.177 NA
ATOM     11  C   UNL     1       3.832   2.274   1.246  0.00  0.00    +0.109 C 
ATOM     12  C   UNL     1       5.120   2.831   0.632  0.00  0.00    +0.017 C 
ATOM     13  C   UNL     1       6.245   2.763   1.668  0.00  0.00    +0.003 C 
ATOM     14  C   UNL     1       6.489   1.305   2.062  0.00  0.00    +0.017 C 
ATOM     15  C   UNL     1       5.217   0.730   2.692  0.00  0.00    +0.109 C 
ENDBRANCH   7  10
ENDBRANCH   6   7
BRANCH   1  16
ATOM     16  C   UNL     1       1.696  -2.278  -0.539  0.00  0.00    +0.341 C 
ATOM     17  O   UNL     1       1.332  -2.000   0.586  0.00  0.00    -0.245 OA
BRANCH  16  18
ATOM     18  O   UNL     1       0.908  -3.025  -1.337  0.00  0.00    -0.453 OA
BRANCH  18  19
ATOM     19  C   UNL     1      -0.362  -3.463  -0.785  0.00  0.00    +0.306 C 
BRANCH  19  23
ATOM     20  C   UNL     1      -2.429  -4.814  -3.476  0.00  0.00    +0.212 A 
ATOM     21  C   UNL     1      -1.853  -5.971  -3.032  0.00  0.00    +0.057 A 
ATOM     22  C   UNL     1      -1.003  -5.618  -1.973  0.00  0.00    +0.049 A 
ATOM     23  C   UNL     1      -1.101  -4.280  -1.813  0.00  0.00    +0.143 A 
ATOM     24  O   UNL     1      -1.959  -3.799  -2.722  0.00  0.00    -0.450 OA
BRANCH  20  25
ATOM     25  C   UNL     1      -3.389  -4.697  -4.576  0.00  0.00    +0.375 C 
ATOM     26  O   UNL     1      -3.740  -5.689  -5.185  0.00  0.00    -0.241 OA
BRANCH  25  28
ATOM     27  C   UNL     1      -4.829  -3.447  -6.015  0.00  0.00    +0.280 C 
ATOM     28  O   UNL     1      -3.883  -3.488  -4.915  0.00  0.00    -0.462 OA
ENDBRANCH  25  28
ENDBRANCH  20  25
ENDBRANCH  19  23
ENDBRANCH  18  19
ENDBRANCH  16  18
ENDBRANCH   1  16
TORSDOF 8
