REMARK  Name = ZINC35263868
REMARK  12 active torsions:
REMARK  status: ('A' for Active; 'I' for Inactive)
REMARK    1  A    between atoms: C_1  and  C_2
REMARK    2  A    between atoms: C_3  and  C_31
REMARK    3  A    between atoms: C_4  and  C_19
REMARK    4  A    between atoms: C_10  and  C_11
REMARK    5  A    between atoms: C_22  and  O_27
REMARK    6  A    between atoms: C_23  and  O_25
REMARK    7  A    between atoms: O_25  and  C_26
REMARK    8  A    between atoms: O_27  and  C_28
REMARK    9  A    between atoms: C_28  and  C_29
REMARK   10  A    between atoms: C_31  and  O_33
REMARK   11  A    between atoms: O_33  and  C_34
REMARK   12  A    between atoms: C_34  and  C_35
REMARK                            x       y       z     vdW  Elec       q    Type
REMARK                         _______ _______ _______ _____ _____    ______ ____
ROOT
ATOM      1  C   UNL     1       0.761   1.011   0.531  0.00  0.00    +0.066 C 
ATOM      2  C   UNL     1       0.447  -0.454   0.373  0.00  0.00    +0.053 C 
ATOM      3  C   UNL     1      -0.851  -0.857   0.222  0.00  0.00    +0.085 C 
ATOM      4  C   UNL     1      -1.126  -2.335   0.066  0.00  0.00    +0.162 C 
ATOM      5  N   UNL     1       0.049  -3.249   0.089  0.00  0.00    -0.275 N 
ATOM      6  C   UNL     1       0.023  -4.582  -0.033  0.00  0.00    +0.268 A 
ATOM      7  O   UNL     1      -1.036  -5.165  -0.179  0.00  0.00    -0.266 OA
ATOM      8  C   UNL     1       1.243  -5.309   0.010  0.00  0.00    +0.081 A 
ATOM      9  C   UNL     1       1.454  -6.653  -0.091  0.00  0.00    +0.035 C 
ATOM     10  S   UNL     1       2.428  -3.990   0.233  0.00  0.00    -0.046 S 
ATOM     11  C   UNL     1       1.271  -2.635   0.252  0.00  0.00    +0.178 A 
ATOM     12  N   UNL     1       1.433  -1.343   0.376  0.00  0.00    -0.228 NA
ENDROOT
BRANCH   4  13
ATOM     13  C   UNL     1      -1.845  -2.537  -1.243  0.00  0.00    -0.016 A 
ATOM     14  C   UNL     1      -3.194  -2.839  -1.250  0.00  0.00    +0.010 A 
ATOM     15  C   UNL     1      -3.858  -3.026  -2.448  0.00  0.00    +0.050 A 
ATOM     16  C   UNL     1      -3.171  -2.910  -3.646  0.00  0.00    +0.162 A 
ATOM     17  C   UNL     1      -1.813  -2.606  -3.639  0.00  0.00    +0.162 A 
ATOM     18  C   UNL     1      -1.155  -2.415  -2.435  0.00  0.00    +0.055 A 
BRANCH  17  19
ATOM     19  O   UNL     1      -1.135  -2.491  -4.812  0.00  0.00    -0.491 OA
ATOM     20  C   UNL     1       0.252  -2.156  -4.730  0.00  0.00    +0.277 C 
ENDBRANCH  17  19
BRANCH  16  21
ATOM     21  O   UNL     1      -3.822  -3.094  -4.825  0.00  0.00    -0.484 OA
BRANCH  21  22
ATOM     22  C   UNL     1      -5.216  -3.404  -4.755  0.00  0.00    +0.256 C 
BRANCH  22  23
ATOM     23  C   UNL     1      -5.764  -3.571  -6.149  0.00  0.00    +0.006 C 
ATOM     24  C   UNL     1      -6.553  -4.580  -6.426  0.00  0.00    +0.007 C 
ENDBRANCH  22  23
ENDBRANCH  21  22
ENDBRANCH  16  21
ENDBRANCH   4  13
BRANCH   9  25
ATOM     25  C   UNL     1       2.768  -7.170  -0.021  0.00  0.00    +0.013 A 
ATOM     26  C   UNL     1       3.196  -8.491  -0.107  0.00  0.00    +0.015 A 
ATOM     27  C   UNL     1       4.553  -8.684  -0.003  0.00  0.00    +0.008 A 
ATOM     28  C   UNL     1       5.361  -7.608   0.172  0.00  0.00    +0.046 A 
ATOM     29  S   UNL     1       4.308  -6.299   0.193  0.00  0.00    -0.097 S 
ENDBRANCH   9  25
BRANCH   3  30
ATOM     30  C   UNL     1      -1.900   0.077   0.212  0.00  0.00    +0.340 C 
ATOM     31  O   UNL     1      -1.654   1.270   0.237  0.00  0.00    -0.245 OA
BRANCH  30  32
ATOM     32  O   UNL     1      -3.182  -0.347   0.176  0.00  0.00    -0.457 OA
BRANCH  32  33
ATOM     33  C   UNL     1      -4.192   0.653   0.034  0.00  0.00    +0.259 C 
BRANCH  33  34
ATOM     34  C   UNL     1      -5.552   0.007   0.104  0.00  0.00    +0.006 C 
ATOM     35  C   UNL     1      -6.485   0.523   0.866  0.00  0.00    +0.007 C 
ENDBRANCH  33  34
ENDBRANCH  32  33
ENDBRANCH  30  32
ENDBRANCH   3  30
TORSDOF 10
