REMARK  Name = ZINC05954891
REMARK  6 active torsions:
REMARK  status: ('A' for Active; 'I' for Inactive)
REMARK    1  A    between atoms: C_1  and  C_2
REMARK    2  A    between atoms: C_13  and  C_25
REMARK    3  A    between atoms: C_13  and  C_26
REMARK    4  A    between atoms: C_18  and  C_23
REMARK    5  A    between atoms: C_19  and  O_22
REMARK    6  A    between atoms: C_23  and  O_24
REMARK                            x       y       z     vdW  Elec       q    Type
REMARK                         _______ _______ _______ _____ _____    ______ ____
ROOT
ATOM      1  C   UNL     1      -0.301  -1.106   0.633  0.00  0.00    +0.044 C 
ATOM      2  C   UNL     1      -0.047   0.355   0.364  0.00  0.00    -0.036 A 
ATOM      3  C   UNL     1       1.223   0.793   0.057  0.00  0.00    +0.004 A 
ATOM      4  C   UNL     1       1.460   2.137  -0.191  0.00  0.00    +0.004 A 
ATOM      5  C   UNL     1       0.431   3.054  -0.135  0.00  0.00    +0.047 A 
ATOM      6  C   UNL     1      -0.856   2.634   0.173  0.00  0.00    +0.143 A 
ATOM      7  C   UNL     1      -1.098   1.273   0.419  0.00  0.00    +0.063 A 
ATOM      8  C   UNL     1      -2.468   0.838   0.740  0.00  0.00    +0.146 A 
ATOM      9  C   UNL     1      -3.451   1.780   0.770  0.00  0.00    +0.089 A 
ATOM     10  C   UNL     1      -3.130   3.125   0.510  0.00  0.00    +0.345 A 
ATOM     11  O   UNL     1      -4.015   3.961   0.545  0.00  0.00    -0.245 OA
ATOM     12  O   UNL     1      -1.877   3.516   0.234  0.00  0.00    -0.422 OA
ATOM     13  C   UNL     1      -4.881   1.417   1.078  0.00  0.00    +0.027 C 
ATOM     14  C   UNL     1      -4.932   0.049   1.764  0.00  0.00    +0.099 C 
ATOM     15  C   UNL     1      -4.053  -0.920   0.973  0.00  0.00    +0.236 C 
ATOM     16  O   UNL     1      -2.704  -0.465   0.998  0.00  0.00    -0.456 OA
ATOM     17  C   UNL     1      -4.154  -2.308   1.553  0.00  0.00    +0.057 C 
ATOM     18  C   UNL     1      -4.952  -3.017   0.787  0.00  0.00    +0.013 C 
ATOM     19  C   UNL     1      -5.428  -2.138  -0.347  0.00  0.00    +0.282 C 
ATOM     20  O   UNL     1      -4.523  -1.017  -0.381  0.00  0.00    -0.303 OA
ATOM     21  C   UNL     1      -5.682   1.363  -0.225  0.00  0.00    +0.021 C 
ENDROOT
BRANCH  19  22
ATOM     22  O   UNL     1      -5.372  -2.854  -1.583  0.00  0.00    -0.363 OA
ATOM     23  H   UNL     1      -5.665  -2.341  -2.348  0.00  0.00    +0.213 HD
ENDBRANCH  19  22
BRANCH  13  24
ATOM     24  C   UNL     1      -5.477   2.458   1.990  0.00  0.00    -0.023 C 
ATOM     25  C   UNL     1      -6.591   3.061   1.656  0.00  0.00    +0.005 C 
ENDBRANCH  13  24
BRANCH  18  26
ATOM     26  C   UNL     1      -5.328  -4.460   1.002  0.00  0.00    +0.191 C 
BRANCH  26  27
ATOM     27  O   UNL     1      -4.682  -4.951   2.178  0.00  0.00    -0.391 OA
ATOM     28  H   UNL     1      -4.879  -5.876   2.378  0.00  0.00    +0.210 HD
ENDBRANCH  26  27
ENDBRANCH  18  26
TORSDOF 4
