REMARK  Name = ZINC44021495
REMARK  17 active torsions:
REMARK  status: ('A' for Active; 'I' for Inactive)
REMARK    1  A    between atoms: C_1  and  C_2
REMARK    2  A    between atoms: C_5  and  O_20
REMARK    3  A    between atoms: C_6  and  C_10
REMARK    4  A    between atoms: C_7  and  O_8
REMARK    5  A    between atoms: O_8  and  C_9
REMARK    6  A    between atoms: C_10  and  C_11
REMARK    7  A    between atoms: C_12  and  C_13
REMARK    8  A    between atoms: C_12  and  C_14
REMARK    9  A    between atoms: C_14  and  C_15
REMARK   10  A    between atoms: C_15  and  C_16
REMARK   11  A    between atoms: C_16  and  O_18
REMARK   12  A    between atoms: O_18  and  C_19
REMARK   13  A    between atoms: O_20  and  C_21
REMARK   14  A    between atoms: C_23  and  O_37
REMARK   15  A    between atoms: C_25  and  O_36
REMARK   16  A    between atoms: C_27  and  O_35
REMARK   17  A    between atoms: C_29  and  C_32
REMARK                            x       y       z     vdW  Elec       q    Type
REMARK                         _______ _______ _______ _____ _____    ______ ____
ROOT
ATOM      1  C   UNL     1      -1.040   0.712   1.037  0.00  0.00    +0.048 C 
ATOM      2  C   UNL     1      -0.723  -0.740   0.791  0.00  0.00    -0.001 A 
ATOM      3  C   UNL     1      -0.817  -1.257  -0.475  0.00  0.00    +0.014 A 
ATOM      4  C   UNL     1      -0.524  -2.606  -0.713  0.00  0.00    +0.108 A 
ATOM      5  C   UNL     1      -0.132  -3.427   0.355  0.00  0.00    +0.145 A 
ATOM      6  C   UNL     1      -0.040  -2.895   1.630  0.00  0.00    +0.041 A 
ATOM      7  C   UNL     1      -0.328  -1.555   1.849  0.00  0.00    +0.130 A 
ATOM      8  C   UNL     1      -0.714  -2.857  -2.148  0.00  0.00    +0.343 C 
ATOM      9  O   UNL     1      -0.544  -3.929  -2.695  0.00  0.00    -0.245 OA
ATOM     10  O   UNL     1      -1.103  -1.730  -2.767  0.00  0.00    -0.456 OA
ATOM     11  C   UNL     1      -1.198  -0.670  -1.811  0.00  0.00    +0.269 C 
ENDROOT
BRANCH   7  12
ATOM     12  O   UNL     1      -0.230  -1.039   3.100  0.00  0.00    -0.494 OA
ATOM     13  C   UNL     1      -1.400  -1.095   3.919  0.00  0.00    +0.277 C 
ENDBRANCH   7  12
BRANCH   6  14
ATOM     14  C   UNL     1       0.380  -3.772   2.781  0.00  0.00    +0.069 C 
BRANCH  14  15
ATOM     15  C   UNL     1       1.859  -3.613   3.020  0.00  0.00    -0.023 C 
ATOM     16  C   UNL     1       2.301  -3.301   4.213  0.00  0.00    -0.076 C 
ATOM     17  C   UNL     1       1.326  -3.008   5.324  0.00  0.00    +0.039 C 
BRANCH  16  18
ATOM     18  C   UNL     1       3.783  -3.234   4.475  0.00  0.00    +0.041 C 
BRANCH  18  19
ATOM     19  C   UNL     1       4.264  -1.790   4.319  0.00  0.00    +0.125 C 
BRANCH  19  20
ATOM     20  C   UNL     1       5.747  -1.723   4.580  0.00  0.00    +0.307 C 
ATOM     21  O   UNL     1       6.356  -2.728   4.862  0.00  0.00    -0.251 OA
BRANCH  20  22
ATOM     22  O   UNL     1       6.390  -0.548   4.499  0.00  0.00    -0.468 OA
ATOM     23  C   UNL     1       7.795  -0.558   4.760  0.00  0.00    +0.280 C 
ENDBRANCH  20  22
ENDBRANCH  19  20
ENDBRANCH  18  19
ENDBRANCH  16  18
ENDBRANCH  14  15
ENDBRANCH   6  14
BRANCH   5  24
ATOM     24  O   UNL     1       0.155  -4.735   0.140  0.00  0.00    -0.460 OA
BRANCH  24  25
ATOM     25  C   UNL     1       1.524  -5.068  -0.100  0.00  0.00    +0.340 C 
ATOM     26  C   UNL     1       1.690  -6.590  -0.077  0.00  0.00    +0.214 C 
ATOM     27  C   UNL     1       3.147  -6.941  -0.394  0.00  0.00    +0.180 C 
ATOM     28  C   UNL     1       3.523  -6.335  -1.750  0.00  0.00    +0.186 C 
ATOM     29  C   UNL     1       3.286  -4.823  -1.708  0.00  0.00    +0.266 C 
ATOM     30  O   UNL     1       1.919  -4.566  -1.378  0.00  0.00    -0.322 OA
BRANCH  29  31
ATOM     31  C   UNL     1       3.597  -4.228  -3.057  0.00  0.00    +0.387 C 
ATOM     32  O   UNL     1       2.709  -3.717  -3.718  0.00  0.00    -0.243 OA
ATOM     33  O   UNL     1       4.738  -4.257  -3.487  0.00  0.00    -0.243 OA
ENDBRANCH  29  31
BRANCH  28  34
ATOM     34  O   UNL     1       4.901  -6.596  -2.024  0.00  0.00    -0.386 OA
ATOM     35  H   UNL     1       5.208  -6.240  -2.869  0.00  0.00    +0.210 HD
ENDBRANCH  28  34
BRANCH  27  36
ATOM     36  O   UNL     1       3.999  -6.409   0.622  0.00  0.00    -0.386 OA
ATOM     37  H   UNL     1       4.938  -6.594   0.484  0.00  0.00    +0.210 HD
ENDBRANCH  27  36
BRANCH  26  38
ATOM     38  O   UNL     1       1.349  -7.088   1.218  0.00  0.00    -0.383 OA
ATOM     39  H   UNL     1       0.439  -6.897   1.486  0.00  0.00    +0.210 HD
ENDBRANCH  26  38
ENDBRANCH  24  25
ENDBRANCH   5  24
TORSDOF 13
