REMARK  Name = ZINC40055015
REMARK  13 active torsions:
REMARK  status: ('A' for Active; 'I' for Inactive)
REMARK    1  A    between atoms: C_2  and  C_3
REMARK    2  A    between atoms: C_3  and  O_4
REMARK    3  A    between atoms: O_4  and  C_5
REMARK    4  A    between atoms: C_8  and  C_11
REMARK    5  A    between atoms: C_13  and  C_23
REMARK    6  A    between atoms: N_17  and  C_18
REMARK    7  A    between atoms: C_18  and  C_19
REMARK    8  A    between atoms: C_19  and  C_20
REMARK    9  A    between atoms: C_20  and  O_21
REMARK   10  A    between atoms: C_23  and  C_25
REMARK   11  A    between atoms: C_29  and  O_31
REMARK   12  A    between atoms: O_31  and  C_32
REMARK   13  A    between atoms: C_32  and  C_33
REMARK                            x       y       z     vdW  Elec       q    Type
REMARK                         _______ _______ _______ _____ _____    ______ ____
ROOT
ATOM      1  C   UNL     1      -5.330  -4.697  -1.488  0.00  0.00    +0.145 C 
ATOM      2  C   UNL     1      -6.431  -4.559  -2.513  0.00  0.00    +0.076 C 
ATOM      3  C   UNL     1      -6.514  -5.747  -3.158  0.00  0.00    +0.249 C 
ATOM      4  C   UNL     1      -5.508  -6.675  -2.599  0.00  0.00    +0.288 C 
ATOM      5  O   UNL     1      -5.334  -7.819  -2.968  0.00  0.00    -0.266 OA
ATOM      6  N   UNL     1      -4.813  -6.064  -1.620  0.00  0.00    -0.283 N 
ATOM      7  O   UNL     1      -7.381  -6.039  -4.154  0.00  0.00    -0.282 OA
ENDROOT
BRANCH   1  11
ATOM      8  C   UNL     1      -2.224  -1.869  -2.278  0.00  0.00    +0.121 A 
ATOM      9  C   UNL     1      -3.093  -1.668  -1.215  0.00  0.00    +0.046 A 
ATOM     10  C   UNL     1      -4.096  -2.583  -0.962  0.00  0.00    +0.009 A 
ATOM     11  C   UNL     1      -4.235  -3.700  -1.766  0.00  0.00    -0.022 A 
ATOM     12  C   UNL     1      -3.370  -3.902  -2.826  0.00  0.00    +0.009 A 
ATOM     13  C   UNL     1      -2.369  -2.987  -3.087  0.00  0.00    +0.046 A 
BRANCH   8  14
ATOM     14  O   UNL     1      -1.237  -0.970  -2.529  0.00  0.00    -0.488 OA
BRANCH  14  15
ATOM     15  C   UNL     1      -1.148   0.157  -1.655  0.00  0.00    +0.256 C 
BRANCH  15  17
ATOM     16  C   UNL     1      -0.164   2.336  -2.149  0.00  0.00    +0.007 C 
ATOM     17  C   UNL     1      -0.003   1.038  -2.085  0.00  0.00    +0.006 C 
ENDBRANCH  15  17
ENDBRANCH  14  15
ENDBRANCH   8  14
ENDBRANCH   1  11
BRANCH   2  18
ATOM     18  C   UNL     1      -7.250  -3.370  -2.762  0.00  0.00    +0.195 C 
ATOM     19  O   UNL     1      -7.186  -2.801  -3.836  0.00  0.00    -0.287 OA
BRANCH  18  20
ATOM     20  C   UNL     1      -8.154  -2.861  -1.709  0.00  0.00    +0.026 A 
ATOM     21  C   UNL     1      -8.313  -3.573  -0.518  0.00  0.00    +0.012 A 
ATOM     22  C   UNL     1      -9.157  -3.095   0.463  0.00  0.00    +0.004 A 
ATOM     23  C   UNL     1      -9.847  -1.911   0.272  0.00  0.00    +0.046 A 
ATOM     24  C   UNL     1      -9.696  -1.197  -0.909  0.00  0.00    +0.122 A 
ATOM     25  C   UNL     1      -8.847  -1.664  -1.898  0.00  0.00    +0.057 A 
BRANCH  24  26
ATOM     26  O   UNL     1     -10.377  -0.035  -1.092  0.00  0.00    -0.487 OA
BRANCH  26  27
ATOM     27  C   UNL     1     -11.230   0.391  -0.028  0.00  0.00    +0.264 C 
BRANCH  27  28
ATOM     28  C   UNL     1     -11.896   1.688  -0.407  0.00  0.00    -0.010 A 
ATOM     29  C   UNL     1     -11.290   2.892  -0.101  0.00  0.00    +0.010 A 
ATOM     30  C   UNL     1     -11.900   4.082  -0.449  0.00  0.00    +0.039 A 
ATOM     31  C   UNL     1     -13.119   4.069  -1.105  0.00  0.00    +0.123 A 
ATOM     32  C   UNL     1     -13.726   2.862  -1.411  0.00  0.00    +0.039 A 
ATOM     33  C   UNL     1     -13.111   1.673  -1.067  0.00  0.00    +0.010 A 
ATOM     34  F   UNL     1     -13.717   5.232  -1.445  0.00  0.00    -0.205 F 
ENDBRANCH  27  28
ENDBRANCH  26  27
ENDBRANCH  24  26
ENDBRANCH  18  20
ENDBRANCH   2  18
BRANCH   6  35
ATOM     35  C   UNL     1      -3.732  -6.657  -0.829  0.00  0.00    +0.111 C 
BRANCH  35  36
ATOM     36  C   UNL     1      -4.319  -7.323   0.418  0.00  0.00    +0.047 C 
BRANCH  36  37
ATOM     37  C   UNL     1      -3.191  -7.943   1.244  0.00  0.00    +0.157 C 
BRANCH  37  38
ATOM     38  O   UNL     1      -3.739  -8.564   2.408  0.00  0.00    -0.395 OA
ATOM     39  H   UNL     1      -3.079  -8.979   2.981  0.00  0.00    +0.209 HD
ENDBRANCH  37  38
ENDBRANCH  36  37
ENDBRANCH  35  36
ENDBRANCH   6  35
TORSDOF 13
