REMARK  Name = ZINC15938426
REMARK  8 active torsions:
REMARK  status: ('A' for Active; 'I' for Inactive)
REMARK    1  A    between atoms: C_1  and  C_2
REMARK    2  A    between atoms: C_6  and  C_27
REMARK    3  A    between atoms: C_7  and  O_8
REMARK    4  A    between atoms: O_8  and  C_9
REMARK    5  A    between atoms: C_9  and  C_10
REMARK    6  A    between atoms: N_12  and  N_13
REMARK    7  A    between atoms: C_14  and  C_15
REMARK    8  A    between atoms: C_20  and  N_21
REMARK                            x       y       z     vdW  Elec       q    Type
REMARK                         _______ _______ _______ _____ _____    ______ ____
ROOT
ATOM      1  C   UNL     1       0.103   1.679   1.295  0.00  0.00    +0.270 C 
ATOM      2  O   UNL     1      -0.980   2.168   1.048  0.00  0.00    -0.270 OA
ATOM      3  N   UNL     1       1.230   2.365   1.019  0.00  0.00    -0.204 N 
ATOM      4  H   UNL     1       2.096   1.973   1.213  0.00  0.00    +0.177 HD
ENDROOT
BRANCH   3   5
ATOM      5  N   UNL     1       1.151   3.644   0.454  0.00  0.00    -0.188 NA
ATOM      6  C   UNL     1       2.233   4.259   0.087  0.00  0.00    +0.140 C 
BRANCH   6   7
ATOM      7  C   UNL     1       3.522   3.543   0.078  0.00  0.00    +0.028 A 
ATOM      8  C   UNL     1       3.554   2.163  -0.139  0.00  0.00    +0.061 A 
ATOM      9  C   UNL     1       4.765   1.496  -0.151  0.00  0.00    +0.167 A 
ATOM     10  C   UNL     1       5.950   2.199   0.064  0.00  0.00    +0.168 A 
ATOM     11  C   UNL     1       5.917   3.568   0.285  0.00  0.00    +0.083 A 
ATOM     12  C   UNL     1       4.713   4.240   0.294  0.00  0.00    +0.138 A 
ATOM     13  O   UNL     1       6.993   1.319   0.010  0.00  0.00    -0.453 OA
ATOM     14  C   UNL     1       6.474   0.147  -0.646  0.00  0.00    +0.466 C 
ATOM     15  O   UNL     1       5.068   0.178  -0.340  0.00  0.00    -0.453 OA
BRANCH  12  16
ATOM     16  N   UNL     1       4.683   5.701   0.530  0.00  0.00    +0.057 N 
ATOM     17  O   UNL     1       5.710   6.296   0.801  0.00  0.00    -0.126 OA
ATOM     18  O   UNL     1       3.630   6.309   0.453  0.00  0.00    -0.126 OA
ENDBRANCH  12  16
ENDBRANCH   6   7
ENDBRANCH   3   5
BRANCH   1  19
ATOM     19  C   UNL     1       0.187   0.303   1.903  0.00  0.00    +0.326 C 
BRANCH  19  20
ATOM     20  O   UNL     1      -1.131  -0.213   2.099  0.00  0.00    -0.482 OA
BRANCH  20  27
ATOM     21  C   UNL     1      -1.186  -2.411   0.327  0.00  0.00    +0.047 C 
ATOM     22  C   UNL     1      -1.264  -2.572   1.823  0.00  0.00    -0.007 A 
ATOM     23  C   UNL     1      -1.363  -3.833   2.379  0.00  0.00    +0.022 A 
ATOM     24  C   UNL     1      -1.441  -3.981   3.752  0.00  0.00    +0.019 A 
ATOM     25  C   UNL     1      -1.415  -2.867   4.572  0.00  0.00    +0.022 A 
ATOM     26  C   UNL     1      -1.311  -1.604   4.021  0.00  0.00    -0.007 A 
ATOM     27  C   UNL     1      -1.233  -1.454   2.644  0.00  0.00    +0.127 A 
ATOM     28  C   UNL     1      -1.282  -0.391   4.914  0.00  0.00    +0.047 C 
ATOM     29 BR   UNL     1      -1.583  -5.707   4.509  0.00  0.00    -0.050 Br
ENDBRANCH  20  27
ENDBRANCH  19  20
ENDBRANCH   1  19
TORSDOF 6
