REMARK  Name = ZINC56967005
REMARK  5 active torsions:
REMARK  status: ('A' for Active; 'I' for Inactive)
REMARK    1  A    between atoms: C_6  and  C_7
REMARK    2  A    between atoms: C_7  and  C_13
REMARK    3  A    between atoms: C_13  and  N_14
REMARK    4  A    between atoms: C_20  and  C_23
REMARK    5  A    between atoms: C_23  and  O_24
REMARK                            x       y       z     vdW  Elec       q    Type
REMARK                         _______ _______ _______ _____ _____    ______ ____
ROOT
ATOM      1  C   UNL     1      -1.298  -0.779   0.006  0.00  0.00    +0.011 C 
ATOM      2  C   UNL     1      -1.427  -1.558  -1.304  0.00  0.00    +0.013 C 
ATOM      3  C   UNL     1      -2.737  -2.347  -1.301  0.00  0.00    +0.001 C 
ATOM      4  C   UNL     1      -3.915  -1.380  -1.165  0.00  0.00    +0.000 C 
ATOM      5  C   UNL     1      -3.786  -0.600   0.145  0.00  0.00    +0.001 C 
ATOM      6  C   UNL     1      -2.475   0.189   0.142  0.00  0.00    +0.013 C 
ENDROOT
BRANCH   1  12
ATOM      7  C   UNL     1       0.887  -0.152  -1.041  0.00  0.00    +0.008 A 
ATOM      8  C   UNL     1       2.073   0.559  -1.048  0.00  0.00    +0.050 A 
ATOM      9  C   UNL     1       2.368   1.424  -0.008  0.00  0.00    +0.166 A 
ATOM     10  C   UNL     1       1.468   1.576   1.044  0.00  0.00    +0.167 A 
ATOM     11  C   UNL     1       0.282   0.861   1.044  0.00  0.00    +0.053 A 
ATOM     12  C   UNL     1      -0.006  -0.001   0.003  0.00  0.00    -0.036 A 
ATOM     13  O   UNL     1       1.984   2.474   1.933  0.00  0.00    -0.453 OA
ATOM     14  C   UNL     1       3.387   2.562   1.621  0.00  0.00    +0.466 C 
ATOM     15  O   UNL     1       3.448   2.227   0.222  0.00  0.00    -0.453 OA
ENDBRANCH   1  12
BRANCH   1  16
ATOM     16  C   UNL     1      -1.302  -1.756   1.183  0.00  0.00    +0.117 C 
BRANCH  16  17
ATOM     17  N   UNL     1      -0.113  -2.609   1.114  0.00  0.00    -0.298 N 
ATOM     18  C   UNL     1       0.046  -3.616   1.995  0.00  0.00    +0.302 C 
ATOM     19  O   UNL     1      -0.748  -3.760   2.904  0.00  0.00    -0.253 OA
ATOM     20  N   UNL     1       1.085  -4.465   1.868  0.00  0.00    -0.286 N 
ATOM     21  C   UNL     1       2.118  -4.237   0.848  0.00  0.00    +0.109 C 
ATOM     22  C   UNL     1       2.265  -5.506   0.002  0.00  0.00    +0.025 C 
ATOM     23  C   UNL     1       2.542  -6.697   0.922  0.00  0.00    +0.017 C 
ATOM     24  C   UNL     1       1.364  -6.889   1.880  0.00  0.00    +0.025 C 
ATOM     25  C   UNL     1       1.210  -5.633   2.751  0.00  0.00    +0.109 C 
ATOM     26  H   UNL     1       0.561  -2.448   0.434  0.00  0.00    +0.150 HD
BRANCH  23  27
ATOM     27  C   UNL     1       2.724  -7.961   0.078  0.00  0.00    +0.159 C 
BRANCH  27  28
ATOM     28  O   UNL     1       3.097  -9.050   0.925  0.00  0.00    -0.395 OA
ATOM     29  H   UNL     1       3.229  -9.885   0.456  0.00  0.00    +0.209 HD
ENDBRANCH  27  28
ENDBRANCH  23  27
ENDBRANCH  16  17
ENDBRANCH   1  16
TORSDOF 5
