REMARK  Name = ZINC36681598
REMARK  4 active torsions:
REMARK  status: ('A' for Active; 'I' for Inactive)
REMARK    1  A    between atoms: C_3  and  C_10
REMARK    2  A    between atoms: C_5  and  N_7
REMARK    3  A    between atoms: C_11  and  C_12
REMARK    4  A    between atoms: C_18  and  C_20
REMARK                            x       y       z     vdW  Elec       q    Type
REMARK                         _______ _______ _______ _____ _____    ______ ____
ROOT
ATOM      1  C   UNL     1       4.898   4.249  -0.023  0.00  0.00    +0.244 C 
ATOM      2  O   UNL     1       5.959   3.652  -0.037  0.00  0.00    -0.270 OA
ATOM      3  N   UNL     1       4.884   5.597  -0.016  0.00  0.00    -0.235 N 
ATOM      4  C   UNL     1       6.075   6.302  -0.025  0.00  0.00    +0.315 A 
ATOM      5  N   UNL     1       7.282   5.786  -0.044  0.00  0.00    -0.092 NA
ATOM      6  N   UNL     1       8.152   6.734  -0.046  0.00  0.00    -0.106 NA
ATOM      7  C   UNL     1       7.536   7.891  -0.027  0.00  0.00    +0.250 A 
ATOM      8  O   UNL     1       6.208   7.641  -0.019  0.00  0.00    -0.405 OA
ATOM      9  H   UNL     1       4.039   6.073  -0.006  0.00  0.00    +0.160 HD
ENDROOT
BRANCH   7  10
ATOM     10  C   UNL     1       8.175   9.223  -0.022  0.00  0.00    +0.041 A 
ATOM     11  C   UNL     1       7.390  10.377   0.005  0.00  0.00    +0.033 A 
ATOM     12  C   UNL     1       7.994  11.619   0.010  0.00  0.00    +0.043 A 
ATOM     13  C   UNL     1       9.374  11.721  -0.012  0.00  0.00    +0.040 A 
ATOM     14  C   UNL     1      10.158  10.580  -0.040  0.00  0.00    +0.043 A 
ATOM     15  C   UNL     1       9.567   9.332  -0.038  0.00  0.00    +0.033 A 
ATOM     16 CL   UNL     1      11.889  10.718  -0.069  0.00  0.00    -0.083 Cl
ATOM     17 CL   UNL     1       7.020  13.056   0.044  0.00  0.00    -0.083 Cl
ENDBRANCH   7  10
BRANCH   1  19
ATOM     18  C   UNL     1       3.653   2.156  -0.022  0.00  0.00    +0.013 C 
ATOM     19  C   UNL     1       3.639   3.504  -0.015  0.00  0.00    +0.068 C 
BRANCH  18  22
ATOM     20  C   UNL     1      -0.017   1.380   0.010  0.00  0.00    +0.003 A 
ATOM     21  C   UNL     1       1.166   2.089   0.002  0.00  0.00    +0.008 A 
ATOM     22  C   UNL     1       2.386   1.406  -0.013  0.00  0.00    -0.023 A 
ATOM     23  C   UNL     1       2.397   0.008  -0.021  0.00  0.00    +0.040 A 
ATOM     24  C   UNL     1       1.206  -0.687  -0.013  0.00  0.00    +0.127 A 
ATOM     25  C   UNL     1       0.002  -0.004   0.002  0.00  0.00    +0.033 A 
BRANCH  24  26
ATOM     26  N   UNL     1       1.215  -2.167  -0.021  0.00  0.00    +0.056 N 
ATOM     27  O   UNL     1       2.265  -2.765  -0.035  0.00  0.00    -0.126 OA
ATOM     28  O   UNL     1       0.172  -2.778  -0.015  0.00  0.00    -0.126 OA
ENDBRANCH  24  26
ENDBRANCH  18  22
ENDBRANCH   1  19
TORSDOF 4
