REMARK  Name = ZINC02300958
REMARK  7 active torsions:
REMARK  status: ('A' for Active; 'I' for Inactive)
REMARK    1  A    between atoms: C_1  and  N_52
REMARK    2  A    between atoms: C_12  and  C_15
REMARK    3  A    between atoms: C_18  and  O_23
REMARK    4  A    between atoms: C_19  and  O_21
REMARK    5  A    between atoms: O_21  and  C_22
REMARK    6  A    between atoms: O_23  and  C_24
REMARK    7  A    between atoms: C_24  and  C_26
REMARK                            x       y       z     vdW  Elec       q    Type
REMARK                         _______ _______ _______ _____ _____    ______ ____
ROOT
ATOM      1  C   UNL     1      -8.998  -2.143  -8.239  0.00  0.00    -0.096 C 
ATOM      2  C   UNL     1      -9.145  -0.440  -6.524  0.00  0.00    -0.074 C 
ATOM      3  C   UNL     1      -9.755  -0.140  -5.152  0.00  0.00    +0.018 C 
ATOM      4  C   UNL     1      -9.120  -1.081  -4.133  0.00  0.00    -0.027 A 
ATOM      5  C   UNL     1      -8.473  -2.194  -4.552  0.00  0.00    -0.021 A 
ATOM      6  S   UNL     1      -7.902  -2.976  -3.069  0.00  0.00    -0.080 S 
ATOM      7  C   UNL     1      -8.510  -1.856  -1.925  0.00  0.00    +0.080 A 
ATOM      8  C   UNL     1      -9.150  -0.874  -2.696  0.00  0.00    +0.068 A 
ATOM      9  C   UNL     1      -9.780   0.258  -1.978  0.00  0.00    +0.248 C 
ATOM     10  O   UNL     1     -10.449   1.088  -2.566  0.00  0.00    -0.270 OA
ATOM     11  N   UNL     1      -9.581   0.331  -0.647  0.00  0.00    -0.289 N 
ATOM     12  C   UNL     1      -8.604  -0.483   0.069  0.00  0.00    +0.190 C 
ATOM     13  N   UNL     1      -8.455  -1.810  -0.556  0.00  0.00    -0.316 N 
ATOM     14  C   UNL     1      -8.297  -2.640  -5.970  0.00  0.00    -0.036 C 
ATOM     15  H   UNL     1     -10.117   0.959  -0.138  0.00  0.00    +0.151 HD
ATOM     16  H   UNL     1      -8.325  -2.611  -0.024  0.00  0.00    +0.149 HD
ATOM     17  N   UNL     1      -9.261  -1.885  -6.807  0.00  0.00    +0.381 N 
ATOM     18  H   UNL     1     -10.214  -2.194  -6.582  0.00  0.00    -0.082 HD
ENDROOT
BRANCH  12  19
ATOM     19  C   UNL     1      -7.272   0.220   0.059  0.00  0.00    -0.006 A 
ATOM     20  C   UNL     1      -6.103  -0.516   0.103  0.00  0.00    +0.011 A 
ATOM     21  C   UNL     1      -4.878   0.124   0.087  0.00  0.00    +0.050 A 
ATOM     22  C   UNL     1      -4.820   1.508   0.040  0.00  0.00    +0.173 A 
ATOM     23  C   UNL     1      -5.997   2.249  -0.004  0.00  0.00    +0.163 A 
ATOM     24  C   UNL     1      -7.221   1.601   0.005  0.00  0.00    +0.056 A 
BRANCH  23  25
ATOM     25  O   UNL     1      -5.946   3.607  -0.058  0.00  0.00    -0.491 OA
ATOM     26  C   UNL     1      -7.193   4.302  -0.101  0.00  0.00    +0.277 C 
ENDBRANCH  23  25
BRANCH  22  27
ATOM     27  O   UNL     1      -3.616   2.140   0.031  0.00  0.00    -0.418 OA
BRANCH  27  28
ATOM     28  C   UNL     1      -3.128   2.545   1.221  0.00  0.00    +0.351 C 
ATOM     29  O   UNL     1      -3.800   2.423   2.227  0.00  0.00    -0.244 OA
BRANCH  28  30
ATOM     30  C   UNL     1      -1.789   3.131   1.302  0.00  0.00    +0.097 A 
ATOM     31  C   UNL     1      -1.108   3.606   2.413  0.00  0.00    +0.022 A 
ATOM     32  C   UNL     1       0.153   4.106   2.207  0.00  0.00    +0.008 A 
ATOM     33  C   UNL     1       0.664   4.117   0.947  0.00  0.00    +0.046 A 
ATOM     34  S   UNL     1      -0.609   3.424  -0.004  0.00  0.00    -0.090 S 
ENDBRANCH  28  30
ENDBRANCH  27  28
ENDBRANCH  22  27
ENDBRANCH  12  19
TORSDOF 5
