REMARK  Name = ZINC66889937
REMARK  6 active torsions:
REMARK  status: ('A' for Active; 'I' for Inactive)
REMARK    1  A    between atoms: C_1  and  C_2
REMARK    2  A    between atoms: C_3  and  C_7
REMARK    3  A    between atoms: N_9  and  C_10
REMARK    4  A    between atoms: N_13  and  C_16
REMARK    5  A    between atoms: C_16  and  C_18
REMARK    6  A    between atoms: C_16  and  C_19
REMARK                            x       y       z     vdW  Elec       q    Type
REMARK                         _______ _______ _______ _____ _____    ______ ____
ROOT
ATOM      1  C   UNL     1      -4.888  -0.928   0.021  0.00  0.00    +0.070 C 
ATOM      2  C   UNL     1      -5.340  -0.682   1.463  0.00  0.00    +0.004 C 
ATOM      3  C   UNL     1      -6.830  -0.333   1.473  0.00  0.00    -0.076 C 
ATOM      4  N   UNL     1      -7.600  -1.443   0.899  0.00  0.00    +0.384 N 
ATOM      5  C   UNL     1      -7.223  -1.637  -0.506  0.00  0.00    -0.076 C 
ATOM      6  C   UNL     1      -5.749  -2.037  -0.591  0.00  0.00    +0.004 C 
ATOM      7  H   UNL     1      -7.409  -2.287   1.418  0.00  0.00    -0.081 HD
ENDROOT
BRANCH   1  10
ATOM      8  C   UNL     1      -2.508  -0.405   0.012  0.00  0.00    +0.248 C 
ATOM      9  O   UNL     1      -2.798   0.776   0.021  0.00  0.00    -0.270 OA
ATOM     10  N   UNL     1      -3.482  -1.337   0.011  0.00  0.00    -0.309 N 
ATOM     11  H   UNL     1      -3.251  -2.280   0.005  0.00  0.00    +0.149 HD
BRANCH   8  14
ATOM     12  C   UNL     1      -0.018   1.503   0.010  0.00  0.00    +0.087 C 
ATOM     13  C   UNL     1       0.002  -0.004   0.002  0.00  0.00    +0.114 A 
ATOM     14  C   UNL     1      -1.093  -0.817   0.003  0.00  0.00    +0.077 A 
ATOM     15  C   UNL     1      -0.567  -2.190  -0.008  0.00  0.00    +0.054 A 
ATOM     16  C   UNL     1       0.769  -2.073  -0.014  0.00  0.00    +0.196 A 
ATOM     17  O   UNL     1       1.097  -0.771  -0.013  0.00  0.00    -0.467 OA
ENDBRANCH   8  14
ENDBRANCH   1  10
BRANCH   4  18
ATOM     18  C   UNL     1      -9.035  -1.135   0.982  0.00  0.00    -0.040 C 
ATOM     19  C   UNL     1      -9.431  -0.942   2.446  0.00  0.00    -0.008 C 
BRANCH  18  20
ATOM     20  C   UNL     1      -9.827  -2.274   0.393  0.00  0.00    -0.053 A 
ATOM     21  C   UNL     1      -9.303  -3.531   0.367  0.00  0.00    +0.002 A 
ATOM     22  C   UNL     1     -10.021  -4.596  -0.172  0.00  0.00    +0.001 A 
ATOM     23  C   UNL     1     -11.266  -4.411  -0.691  0.00  0.00    +0.008 A 
ATOM     24  C   UNL     1     -11.840  -3.128  -0.682  0.00  0.00    -0.018 A 
ATOM     25  C   UNL     1     -11.112  -2.046  -0.127  0.00  0.00    -0.016 A 
ATOM     26  C   UNL     1     -11.688  -0.764  -0.113  0.00  0.00    +0.009 A 
ATOM     27  C   UNL     1     -12.935  -0.581  -0.625  0.00  0.00    +0.001 A 
ATOM     28  C   UNL     1     -13.653  -1.646  -1.165  0.00  0.00    +0.001 A 
ATOM     29  C   UNL     1     -13.122  -2.899  -1.208  0.00  0.00    +0.008 A 
ENDBRANCH  18  20
ENDBRANCH   4  18
TORSDOF 4
