REMARK  Name = ZINC31053820
REMARK  8 active torsions:
REMARK  status: ('A' for Active; 'I' for Inactive)
REMARK    1  A    between atoms: C_1  and  C_2
REMARK    2  A    between atoms: C_9  and  C_36
REMARK    3  A    between atoms: C_9  and  C_37
REMARK    4  A    between atoms: C_11  and  N_13
REMARK    5  A    between atoms: C_14  and  C_16
REMARK    6  A    between atoms: N_21  and  C_23
REMARK    7  A    between atoms: C_23  and  C_24
REMARK    8  A    between atoms: C_26  and  C_29
REMARK                            x       y       z     vdW  Elec       q    Type
REMARK                         _______ _______ _______ _____ _____    ______ ____
ROOT
ATOM      1  C   UNL     1      -0.025  -2.456   2.860  0.00  0.00    +0.058 C 
ATOM      2  C   UNL     1      -1.031  -1.744   3.768  0.00  0.00    +0.009 C 
ATOM      3  C   UNL     1      -0.814  -0.232   3.671  0.00  0.00    -0.018 C 
ATOM      4  C   UNL     1      -0.963   0.207   2.212  0.00  0.00    -0.078 C 
ATOM      5  N   UNL     1       0.022  -0.501   1.384  0.00  0.00    +0.386 N 
ATOM      6  C   UNL     1      -0.196  -1.953   1.425  0.00  0.00    -0.065 C 
ATOM      7  H   UNL     1       1.019  -0.300   1.803  0.00  0.00    -0.081 HD
ENDROOT
BRANCH   1   9
ATOM      8  N   UNL     1      -0.172  -4.606   4.073  0.00  0.00    -0.308 N 
ATOM      9  C   UNL     1      -0.269  -3.942   2.904  0.00  0.00    +0.215 C 
ATOM     10  O   UNL     1      -0.552  -4.541   1.888  0.00  0.00    -0.276 OA
ATOM     11  H   UNL     1       0.085  -4.063   4.995  0.00  0.00    +0.149 HD
BRANCH   8  22
ATOM     12  C   UNL     1       4.479  -8.777   2.651  0.00  0.00    +0.044 C 
ATOM     13  C   UNL     1       3.205  -8.073   3.042  0.00  0.00    -0.047 A 
ATOM     14  C   UNL     1       2.797  -6.947   2.351  0.00  0.00    +0.004 A 
ATOM     15  C   UNL     1       1.629  -6.303   2.709  0.00  0.00    +0.009 A 
ATOM     16  C   UNL     1       0.861  -6.779   3.758  0.00  0.00    +0.015 A 
ATOM     17  C   UNL     1       1.268  -7.905   4.453  0.00  0.00    +0.126 A 
ATOM     18  C   UNL     1       2.445  -8.552   4.089  0.00  0.00    +0.049 A 
ATOM     19  O   UNL     1       0.549  -8.404   5.492  0.00  0.00    -0.486 OA
ATOM     20  C   UNL     1      -0.809  -7.983   5.627  0.00  0.00    +0.107 C 
ATOM     21  C   UNL     1      -0.854  -6.453   5.525  0.00  0.00    +0.074 C 
ATOM     22  C   UNL     1      -0.409  -6.051   4.116  0.00  0.00    +0.110 C 
ATOM     23  C   UNL     1      -1.354  -8.425   6.986  0.00  0.00    +0.055 C 
ATOM     24  C   UNL     1      -1.653  -8.598   4.508  0.00  0.00    +0.055 C 
ENDBRANCH   8  22
ENDBRANCH   1   9
BRANCH   5  25
ATOM     25  C   UNL     1       0.002  -0.004   0.002  0.00  0.00    +0.022 C 
BRANCH  25  26
ATOM     26  C   UNL     1      -0.018   1.503   0.010  0.00  0.00    +0.211 A 
ATOM     27  N   UNL     1       1.025   2.295   0.005  0.00  0.00    -0.193 NA
ATOM     28  C   UNL     1       0.526   3.552   0.015  0.00  0.00    +0.202 A 
ATOM     29  N   UNL     1      -0.777   3.450   0.027  0.00  0.00    -0.056 NA
ATOM     30  O   UNL     1      -1.104   2.282   0.019  0.00  0.00    -0.340 OA
BRANCH  28  31
ATOM     31  C   UNL     1       1.312   4.811   0.015  0.00  0.00    +0.024 A 
ATOM     32  C   UNL     1       2.704   4.767   0.008  0.00  0.00    +0.012 A 
ATOM     33  C   UNL     1       3.430   5.940   0.004  0.00  0.00    +0.002 A 
ATOM     34  C   UNL     1       2.778   7.160   0.015  0.00  0.00    +0.020 A 
ATOM     35  C   UNL     1       1.395   7.211   0.026  0.00  0.00    +0.042 A 
ATOM     36  C   UNL     1       0.659   6.042   0.027  0.00  0.00    +0.031 A 
ATOM     37 CL   UNL     1       0.584   8.746   0.041  0.00  0.00    -0.084 Cl
ENDBRANCH  28  31
ENDBRANCH  25  26
ENDBRANCH   5  25
TORSDOF 5
