REMARK  Name = ZINC41082495
REMARK  3 active torsions:
REMARK  status: ('A' for Active; 'I' for Inactive)
REMARK    1  A    between atoms: N_11  and  C_12
REMARK    2  A    between atoms: C_15  and  N_21
REMARK    3  A    between atoms: C_17  and  C_18
REMARK                            x       y       z     vdW  Elec       q    Type
REMARK                         _______ _______ _______ _____ _____    ______ ____
ROOT
ATOM      1  C   UNL     1       4.760  -0.112  -0.610  0.00  0.00    +0.047 A 
ATOM      2  C   UNL     1       5.632   0.661   0.147  0.00  0.00    +0.026 A 
ATOM      3  C   UNL     1       6.761   1.199  -0.433  0.00  0.00    +0.024 A 
ATOM      4  C   UNL     1       7.037   0.973  -1.778  0.00  0.00    +0.025 A 
ATOM      5  C   UNL     1       6.179   0.206  -2.545  0.00  0.00    +0.037 A 
ATOM      6  C   UNL     1       5.035  -0.348  -1.966  0.00  0.00    +0.060 A 
ENDROOT
BRANCH   1  17
ATOM      7  C   UNL     1      -0.017   1.379   0.010  0.00  0.00    +0.002 A 
ATOM      8  C   UNL     1       1.167   2.094   0.002  0.00  0.00    +0.002 A 
ATOM      9  C   UNL     1       2.381   1.431  -0.011  0.00  0.00    +0.025 A 
ATOM     10  C   UNL     1       2.406   0.047  -0.017  0.00  0.00    +0.056 A 
ATOM     11  C   UNL     1       1.213  -0.677  -0.014  0.00  0.00    +0.055 A 
ATOM     12  C   UNL     1       0.002  -0.004   0.002  0.00  0.00    +0.025 A 
ATOM     13  N   UNL     1       1.254  -2.076  -0.032  0.00  0.00    -0.283 N 
ATOM     14  C   UNL     1       2.399  -2.734   0.232  0.00  0.00    +0.235 C 
ATOM     15  O   UNL     1       2.424  -3.945   0.168  0.00  0.00    -0.274 OA
ATOM     16  C   UNL     1       3.651  -1.982   0.606  0.00  0.00    +0.207 C 
ATOM     17  N   UNL     1       3.620  -0.654  -0.024  0.00  0.00    -0.289 N 
ATOM     18  H   UNL     1       0.450  -2.577  -0.237  0.00  0.00    +0.155 HD
ENDBRANCH   1  17
BRANCH   6  19
ATOM     19  C   UNL     1       4.118  -1.172  -2.775  0.00  0.00    +0.243 C 
ATOM     20  O   UNL     1       3.121  -1.649  -2.268  0.00  0.00    -0.270 OA
ATOM     21  N   UNL     1       4.386  -1.397  -4.077  0.00  0.00    -0.325 N 
ATOM     22  H   UNL     1       5.181  -1.016  -4.481  0.00  0.00    +0.145 HD
ATOM     23  H   UNL     1       3.783  -1.939  -4.609  0.00  0.00    +0.145 HD
ENDBRANCH   6  19
BRANCH   4  24
ATOM     24  N   UNL     1       8.187   1.524  -2.357  0.00  0.00    -0.358 N 
ATOM     25  H   UNL     1       8.790   2.062  -1.820  0.00  0.00    +0.142 HD
ATOM     26  H   UNL     1       8.381   1.367  -3.294  0.00  0.00    +0.142 HD
ENDBRANCH   4  24
TORSDOF 3
