REMARK  Name = ZINC04724480
REMARK  3 active torsions:
REMARK  status: ('A' for Active; 'I' for Inactive)
REMARK    1  A    between atoms: C_7  and  N_12
REMARK    2  A    between atoms: C_8  and  C_9
REMARK    3  A    between atoms: C_13  and  C_15
REMARK                            x       y       z     vdW  Elec       q    Type
REMARK                         _______ _______ _______ _____ _____    ______ ____
ROOT
ATOM      1  C   UNL     1       4.783   2.887  -0.535  0.00  0.00    +0.001 C 
ATOM      2  C   UNL     1       4.511   1.804   0.508  0.00  0.00    +0.005 C 
ATOM      3  C   UNL     1       3.802   0.615  -0.130  0.00  0.00    +0.037 C 
ATOM      4  C   UNL     1       2.293   0.815  -0.065  0.00  0.00    -0.023 A 
ATOM      5  C   UNL     1       1.723   2.038  -0.018  0.00  0.00    -0.004 A 
ATOM      6  S   UNL     1      -0.021   1.728   0.016  0.00  0.00    -0.077 S 
ATOM      7  C   UNL     1       0.002  -0.004  -0.024  0.00  0.00    +0.084 A 
ATOM      8  C   UNL     1       1.355  -0.300  -0.064  0.00  0.00    +0.068 A 
ATOM      9  C   UNL     1       2.409   3.368   0.011  0.00  0.00    +0.043 C 
ATOM     10  C   UNL     1       3.468   3.415  -1.099  0.00  0.00    +0.005 C 
ENDROOT
BRANCH   8  11
ATOM     11  C   UNL     1       1.827  -1.687  -0.105  0.00  0.00    +0.244 C 
ATOM     12  O   UNL     1       1.996  -2.242  -1.175  0.00  0.00    -0.270 OA
ATOM     13  N   UNL     1       2.073  -2.349   1.044  0.00  0.00    -0.325 N 
ATOM     14  H   UNL     1       1.938  -1.907   1.896  0.00  0.00    +0.145 HD
ATOM     15  H   UNL     1       2.385  -3.267   1.017  0.00  0.00    +0.145 HD
ENDBRANCH   8  11
BRANCH   7  16
ATOM     16  N   UNL     1      -1.073  -0.880  -0.016  0.00  0.00    -0.279 N 
ATOM     17  C   UNL     1      -2.332  -0.403   0.026  0.00  0.00    +0.225 C 
ATOM     18  O   UNL     1      -2.526   0.794   0.057  0.00  0.00    -0.275 OA
ATOM     19  H   UNL     1      -0.918  -1.838  -0.042  0.00  0.00    +0.155 HD
BRANCH  17  20
ATOM     20  C   UNL     1      -3.500  -1.355   0.034  0.00  0.00    +0.129 C 
ATOM     21  C   UNL     1      -4.666  -0.792   0.878  0.00  0.00    +0.137 C 
ATOM     22  C   UNL     1      -5.668  -0.284  -0.136  0.00  0.00    +0.308 C 
ATOM     23  O   UNL     1      -6.742   0.200   0.131  0.00  0.00    -0.251 OA
ATOM     24  O   UNL     1      -5.185  -0.452  -1.377  0.00  0.00    -0.457 OA
ATOM     25  C   UNL     1      -4.136  -1.458  -1.366  0.00  0.00    +0.125 C 
ATOM     26  C   UNL     1      -4.727  -2.849  -1.569  0.00  0.00    +0.049 C 
ATOM     27  C   UNL     1      -5.367  -2.936  -2.957  0.00  0.00    +0.004 C 
ATOM     28  C   UNL     1      -4.308  -2.653  -4.025  0.00  0.00    +0.000 C 
ATOM     29  C   UNL     1      -3.739  -1.247  -3.821  0.00  0.00    +0.004 C 
ATOM     30  C   UNL     1      -3.093  -1.155  -2.437  0.00  0.00    +0.049 C 
ENDBRANCH  17  20
ENDBRANCH   7  16
TORSDOF 3
