REMARK  Name = ZINC09380004
REMARK  7 active torsions:
REMARK  status: ('A' for Active; 'I' for Inactive)
REMARK    1  A    between atoms: C_1  and  C_2
REMARK    2  A    between atoms: C_2  and  C_3
REMARK    3  A    between atoms: C_2  and  C_4
REMARK    4  A    between atoms: C_2  and  C_5
REMARK    5  A    between atoms: N_16  and  C_29
REMARK    6  A    between atoms: N_19  and  N_20
REMARK    7  A    between atoms: C_21  and  C_22
REMARK                            x       y       z     vdW  Elec       q    Type
REMARK                         _______ _______ _______ _____ _____    ______ ____
ROOT
ATOM      1  C   UNL     1       6.190  -0.857   2.121  0.00  0.00    -0.000 C 
ATOM      2  C   UNL     1       4.986  -1.284   2.965  0.00  0.00    +0.009 C 
ATOM      3  C   UNL     1       3.751  -1.425   2.074  0.00  0.00    +0.037 C 
ATOM      4  C   UNL     1       3.572  -0.139   1.274  0.00  0.00    -0.023 A 
ATOM      5  C   UNL     1       4.595   0.727   1.123  0.00  0.00    -0.004 A 
ATOM      6  S   UNL     1       3.937   2.049   0.141  0.00  0.00    -0.073 S 
ATOM      7  C   UNL     1       2.285   1.433  -0.064  0.00  0.00    +0.118 A 
ATOM      8  C   UNL     1       2.301   0.217   0.639  0.00  0.00    +0.076 A 
ATOM      9  C   UNL     1       1.072  -0.516   0.645  0.00  0.00    +0.268 A 
ATOM     10  O   UNL     1       0.992  -1.583   1.230  0.00  0.00    -0.266 OA
ATOM     11  N   UNL     1       0.007  -0.012  -0.004  0.00  0.00    -0.247 N 
ATOM     12  C   UNL     1       0.080   1.181  -0.666  0.00  0.00    +0.224 A 
ATOM     13  N   UNL     1       1.199   1.876  -0.686  0.00  0.00    -0.207 NA
ATOM     14  N   UNL     1      -1.027   1.661  -1.323  0.00  0.00    -0.206 N 
ATOM     15  C   UNL     1       5.984   0.595   1.668  0.00  0.00    +0.046 C 
ATOM     16  H   UNL     1      -1.831   1.122  -1.375  0.00  0.00    +0.177 HD
ENDROOT
BRANCH  11  17
ATOM     17  C   UNL     1      -1.200  -0.725  -0.003  0.00  0.00    +0.053 A 
ATOM     18  C   UNL     1      -2.139  -0.499   0.994  0.00  0.00    +0.026 A 
ATOM     19  C   UNL     1      -3.330  -1.198   0.989  0.00  0.00    +0.002 A 
ATOM     20  C   UNL     1      -3.582  -2.131  -0.001  0.00  0.00    +0.000 A 
ATOM     21  C   UNL     1      -2.646  -2.362  -0.991  0.00  0.00    +0.002 A 
ATOM     22  C   UNL     1      -1.455  -1.662  -0.995  0.00  0.00    +0.026 A 
ENDBRANCH  11  17
BRANCH   1  24
ATOM     23  C   UNL     1       7.340  -0.054   4.188  0.00  0.00    +0.011 C 
ATOM     24  C   UNL     1       7.466  -0.957   2.960  0.00  0.00    -0.035 C 
ATOM     25  C   UNL     1       7.669  -2.405   3.409  0.00  0.00    +0.011 C 
ATOM     26  C   UNL     1       8.665  -0.511   2.120  0.00  0.00    +0.011 C 
ENDBRANCH   1  24
BRANCH  14  27
ATOM     27  N   UNL     1      -0.994   2.929  -1.918  0.00  0.00    -0.188 NA
ATOM     28  C   UNL     1      -2.039   3.382  -2.539  0.00  0.00    +0.138 C 
BRANCH  28  29
ATOM     29  C   UNL     1      -2.004   4.717  -3.165  0.00  0.00    -0.005 A 
ATOM     30  C   UNL     1      -0.849   5.498  -3.087  0.00  0.00    +0.011 A 
ATOM     31  C   UNL     1      -0.821   6.743  -3.681  0.00  0.00    +0.020 A 
ATOM     32  C   UNL     1      -1.938   7.223  -4.342  0.00  0.00    +0.041 A 
ATOM     33  C   UNL     1      -3.089   6.456  -4.418  0.00  0.00    +0.020 A 
ATOM     34  C   UNL     1      -3.128   5.207  -3.834  0.00  0.00    +0.011 A 
ATOM     35 CL   UNL     1      -1.897   8.794  -5.080  0.00  0.00    -0.084 Cl
ENDBRANCH  28  29
ENDBRANCH  14  27
TORSDOF 4
