REMARK  Name = ZINC07873052
REMARK  14 active torsions:
REMARK  status: ('A' for Active; 'I' for Inactive)
REMARK    1  A    between atoms: C_1  and  C_2
REMARK    2  A    between atoms: C_2  and  C_3
REMARK    3  A    between atoms: C_6  and  C_9
REMARK    4  A    between atoms: C_9  and  C_11
REMARK    5  A    between atoms: C_9  and  N_14
REMARK    6  A    between atoms: C_11  and  C_12
REMARK    7  A    between atoms: C_11  and  C_13
REMARK    8  A    between atoms: N_14  and  C_15
REMARK    9  A    between atoms: C_15  and  C_16
REMARK   10  A    between atoms: N_18  and  C_19
REMARK   11  A    between atoms: C_21  and  N_27
REMARK   12  A    between atoms: C_24  and  O_25
REMARK   13  A    between atoms: O_25  and  C_26
REMARK   14  A    between atoms: C_28  and  C_30
REMARK                            x       y       z     vdW  Elec       q    Type
REMARK                         _______ _______ _______ _____ _____    ______ ____
ROOT
ATOM      1  C   UNL     1      -8.419  -1.117  -2.016  0.00  0.00    +0.200 C 
ATOM      2  O   UNL     1      -7.856  -0.369  -2.787  0.00  0.00    -0.278 OA
ATOM      3  N   UNL     1      -9.748  -1.313  -2.118  0.00  0.00    -0.284 N 
ATOM      4  H   UNL     1     -10.188  -1.961  -1.546  0.00  0.00    +0.155 HD
ENDROOT
BRANCH   3   5
ATOM      5  C   UNL     1     -10.496  -0.580  -3.049  0.00  0.00    +0.077 A 
ATOM      6  C   UNL     1      -9.939  -0.240  -4.273  0.00  0.00    +0.050 A 
ATOM      7  C   UNL     1     -10.681   0.486  -5.193  0.00  0.00    +0.035 A 
ATOM      8  C   UNL     1     -11.980   0.871  -4.889  0.00  0.00    +0.027 A 
ATOM      9  C   UNL     1     -12.536   0.533  -3.670  0.00  0.00    +0.049 A 
ATOM     10  C   UNL     1     -11.801  -0.196  -2.750  0.00  0.00    +0.141 A 
BRANCH   7  11
ATOM     11  N   UNL     1     -10.120   0.830  -6.430  0.00  0.00    -0.286 N 
ATOM     12  C   UNL     1     -10.917   1.044  -7.496  0.00  0.00    +0.214 C 
ATOM     13  O   UNL     1     -12.109   0.836  -7.413  0.00  0.00    -0.276 OA
ATOM     14  C   UNL     1     -10.327   1.542  -8.790  0.00  0.00    +0.109 C 
ATOM     15  H   UNL     1      -9.158   0.915  -6.519  0.00  0.00    +0.155 HD
ENDBRANCH   7  11
BRANCH  10  16
ATOM     16  O   UNL     1     -12.352  -0.533  -1.552  0.00  0.00    -0.493 OA
ATOM     17  C   UNL     1     -13.694  -0.107  -1.313  0.00  0.00    +0.277 C 
ENDBRANCH  10  16
ENDBRANCH   3   5
BRANCH   1  18
ATOM     18  C   UNL     1      -7.632  -1.827  -0.945  0.00  0.00    +0.016 C 
BRANCH  18  19
ATOM     19  N   UNL     1      -6.216  -1.448  -1.045  0.00  0.00    +0.389 N 
ATOM     20  H   UNL     1      -6.126  -0.450  -0.923  0.00  0.00    -0.084 HD
ATOM     21  H   UNL     1      -5.861  -1.710  -1.952  0.00  0.00    -0.084 HD
BRANCH  19  22
ATOM     22  C   UNL     1      -5.449  -2.140  -0.000  0.00  0.00    -0.038 C 
BRANCH  22  26
ATOM     23  C   UNL     1      -1.401  -0.779  -0.067  0.00  0.00    -0.048 A 
ATOM     24  C   UNL     1      -2.035  -1.004   1.141  0.00  0.00    +0.004 A 
ATOM     25  C   UNL     1      -3.345  -1.444   1.162  0.00  0.00    +0.002 A 
ATOM     26  C   UNL     1      -4.021  -1.659  -0.024  0.00  0.00    -0.061 A 
ATOM     27  C   UNL     1      -3.388  -1.434  -1.232  0.00  0.00    +0.002 A 
ATOM     28  C   UNL     1      -2.079  -0.990  -1.253  0.00  0.00    +0.004 A 
BRANCH  23  30
ATOM     29  C   UNL     1       0.052   1.230  -0.079  0.00  0.00    +0.009 C 
ATOM     30  C   UNL     1       0.028  -0.299  -0.091  0.00  0.00    +0.032 C 
ENDBRANCH  23  30
ENDBRANCH  22  26
BRANCH  22  31
ATOM     31  C   UNL     1      -5.484  -3.648  -0.257  0.00  0.00    -0.027 C 
ATOM     32  C   UNL     1      -4.757  -3.959  -1.566  0.00  0.00    +0.006 C 
ATOM     33  C   UNL     1      -4.792  -4.377   0.897  0.00  0.00    +0.006 C 
ENDBRANCH  22  31
ENDBRANCH  19  22
ENDBRANCH  18  19
ENDBRANCH   1  18
TORSDOF 9
