REMARK  Name = ZINC67617551
REMARK  8 active torsions:
REMARK  status: ('A' for Active; 'I' for Inactive)
REMARK    1  A    between atoms: C_1  and  C_2
REMARK    2  A    between atoms: C_2  and  C_4
REMARK    3  A    between atoms: C_2  and  N_11
REMARK    4  A    between atoms: N_14  and  C_15
REMARK    5  A    between atoms: N_14  and  C_16
REMARK    6  A    between atoms: C_16  and  C_18
REMARK    7  A    between atoms: C_16  and  C_19
REMARK    8  A    between atoms: C_23  and  O_25
REMARK                            x       y       z     vdW  Elec       q    Type
REMARK                         _______ _______ _______ _____ _____    ______ ____
ROOT
ATOM      1  N   UNL     1       0.716  -0.475   1.195  0.00  0.00    -0.293 N 
ATOM      2  C   UNL     1       0.059  -0.617   2.363  0.00  0.00    +0.303 C 
ATOM      3  O   UNL     1      -1.118  -0.322   2.439  0.00  0.00    -0.253 OA
ATOM      4  N   UNL     1       0.708  -1.086   3.448  0.00  0.00    -0.282 N 
ATOM      5  C   UNL     1       2.126  -1.441   3.357  0.00  0.00    +0.134 C 
ATOM      6  H   UNL     1       1.655  -0.711   1.134  0.00  0.00    +0.151 HD
ENDROOT
BRANCH   1   8
ATOM      7  C   UNL     1       0.020   1.564   0.038  0.00  0.00    +0.033 C 
ATOM      8  C   UNL     1       0.011   0.034   0.016  0.00  0.00    +0.102 C 
BRANCH   8   9
ATOM      9  C   UNL     1       0.701  -0.454  -1.232  0.00  0.00    -0.026 A 
ATOM     10  C   UNL     1       2.082  -0.501  -1.285  0.00  0.00    +0.005 A 
ATOM     11  C   UNL     1       2.715  -0.950  -2.429  0.00  0.00    +0.001 A 
ATOM     12  C   UNL     1       1.968  -1.351  -3.521  0.00  0.00    +0.015 A 
ATOM     13  C   UNL     1       0.586  -1.304  -3.468  0.00  0.00    +0.018 A 
ATOM     14  C   UNL     1      -0.047  -0.861  -2.321  0.00  0.00    +0.020 A 
ATOM     15 BR   UNL     1      -0.436  -1.852  -4.961  0.00  0.00    -0.050 Br
ENDBRANCH   8   9
ENDBRANCH   1   8
BRANCH   4  16
ATOM     16  C   UNL     1      -0.006  -1.240   4.718  0.00  0.00    +0.104 C 
ATOM     17  C   UNL     1       0.164  -2.672   5.228  0.00  0.00    +0.033 C 
BRANCH  16  18
ATOM     18  C   UNL     1       0.557  -0.276   5.731  0.00  0.00    -0.024 A 
ATOM     19  C   UNL     1      -0.282   0.603   6.389  0.00  0.00    +0.006 A 
ATOM     20  C   UNL     1       0.231   1.488   7.319  0.00  0.00    +0.004 A 
ATOM     21  C   UNL     1       1.586   1.497   7.592  0.00  0.00    +0.045 A 
ATOM     22  C   UNL     1       2.430   0.615   6.933  0.00  0.00    +0.117 A 
ATOM     23  C   UNL     1       1.911  -0.276   6.005  0.00  0.00    +0.050 A 
BRANCH  22  24
ATOM     24  O   UNL     1       3.763   0.621   7.199  0.00  0.00    -0.507 OA
ATOM     25  H   UNL     1       4.023   0.026   7.915  0.00  0.00    +0.292 HD
ENDBRANCH  22  24
ENDBRANCH  16  18
ENDBRANCH   4  16
TORSDOF 5
