REMARK  Name = ZINC13496059
REMARK  7 active torsions:
REMARK  status: ('A' for Active; 'I' for Inactive)
REMARK    1  A    between atoms: C_1  and  C_2
REMARK    2  A    between atoms: C_4  and  C_37
REMARK    3  A    between atoms: C_9  and  C_14
REMARK    4  A    between atoms: C_14  and  C_16
REMARK    5  A    between atoms: C_14  and  N_66
REMARK    6  A    between atoms: N_20  and  C_21
REMARK    7  A    between atoms: C_21  and  C_22
REMARK                            x       y       z     vdW  Elec       q    Type
REMARK                         _______ _______ _______ _____ _____    ______ ____
ROOT
ATOM      1  C   UNL     1      -2.490   0.996   0.018  0.00  0.00    +0.039 C 
ENDROOT
BRANCH   1  10
ATOM      2  C   UNL     1       4.963   1.249  -0.039  0.00  0.00    +0.044 C 
ATOM      3  C   UNL     1       3.624   1.942  -0.022  0.00  0.00    -0.050 A 
ATOM      4  C   UNL     1       3.567   3.329  -0.014  0.00  0.00    +0.008 A 
ATOM      5  C   UNL     1       2.354   3.983   0.001  0.00  0.00    -0.026 A 
ATOM      6  C   UNL     1       1.174   3.247   0.008  0.00  0.00    +0.052 A 
ATOM      7  C   UNL     1       1.236   1.841   0.000  0.00  0.00    -0.001 A 
ATOM      8  C   UNL     1       2.478   1.199  -0.015  0.00  0.00    +0.013 A 
ATOM      9  C   UNL     1      -0.013   1.076   0.008  0.00  0.00    +0.017 A 
ATOM     10  C   UNL     1      -1.187   1.753   0.017  0.00  0.00    +0.011 A 
ATOM     11  C   UNL     1      -1.194   3.164   0.031  0.00  0.00    +0.251 A 
ATOM     12  O   UNL     1      -2.261   3.753   0.046  0.00  0.00    -0.268 OA
ATOM     13  N   UNL     1      -0.053   3.875   0.024  0.00  0.00    -0.322 N 
ATOM     14  H   UNL     1      -0.094   4.845   0.029  0.00  0.00    +0.169 HD
ATOM     15  C   UNL     1       2.308   5.489   0.009  0.00  0.00    +0.046 C 
ENDBRANCH   1  10
BRANCH   1  22
ATOM     16  C   UNL     1      -2.534   1.370   2.419  0.00  0.00    -0.077 C 
ATOM     17  C   UNL     1      -3.395   1.541   3.642  0.00  0.00    -0.019 C 
ATOM     18  C   UNL     1      -3.803   0.143   4.152  0.00  0.00    -0.002 C 
ATOM     19  C   UNL     1      -4.890  -0.433   3.369  0.00  0.00    -0.002 C 
ATOM     20  C   UNL     1      -4.503  -0.625   1.888  0.00  0.00    -0.019 C 
ATOM     21  C   UNL     1      -4.598   0.706   1.193  0.00  0.00    -0.077 C 
ATOM     22  N   UNL     1      -3.312   1.481   1.139  0.00  0.00    +0.389 N 
ATOM     23  H   UNL     1      -3.537   2.470   0.981  0.00  0.00    -0.080 HD
ENDBRANCH   1  22
BRANCH   1  24
ATOM     24  C   UNL     1      -3.232   1.270  -1.264  0.00  0.00    +0.143 A 
ATOM     25  N   UNL     1      -3.875   2.368  -1.577  0.00  0.00    -0.115 NA
ATOM     26  N   UNL     1      -4.375   2.216  -2.755  0.00  0.00    -0.023 NA
ATOM     27  N   UNL     1      -4.066   1.048  -3.202  0.00  0.00    -0.044 NA
ATOM     28  N   UNL     1      -3.358   0.436  -2.314  0.00  0.00    -0.226 N 
BRANCH  28  29
ATOM     29  C   UNL     1      -2.798  -0.913  -2.425  0.00  0.00    +0.182 C 
BRANCH  29  30
ATOM     30  C   UNL     1      -3.791  -1.914  -1.894  0.00  0.00    -0.022 A 
ATOM     31  C   UNL     1      -4.723  -2.480  -2.745  0.00  0.00    +0.009 A 
ATOM     32  C   UNL     1      -5.635  -3.399  -2.262  0.00  0.00    +0.050 A 
ATOM     33  C   UNL     1      -5.619  -3.756  -0.924  0.00  0.00    +0.166 A 
ATOM     34  C   UNL     1      -4.680  -3.186  -0.067  0.00  0.00    +0.167 A 
ATOM     35  C   UNL     1      -3.765  -2.269  -0.558  0.00  0.00    +0.055 A 
ATOM     36  O   UNL     1      -4.868  -3.694   1.186  0.00  0.00    -0.453 OA
ATOM     37  C   UNL     1      -5.661  -4.882   1.004  0.00  0.00    +0.466 C 
ATOM     38  O   UNL     1      -6.394  -4.621  -0.208  0.00  0.00    -0.453 OA
ENDBRANCH  29  30
ENDBRANCH  28  29
ENDBRANCH   1  24
TORSDOF 5
