REMARK  Name = ZINC65227837
REMARK  6 active torsions:
REMARK  status: ('A' for Active; 'I' for Inactive)
REMARK    1  A    between atoms: C_1  and  C_2
REMARK    2  A    between atoms: C_6  and  C_8
REMARK    3  A    between atoms: C_8  and  N_9
REMARK    4  A    between atoms: C_10  and  C_12
REMARK    5  A    between atoms: C_20  and  C_25
REMARK    6  A    between atoms: C_27  and  C_30
REMARK                            x       y       z     vdW  Elec       q    Type
REMARK                         _______ _______ _______ _____ _____    ______ ____
ROOT
ATOM      1  C   UNL     1       3.110  -3.946   4.486  0.00  0.00    +0.092 C 
ATOM      2  C   UNL     1       3.821  -4.767   3.408  0.00  0.00    +0.016 C 
ATOM      3  C   UNL     1       5.278  -4.995   3.817  0.00  0.00    +0.020 C 
ATOM      4  C   UNL     1       5.319  -5.782   5.130  0.00  0.00    +0.106 C 
ATOM      5  N   UNL     1       4.515  -5.070   6.133  0.00  0.00    -0.315 N 
ATOM      6  C   UNL     1       3.126  -4.720   5.807  0.00  0.00    +0.119 C 
ATOM      7  C   UNL     1       5.057  -4.735   7.365  0.00  0.00    +0.110 A 
ATOM      8  C   UNL     1       4.883  -5.594   8.460  0.00  0.00    +0.060 A 
ATOM      9  C   UNL     1       5.436  -5.237   9.690  0.00  0.00    +0.016 A 
ATOM     10  C   UNL     1       6.137  -4.045   9.776  0.00  0.00    +0.018 A 
ATOM     11  C   UNL     1       6.267  -3.250   8.653  0.00  0.00    +0.084 A 
ATOM     12  N   UNL     1       5.740  -3.609   7.498  0.00  0.00    -0.349 N 
ATOM     13  H   UNL     1       5.852  -3.031   6.727  0.00  0.00    +0.167 HD
ENDROOT
BRANCH   8  14
ATOM     14  C   UNL     1       4.123  -6.858   8.313  0.00  0.00    +0.205 A 
ATOM     15  N   UNL     1       3.798  -7.699   9.312  0.00  0.00    -0.191 NA
ATOM     16  C   UNL     1       3.130  -8.713   8.841  0.00  0.00    +0.231 A 
ATOM     17  O   UNL     1       3.001  -8.560   7.517  0.00  0.00    -0.337 OA
ATOM     18  N   UNL     1       3.650  -7.341   7.190  0.00  0.00    -0.056 NA
BRANCH  16  19
ATOM     19  C   UNL     1       2.594  -9.866   9.651  0.00  0.00    +0.078 C 
ATOM     20  C   UNL     1       2.688 -11.221   8.930  0.00  0.00    +0.013 C 
ATOM     21  C   UNL     1       1.299 -11.537   9.508  0.00  0.00    +0.001 C 
ATOM     22  C   UNL     1       1.066 -10.018   9.569  0.00  0.00    +0.013 C 
ENDBRANCH  16  19
ENDBRANCH   8  14
BRANCH   1  24
ATOM     23  N   UNL     1       1.425  -3.026   2.925  0.00  0.00    -0.311 N 
ATOM     24  C   UNL     1       1.684  -3.694   4.067  0.00  0.00    +0.218 C 
ATOM     25  O   UNL     1       0.770  -4.093   4.757  0.00  0.00    -0.275 OA
ATOM     26  H   UNL     1       2.156  -2.707   2.374  0.00  0.00    +0.149 HD
BRANCH  23  27
ATOM     27  C   UNL     1       0.039  -2.781   2.519  0.00  0.00    +0.139 C 
BRANCH  27  33
ATOM     28  C   UNL     1       0.003   1.566   0.040  0.00  0.00    +0.044 C 
ATOM     29  C   UNL     1       0.006   0.059   0.032  0.00  0.00    -0.050 A 
ATOM     30  C   UNL     1      -0.005  -0.625  -1.169  0.00  0.00    +0.003 A 
ATOM     31  C   UNL     1      -0.002  -2.008  -1.177  0.00  0.00    +0.001 A 
ATOM     32  C   UNL     1       0.012  -2.705   0.017  0.00  0.00    +0.005 A 
ATOM     33  C   UNL     1       0.024  -2.021   1.218  0.00  0.00    -0.030 A 
ATOM     34  C   UNL     1       0.025  -0.638   1.225  0.00  0.00    +0.008 A 
ENDBRANCH  27  33
ENDBRANCH  23  27
ENDBRANCH   1  24
TORSDOF 5
