REMARK  Name = ZINC36053688
REMARK  12 active torsions:
REMARK  status: ('A' for Active; 'I' for Inactive)
REMARK    1  A    between atoms: C_1  and  C_2
REMARK    2  A    between atoms: C_2  and  N_3
REMARK    3  A    between atoms: N_3  and  C_4
REMARK    4  A    between atoms: C_4  and  C_5
REMARK    5  A    between atoms: C_6  and  C_8
REMARK    6  A    between atoms: C_9  and  C_35
REMARK    7  A    between atoms: C_13  and  C_15
REMARK    8  A    between atoms: C_18  and  N_21
REMARK    9  A    between atoms: C_24  and  C_27
REMARK   10  A    between atoms: C_28  and  N_30
REMARK   11  A    between atoms: N_30  and  C_31
REMARK   12  A    between atoms: C_31  and  C_32
REMARK                            x       y       z     vdW  Elec       q    Type
REMARK                         _______ _______ _______ _____ _____    ______ ____
ROOT
ATOM      1  C   UNL     1      -3.413  -0.973   1.184  0.00  0.00    +0.060 C 
ATOM      2  C   UNL     1      -4.200  -1.276   2.275  0.00  0.00    +0.051 C 
ATOM      3  N   UNL     1      -5.405  -1.801   2.109  0.00  0.00    -0.230 NA
ATOM      4  C   UNL     1      -5.951  -2.073   0.943  0.00  0.00    +0.166 C 
ATOM      5  N   UNL     1      -5.337  -1.847  -0.258  0.00  0.00    -0.267 N 
ATOM      6  C   UNL     1      -3.976  -1.252  -0.192  0.00  0.00    +0.148 C 
ATOM      7  C   UNL     1      -6.042  -2.186  -1.396  0.00  0.00    +0.048 C 
ATOM      8  C   UNL     1      -7.276  -2.712  -1.235  0.00  0.00    +0.072 C 
ATOM      9  S   UNL     1      -7.442  -2.729   0.539  0.00  0.00    -0.060 S 
ATOM     10  C   UNL     1      -3.686  -1.010   3.667  0.00  0.00    +0.066 C 
ENDROOT
BRANCH   6  11
ATOM     11  C   UNL     1      -3.030  -2.190  -0.898  0.00  0.00    -0.022 A 
ATOM     12  C   UNL     1      -2.068  -1.686  -1.753  0.00  0.00    +0.008 A 
ATOM     13  C   UNL     1      -1.200  -2.546  -2.401  0.00  0.00    +0.033 A 
ATOM     14  C   UNL     1      -1.295  -3.909  -2.193  0.00  0.00    +0.126 A 
ATOM     15  C   UNL     1      -2.257  -4.413  -1.337  0.00  0.00    +0.033 A 
ATOM     16  C   UNL     1      -3.121  -3.553  -0.686  0.00  0.00    +0.008 A 
BRANCH  14  17
ATOM     17  N   UNL     1      -0.367  -4.830  -2.887  0.00  0.00    +0.056 N 
ATOM     18  O   UNL     1       0.474  -4.390  -3.636  0.00  0.00    -0.126 OA
ATOM     19  O   UNL     1      -0.450  -6.022  -2.705  0.00  0.00    -0.126 OA
ENDBRANCH  14  17
ENDBRANCH   6  11
BRANCH   1  21
ATOM     20  N   UNL     1      -1.998   0.905   1.572  0.00  0.00    -0.298 N 
ATOM     21  C   UNL     1      -2.135  -0.416   1.344  0.00  0.00    +0.246 C 
ATOM     22  O   UNL     1      -1.147  -1.129   1.278  0.00  0.00    -0.270 OA
BRANCH  20  24
ATOM     23  C   UNL     1      -0.158   1.462   3.083  0.00  0.00    +0.024 C 
ATOM     24  C   UNL     1      -0.663   1.502   1.639  0.00  0.00    +0.104 C 
ENDBRANCH  20  24
BRANCH  20  25
ATOM     25  C   UNL     1      -3.186   1.743   1.753  0.00  0.00    +0.104 C 
ATOM     26  C   UNL     1      -3.563   2.388   0.417  0.00  0.00    +0.024 C 
ENDBRANCH  20  25
ENDBRANCH   1  21
BRANCH   7  27
ATOM     27  C   UNL     1      -5.470  -1.982  -2.735  0.00  0.00    +0.091 C 
ATOM     28  C   UNL     1      -6.229  -2.183  -3.829  0.00  0.00    +0.239 C 
ATOM     29  O   UNL     1      -7.554  -2.438  -3.697  0.00  0.00    -0.271 OA
BRANCH  28  30
ATOM     30  N   UNL     1      -5.656  -2.129  -5.088  0.00  0.00    -0.312 N 
ATOM     31  H   UNL     1      -4.697  -2.020  -5.180  0.00  0.00    +0.149 HD
BRANCH  30  32
ATOM     32  C   UNL     1      -6.499  -2.238  -6.282  0.00  0.00    +0.108 C 
BRANCH  32  33
ATOM     33  C   UNL     1      -5.614  -2.275  -7.529  0.00  0.00    +0.006 C 
ATOM     34  C   UNL     1      -5.749  -1.122  -8.526  0.00  0.00    +0.005 C 
ATOM     35  C   UNL     1      -6.301  -2.505  -8.877  0.00  0.00    +0.005 C 
ENDBRANCH  32  33
ENDBRANCH  30  32
ENDBRANCH  28  30
ENDBRANCH   7  27
TORSDOF 9
