REMARK  Name = ZINC13517411
REMARK  9 active torsions:
REMARK  status: ('A' for Active; 'I' for Inactive)
REMARK    1  A    between atoms: C_1  and  C_2
REMARK    2  A    between atoms: C_2  and  C_3
REMARK    3  A    between atoms: C_3  and  C_4
REMARK    4  A    between atoms: C_6  and  C_29
REMARK    5  A    between atoms: C_8  and  C_23
REMARK    6  A    between atoms: C_10  and  C_22
REMARK    7  A    between atoms: C_12  and  C_13
REMARK    8  A    between atoms: C_12  and  O_21
REMARK    9  A    between atoms: C_14  and  C_15
REMARK                            x       y       z     vdW  Elec       q    Type
REMARK                         _______ _______ _______ _____ _____    ______ ____
ROOT
ATOM      1  C   UNL     1       0.061   1.633  -2.413  0.00  0.00    +0.023 C 
ATOM      2  C   UNL     1      -1.129   2.404  -1.837  0.00  0.00    -0.033 C 
ATOM      3  C   UNL     1       0.045   2.765   0.253  0.00  0.00    -0.034 C 
ATOM      4  C   UNL     1       1.269   2.005  -0.262  0.00  0.00    +0.020 C 
ATOM      5  C   UNL     1       0.820   0.948  -1.274  0.00  0.00    +0.130 C 
ATOM      6  C   UNL     1       1.977   1.322   0.910  0.00  0.00    +0.010 C 
ATOM      7  N   UNL     1      -0.648   3.415  -0.876  0.00  0.00    +0.389 N 
ATOM      8  H   UNL     1      -1.448   3.950  -0.519  0.00  0.00    -0.084 HD
ATOM      9  H   UNL     1       0.004   4.051  -1.352  0.00  0.00    -0.084 HD
ENDROOT
BRANCH   3  10
ATOM     10  C   UNL     1      -0.893   1.803   0.936  0.00  0.00    -0.061 A 
ATOM     11  C   UNL     1      -2.205   2.167   1.172  0.00  0.00    +0.002 A 
ATOM     12  C   UNL     1      -3.066   1.282   1.794  0.00  0.00    +0.000 A 
ATOM     13  C   UNL     1      -2.612   0.039   2.191  0.00  0.00    +0.000 A 
ATOM     14  C   UNL     1      -1.298  -0.323   1.960  0.00  0.00    +0.000 A 
ATOM     15  C   UNL     1      -0.438   0.559   1.333  0.00  0.00    +0.002 A 
ENDBRANCH   3  10
BRANCH   2  16
ATOM     16  C   UNL     1      -1.867   3.096  -2.953  0.00  0.00    -0.061 A 
ATOM     17  C   UNL     1      -1.335   4.233  -3.533  0.00  0.00    +0.002 A 
ATOM     18  C   UNL     1      -2.010   4.865  -4.560  0.00  0.00    +0.000 A 
ATOM     19  C   UNL     1      -3.222   4.367  -5.000  0.00  0.00    +0.000 A 
ATOM     20  C   UNL     1      -3.757   3.234  -4.417  0.00  0.00    +0.000 A 
ATOM     21  C   UNL     1      -3.079   2.599  -3.393  0.00  0.00    +0.002 A 
ENDBRANCH   2  16
BRANCH   5  22
ATOM     22  C   UNL     1      -0.062  -0.026  -0.609  0.00  0.00    -0.062 C 
ATOM     23  C   UNL     1      -0.766  -0.802  -0.079  0.00  0.00    -0.063 C 
BRANCH  23  24
ATOM     24  C   UNL     1      -1.624  -1.748   0.567  0.00  0.00    +0.025 A 
ATOM     25  C   UNL     1      -1.278  -3.100   0.600  0.00  0.00    +0.017 A 
ATOM     26  C   UNL     1      -2.107  -4.006   1.229  0.00  0.00    +0.001 A 
ATOM     27  C   UNL     1      -3.284  -3.579   1.817  0.00  0.00    +0.000 A 
ATOM     28  C   UNL     1      -3.636  -2.242   1.783  0.00  0.00    +0.001 A 
ATOM     29  C   UNL     1      -2.813  -1.324   1.162  0.00  0.00    +0.017 A 
ENDBRANCH  23  24
ENDBRANCH   5  22
BRANCH   5  30
ATOM     30  O   UNL     1       1.964   0.273  -1.800  0.00  0.00    -0.376 OA
ATOM     31  H   UNL     1       2.496  -0.180  -1.131  0.00  0.00    +0.211 HD
ENDBRANCH   5  30
BRANCH   1  32
ATOM     32  C   UNL     1      -0.444   0.577  -3.399  0.00  0.00    +0.006 C 
BRANCH  32  34
ATOM     33  C   UNL     1       0.242  -1.027  -5.188  0.00  0.00    +0.004 C 
ATOM     34  C   UNL     1       0.748  -0.079  -4.098  0.00  0.00    -0.003 C 
ENDBRANCH  32  34
ENDBRANCH   1  32
TORSDOF 7
