REMARK  Name = ZINC12469534
REMARK  5 active torsions:
REMARK  status: ('A' for Active; 'I' for Inactive)
REMARK    1  A    between atoms: C_3  and  C_6
REMARK    2  A    between atoms: C_9  and  C_32
REMARK    3  A    between atoms: C_14  and  C_16
REMARK    4  A    between atoms: N_18  and  C_19
REMARK    5  A    between atoms: C_19  and  C_20
REMARK                            x       y       z     vdW  Elec       q    Type
REMARK                         _______ _______ _______ _____ _____    ______ ____
ROOT
ATOM      1  C   UNL     1       3.599   0.625  -0.029  0.00  0.00    +0.140 C 
ATOM      2  C   UNL     1       4.121   0.346   1.384  0.00  0.00    +0.066 C 
ATOM      3  C   UNL     1       5.654   0.378   1.390  0.00  0.00    +0.215 C 
ATOM      4  N   UNL     1       6.151  -0.473   0.305  0.00  0.00    -0.237 N 
ATOM      5  C   UNL     1       5.393  -0.855  -0.766  0.00  0.00    +0.137 A 
ATOM      6  C   UNL     1       6.154  -1.630  -1.565  0.00  0.00    +0.112 A 
ATOM      7  C   UNL     1       7.431  -1.731  -0.968  0.00  0.00    +0.167 A 
ATOM      8  N   UNL     1       7.419  -1.032   0.154  0.00  0.00    -0.163 NA
ATOM      9 CL   UNL     1       5.655  -2.369  -3.054  0.00  0.00    -0.078 Cl
ATOM     10  N   UNL     1       4.061  -0.453  -0.926  0.00  0.00    -0.318 N 
ATOM     11  H   UNL     1       3.476  -0.860  -1.584  0.00  0.00    +0.148 HD
ENDROOT
BRANCH   1  14
ATOM     12  C   UNL     1      -0.016   1.341   0.009  0.00  0.00    +0.041 A 
ATOM     13  C   UNL     1       1.331   1.769  -0.001  0.00  0.00    +0.046 A 
ATOM     14  C   UNL     1       2.092   0.660  -0.014  0.00  0.00    +0.125 A 
ATOM     15  O   UNL     1       1.282  -0.411  -0.012  0.00  0.00    -0.466 OA
ATOM     16  C   UNL     1       0.002  -0.004   0.002  0.00  0.00    +0.195 A 
ENDBRANCH   1  14
BRANCH   7  17
ATOM     17  C   UNL     1       8.581  -2.488  -1.505  0.00  0.00    +0.266 C 
ATOM     18  O   UNL     1       8.472  -3.096  -2.552  0.00  0.00    -0.268 OA
ATOM     19  N   UNL     1       9.750  -2.503  -0.835  0.00  0.00    -0.309 N 
ATOM     20  H   UNL     1       9.836  -2.018   0.001  0.00  0.00    +0.149 HD
BRANCH  19  21
ATOM     21  C   UNL     1      10.890  -3.253  -1.367  0.00  0.00    +0.111 C 
BRANCH  21  22
ATOM     22  C   UNL     1      12.083  -3.107  -0.421  0.00  0.00    -0.013 C 
ATOM     23  C   UNL     1      12.458  -1.629  -0.298  0.00  0.00    +0.012 C 
ATOM     24  C   UNL     1      13.652  -1.483   0.648  0.00  0.00    -0.010 C 
ATOM     25  C   UNL     1      14.842  -2.266   0.092  0.00  0.00    +0.007 C 
ATOM     26  C   UNL     1      14.467  -3.744  -0.031  0.00  0.00    -0.010 C 
ATOM     27  C   UNL     1      13.274  -3.891  -0.977  0.00  0.00    +0.012 C 
ATOM     28  C   UNL     1      14.095  -4.293   1.348  0.00  0.00    +0.007 C 
ATOM     29  C   UNL     1      12.905  -3.509   1.904  0.00  0.00    -0.010 C 
ATOM     30  C   UNL     1      13.280  -2.031   2.027  0.00  0.00    +0.007 C 
ATOM     31  C   UNL     1      11.711  -3.656   0.958  0.00  0.00    +0.012 C 
ENDBRANCH  21  22
ENDBRANCH  19  21
ENDBRANCH   7  17
BRANCH   3  32
ATOM     32  C   UNL     1       6.172  -0.145   2.732  0.00  0.00    +0.412 C 
ATOM     33  F   UNL     1       5.733  -1.460   2.921  0.00  0.00    -0.168 F 
ATOM     34  F   UNL     1       7.571  -0.115   2.735  0.00  0.00    -0.168 F 
ATOM     35  F   UNL     1       5.686   0.662   3.766  0.00  0.00    -0.168 F 
ENDBRANCH   3  32
TORSDOF 5
