REMARK  Name = ZINC22464429
REMARK  10 active torsions:
REMARK  status: ('A' for Active; 'I' for Inactive)
REMARK    1  A    between atoms: C_1  and  C_2
REMARK    2  A    between atoms: C_2  and  O_3
REMARK    3  A    between atoms: O_3  and  C_4
REMARK    4  A    between atoms: C_9  and  C_10
REMARK    5  A    between atoms: C_12  and  C_15
REMARK    6  A    between atoms: C_15  and  C_16
REMARK    7  A    between atoms: N_18  and  C_19
REMARK    8  A    between atoms: C_19  and  C_20
REMARK    9  A    between atoms: C_20  and  C_22
REMARK   10  A    between atoms: C_20  and  N_28
REMARK                            x       y       z     vdW  Elec       q    Type
REMARK                         _______ _______ _______ _____ _____    ______ ____
ROOT
ATOM      1  C   UNL     1      -4.907   3.142   6.416  0.00  0.00    +0.219 C 
ATOM      2  O   UNL     1      -4.467   2.032   6.205  0.00  0.00    -0.275 OA
ATOM      3  N   UNL     1      -5.664   3.370   7.507  0.00  0.00    -0.316 N 
ATOM      4  H   UNL     1      -6.063   4.377   7.699  0.00  0.00    +0.149 HD
ENDROOT
BRANCH   1   5
ATOM      5  C   UNL     1      -4.605   4.267   5.460  0.00  0.00    +0.151 C 
BRANCH   5   8
ATOM      6  C   UNL     1      -1.839   2.680   3.624  0.00  0.00    +0.112 A 
ATOM      7  N   UNL     1      -2.616   3.137   4.597  0.00  0.00    -0.243 NA
ATOM      8  C   UNL     1      -3.746   3.752   4.334  0.00  0.00    +0.058 A 
ATOM      9  C   UNL     1      -4.143   3.918   3.045  0.00  0.00    +0.071 A 
ATOM     10  S   UNL     1      -2.785   3.140   2.178  0.00  0.00    -0.075 S 
BRANCH   6  16
ATOM     11  C   UNL     1       0.116   1.567   2.547  0.00  0.00    +0.130 A 
ATOM     12  C   UNL     1       1.333   0.910   2.639  0.00  0.00    +0.046 A 
ATOM     13  C   UNL     1       1.889   0.654   3.878  0.00  0.00    +0.004 A 
ATOM     14  C   UNL     1       1.236   1.050   5.033  0.00  0.00    +0.001 A 
ATOM     15  C   UNL     1       0.025   1.705   4.958  0.00  0.00    +0.014 A 
ATOM     16  C   UNL     1      -0.544   1.974   3.712  0.00  0.00    +0.049 A 
BRANCH  11  17
ATOM     17  O   UNL     1      -0.431   1.819   1.330  0.00  0.00    -0.492 OA
BRANCH  17  19
ATOM     18  C   UNL     1      -0.466   1.750  -1.086  0.00  0.00    +0.048 C 
ATOM     19  C   UNL     1       0.302   1.380   0.185  0.00  0.00    +0.226 C 
ENDBRANCH  17  19
ENDBRANCH  11  17
ENDBRANCH   6  16
ENDBRANCH   5   8
ENDBRANCH   1   5
BRANCH   3  20
ATOM     20  C   UNL     1      -5.957   2.277   8.437  0.00  0.00    +0.093 C 
BRANCH  20  21
ATOM     21  C   UNL     1      -6.730   2.823   9.640  0.00  0.00    -0.020 C 
BRANCH  21  22
ATOM     22  C   UNL     1      -8.078   3.322   9.186  0.00  0.00    -0.059 A 
ATOM     23  C   UNL     1      -9.108   2.426   8.968  0.00  0.00    +0.002 A 
ATOM     24  C   UNL     1     -10.346   2.884   8.556  0.00  0.00    +0.000 A 
ATOM     25  C   UNL     1     -10.551   4.236   8.354  0.00  0.00    +0.000 A 
ATOM     26  C   UNL     1      -9.519   5.131   8.567  0.00  0.00    +0.000 A 
ATOM     27  C   UNL     1      -8.282   4.674   8.983  0.00  0.00    +0.002 A 
ENDBRANCH  21  22
BRANCH  21  28
ATOM     28  N   UNL     1      -6.911   1.755  10.632  0.00  0.00    +0.385 N 
ATOM     29  C   UNL     1      -5.601   1.218  11.081  0.00  0.00    -0.078 C 
ATOM     30  C   UNL     1      -5.941   0.539  12.432  0.00  0.00    -0.020 C 
ATOM     31  C   UNL     1      -6.992   1.493  13.044  0.00  0.00    -0.020 C 
ATOM     32  C   UNL     1      -7.576   2.269  11.849  0.00  0.00    -0.078 C 
ATOM     33  H   UNL     1      -7.520   0.985  10.135  0.00  0.00    -0.081 HD
ENDBRANCH  21  28
ENDBRANCH  20  21
ENDBRANCH   3  20
TORSDOF 9
