REMARK  Name = ZINC39357177
REMARK  7 active torsions:
REMARK  status: ('A' for Active; 'I' for Inactive)
REMARK    1  A    between atoms: C_1  and  C_2
REMARK    2  A    between atoms: C_4  and  C_22
REMARK    3  A    between atoms: N_12  and  C_13
REMARK    4  A    between atoms: C_13  and  C_14
REMARK    5  A    between atoms: C_19  and  C_20
REMARK    6  A    between atoms: C_23  and  C_24
REMARK    7  A    between atoms: C_23  and  C_26
REMARK                            x       y       z     vdW  Elec       q    Type
REMARK                         _______ _______ _______ _____ _____    ______ ____
ROOT
ATOM      1  C   UNL     1       0.616   1.349  -0.136  0.00  0.00    +0.029 C 
ATOM      2  C   UNL     1       0.459  -0.171  -0.044  0.00  0.00    +0.082 C 
ATOM      3  C   UNL     1       1.332  -0.862  -1.104  0.00  0.00    +0.065 C 
ATOM      4  C   UNL     1       2.293  -1.715  -0.306  0.00  0.00    -0.018 A 
ATOM      5  C   UNL     1       3.308  -2.558  -0.714  0.00  0.00    +0.006 A 
ATOM      6  C   UNL     1       4.061  -3.242   0.223  0.00  0.00    +0.000 A 
ATOM      7  C   UNL     1       3.795  -3.079   1.570  0.00  0.00    +0.002 A 
ATOM      8  C   UNL     1       2.783  -2.239   1.982  0.00  0.00    +0.023 A 
ATOM      9  C   UNL     1       2.018  -1.545   1.042  0.00  0.00    +0.034 A 
ATOM     10  N   UNL     1       0.958  -0.657   1.245  0.00  0.00    -0.322 N 
ENDROOT
BRANCH   3  11
ATOM     11  C   UNL     1       2.083   0.162  -1.916  0.00  0.00    +0.001 C 
ATOM     12  C   UNL     1       1.900   0.231  -3.232  0.00  0.00    +0.068 C 
BRANCH  12  13
ATOM     13  C   UNL     1       2.651   1.255  -4.044  0.00  0.00    +0.216 C 
ATOM     14  N   UNL     1       1.708   2.104  -4.781  0.00  0.00    -0.359 N 
ATOM     15  C   UNL     1       1.955   1.952  -6.050  0.00  0.00    +0.060 A 
ATOM     16  C   UNL     1       1.354   2.529  -7.261  0.00  0.00    +0.027 A 
ATOM     17  C   UNL     1       1.830   2.176  -8.472  0.00  0.00    +0.002 A 
ATOM     18  C   UNL     1       2.891   1.268  -8.635  0.00  0.00    +0.002 A 
ATOM     19  C   UNL     1       3.512   0.682  -7.592  0.00  0.00    +0.027 A 
ATOM     20  C   UNL     1       3.078   0.991  -6.222  0.00  0.00    +0.060 A 
ATOM     21  N   UNL     1       3.482   0.586  -5.053  0.00  0.00    -0.359 N 
ATOM     22  H   UNL     1       1.025   2.674  -4.394  0.00  0.00    +0.162 HD
ATOM     23  H   UNL     1       4.201  -0.042  -4.880  0.00  0.00    +0.162 HD
ENDBRANCH  12  13
BRANCH  12  24
ATOM     24  C   UNL     1       0.990  -0.667  -3.877  0.00  0.00    +0.098 C 
ATOM     25  N   UNL     1       0.268  -1.379  -4.388  0.00  0.00    -0.191 NA
ENDBRANCH  12  24
ENDBRANCH   3  11
BRANCH  10  26
ATOM     26  C   UNL     1       0.425  -0.267   2.553  0.00  0.00    +0.141 C 
BRANCH  26  27
ATOM     27  C   UNL     1      -0.582  -1.291   3.010  0.00  0.00    -0.013 A 
ATOM     28  C   UNL     1      -0.213  -2.271   3.909  0.00  0.00    +0.006 A 
ATOM     29  C   UNL     1      -1.136  -3.211   4.329  0.00  0.00    +0.000 A 
ATOM     30  C   UNL     1      -2.434  -3.177   3.852  0.00  0.00    +0.001 A 
ATOM     31  C   UNL     1      -2.817  -2.204   2.952  0.00  0.00    +0.019 A 
ATOM     32  C   UNL     1      -1.892  -1.247   2.529  0.00  0.00    +0.056 A 
BRANCH  32  33
ATOM     33  C   UNL     1      -2.283  -0.230   1.600  0.00  0.00    +0.099 C 
ATOM     34  N   UNL     1      -2.594   0.577   0.863  0.00  0.00    -0.191 NA
ENDBRANCH  32  33
ENDBRANCH  26  27
ENDBRANCH  10  26
TORSDOF 6
