REMARK  Name = ZINC63302877
REMARK  12 active torsions:
REMARK  status: ('A' for Active; 'I' for Inactive)
REMARK    1  A    between atoms: C_1  and  O_2
REMARK    2  A    between atoms: O_2  and  C_3
REMARK    3  A    between atoms: C_6  and  C_9
REMARK    4  A    between atoms: C_13  and  C_35
REMARK    5  A    between atoms: N_15  and  C_22
REMARK    6  A    between atoms: C_22  and  C_23
REMARK    7  A    between atoms: C_23  and  C_24
REMARK    8  A    between atoms: C_27  and  O_33
REMARK    9  A    between atoms: O_33  and  C_34
REMARK   10  A    between atoms: C_38  and  O_43
REMARK   11  A    between atoms: C_39  and  O_41
REMARK   12  A    between atoms: O_41  and  C_42
REMARK                            x       y       z     vdW  Elec       q    Type
REMARK                         _______ _______ _______ _____ _____    ______ ____
ROOT
ATOM      1  C   UNL     1       2.392  -3.717   4.816  0.00  0.00    +0.136 C 
ATOM      2  C   UNL     1       3.659  -3.122   4.160  0.00  0.00    +0.077 C 
ATOM      3  C   UNL     1       3.285  -2.502   2.801  0.00  0.00    +0.114 C 
ATOM      4  N   UNL     1       3.250  -3.613   1.845  0.00  0.00    -0.292 N 
ATOM      5  C   UNL     1       3.873  -4.697   2.332  0.00  0.00    +0.243 C 
ATOM      6  O   UNL     1       4.009  -5.742   1.731  0.00  0.00    -0.273 OA
ATOM      7  C   UNL     1       4.390  -4.437   3.745  0.00  0.00    +0.218 C 
ATOM      8  N   UNL     1       3.833  -5.443   4.661  0.00  0.00    -0.203 NA
ATOM      9  N   UNL     1       2.796  -5.072   5.216  0.00  0.00    -0.305 N 
ATOM     10  H   UNL     1       2.299  -5.614   5.849  0.00  0.00    +0.183 HD
ENDROOT
BRANCH   1  14
ATOM     11  C   UNL     1      -0.815  -3.884   1.995  0.00  0.00    +0.120 A 
ATOM     12  C   UNL     1       0.347  -4.609   1.770  0.00  0.00    +0.046 A 
ATOM     13  C   UNL     1       1.382  -4.553   2.683  0.00  0.00    +0.009 A 
ATOM     14  C   UNL     1       1.261  -3.776   3.821  0.00  0.00    -0.023 A 
ATOM     15  C   UNL     1       0.104  -3.054   4.048  0.00  0.00    +0.009 A 
ATOM     16  C   UNL     1      -0.932  -3.102   3.135  0.00  0.00    +0.046 A 
BRANCH  11  18
ATOM     17  C   UNL     1      -1.644  -4.764  -0.052  0.00  0.00    +0.277 C 
ATOM     18  O   UNL     1      -1.834  -3.937   1.098  0.00  0.00    -0.495 OA
ENDBRANCH  11  18
ENDBRANCH   1  14
BRANCH   3  19
ATOM     19  C   UNL     1       1.932  -1.845   2.885  0.00  0.00    -0.023 A 
ATOM     20  C   UNL     1       0.994  -2.068   1.894  0.00  0.00    +0.009 A 
ATOM     21  C   UNL     1      -0.249  -1.468   1.967  0.00  0.00    +0.049 A 
ATOM     22  C   UNL     1      -0.558  -0.641   3.035  0.00  0.00    +0.158 A 
ATOM     23  C   UNL     1       0.386  -0.417   4.033  0.00  0.00    +0.162 A 
ATOM     24  C   UNL     1       1.628  -1.025   3.957  0.00  0.00    +0.055 A 
BRANCH  23  25
ATOM     25  O   UNL     1       0.088   0.394   5.083  0.00  0.00    -0.491 OA
ATOM     26  C   UNL     1       1.105   0.578   6.070  0.00  0.00    +0.277 C 
ENDBRANCH  23  25
BRANCH  22  27
ATOM     27  O   UNL     1      -1.780  -0.049   3.108  0.00  0.00    -0.503 OA
ATOM     28  H   UNL     1      -2.443  -0.573   3.578  0.00  0.00    +0.292 HD
ENDBRANCH  22  27
ENDBRANCH   3  19
BRANCH   4  29
ATOM     29  C   UNL     1       2.615  -3.548   0.527  0.00  0.00    +0.113 C 
BRANCH  29  30
ATOM     30  C   UNL     1       3.408  -4.402  -0.464  0.00  0.00    +0.052 C 
BRANCH  30  31
ATOM     31  C   UNL     1       2.755  -4.335  -1.820  0.00  0.00    -0.040 C 
ATOM     32  C   UNL     1       3.080  -3.506  -2.839  0.00  0.00    +0.002 A 
ATOM     33  C   UNL     1       4.097  -2.459  -2.985  0.00  0.00    +0.055 A 
ATOM     34  C   UNL     1       4.189  -1.777  -4.151  0.00  0.00    +0.121 A 
ATOM     35  C   UNL     1       3.338  -2.034  -5.240  0.00  0.00    +0.047 A 
ATOM     36  C   UNL     1       2.372  -2.977  -5.202  0.00  0.00    +0.029 A 
ATOM     37  C   UNL     1       2.184  -3.776  -3.987  0.00  0.00    +0.043 A 
ATOM     38  N   UNL     1       1.341  -4.733  -3.691  0.00  0.00    -0.380 N 
ATOM     39  C   UNL     1       1.609  -5.185  -2.321  0.00  0.00    +0.144 C 
ATOM     40  H   UNL     1       0.656  -5.087  -4.280  0.00  0.00    +0.160 HD
BRANCH  34  41
ATOM     41  O   UNL     1       5.136  -0.809  -4.272  0.00  0.00    -0.495 OA
ATOM     42  C   UNL     1       5.197  -0.114  -5.519  0.00  0.00    +0.277 C 
ENDBRANCH  34  41
ENDBRANCH  30  31
ENDBRANCH  29  30
ENDBRANCH   4  29
TORSDOF 9
