REMARK  Name = ZINC01925279
REMARK  11 active torsions:
REMARK  status: ('A' for Active; 'I' for Inactive)
REMARK    1  A    between atoms: C_1  and  C_2
REMARK    2  A    between atoms: N_4  and  C_5
REMARK    3  A    between atoms: C_8  and  C_11
REMARK    4  A    between atoms: C_11  and  C_13
REMARK    5  A    between atoms: C_13  and  O_14
REMARK    6  A    between atoms: O_14  and  C_15
REMARK    7  A    between atoms: C_25  and  C_26
REMARK    8  A    between atoms: C_29  and  C_32
REMARK    9  A    between atoms: C_32  and  C_33
REMARK   10  A    between atoms: C_32  and  C_34
REMARK   11  A    between atoms: C_32  and  C_35
REMARK                            x       y       z     vdW  Elec       q    Type
REMARK                         _______ _______ _______ _____ _____    ______ ____
ROOT
ATOM      1  C   UNL     1       1.232  10.582   0.496  0.00  0.00    +0.211 A 
ATOM      2  C   UNL     1       1.928  10.834   1.707  0.00  0.00    +0.235 A 
ATOM      3  O   UNL     1       1.658  10.228   2.731  0.00  0.00    -0.283 OA
ATOM      4  C   UNL     1       2.993  11.853   1.677  0.00  0.00    +0.069 A 
ATOM      5  C   UNL     1       3.732  12.163   2.819  0.00  0.00    +0.035 A 
ATOM      6  C   UNL     1       4.716  13.126   2.752  0.00  0.00    +0.042 A 
ATOM      7  C   UNL     1       4.971  13.784   1.556  0.00  0.00    +0.023 A 
ATOM      8  C   UNL     1       4.247  13.486   0.421  0.00  0.00    +0.048 A 
ATOM      9  C   UNL     1       3.251  12.518   0.467  0.00  0.00    +0.140 A 
ATOM     10  O   UNL     1       2.532  12.214  -0.633  0.00  0.00    -0.451 OA
ATOM     11  C   UNL     1       1.562  11.285  -0.624  0.00  0.00    +0.181 A 
ATOM     12 CL   UNL     1       5.641  13.517   4.168  0.00  0.00    -0.084 Cl
ENDROOT
BRANCH  11  13
ATOM     13  C   UNL     1       0.826  11.015  -1.874  0.00  0.00    +0.021 A 
ATOM     14  C   UNL     1       1.522  10.814  -3.069  0.00  0.00    +0.012 A 
ATOM     15  C   UNL     1       0.827  10.558  -4.233  0.00  0.00    +0.005 A 
ATOM     16  C   UNL     1      -0.556  10.509  -4.221  0.00  0.00    -0.042 A 
ATOM     17  C   UNL     1      -1.252  10.712  -3.042  0.00  0.00    +0.005 A 
ATOM     18  C   UNL     1      -0.570  10.965  -1.869  0.00  0.00    +0.012 A 
BRANCH  16  19
ATOM     19  C   UNL     1      -1.308  10.235  -5.497  0.00  0.00    -0.013 C 
ATOM     20  C   UNL     1      -2.231  11.414  -5.809  0.00  0.00    +0.015 C 
ATOM     21  C   UNL     1      -0.313  10.048  -6.645  0.00  0.00    +0.015 C 
ATOM     22  C   UNL     1      -2.142   8.962  -5.334  0.00  0.00    +0.015 C 
ENDBRANCH  16  19
ENDBRANCH  11  13
BRANCH   1  23
ATOM     23  O   UNL     1       0.241   9.651   0.455  0.00  0.00    -0.477 OA
BRANCH  23  24
ATOM     24  C   UNL     1       0.634   8.294   0.239  0.00  0.00    +0.308 C 
BRANCH  24  25
ATOM     25  C   UNL     1      -0.589   7.413   0.225  0.00  0.00    +0.200 C 
ATOM     26  O   UNL     1      -1.688   7.900   0.383  0.00  0.00    -0.288 OA
BRANCH  25  30
ATOM     27  C   UNL     1      -0.185   3.239  -0.372  0.00  0.00    +0.033 A 
ATOM     28  C   UNL     1       0.947   4.050  -0.353  0.00  0.00    +0.024 A 
ATOM     29  C   UNL     1       0.820   5.402  -0.166  0.00  0.00    +0.013 A 
ATOM     30  C   UNL     1      -0.449   5.966   0.018  0.00  0.00    +0.021 A 
ATOM     31  C   UNL     1      -1.583   5.146   0.004  0.00  0.00    +0.013 A 
ATOM     32  C   UNL     1      -1.448   3.795  -0.189  0.00  0.00    +0.024 A 
BRANCH  27  36
ATOM     33  C   UNL     1       1.142  -0.096  -1.486  0.00  0.00    +0.109 C 
ATOM     34  C   UNL     1       0.927   1.391  -1.363  0.00  0.00    +0.214 C 
ATOM     35  O   UNL     1       1.631   2.159  -1.983  0.00  0.00    -0.276 OA
ATOM     36  N   UNL     1      -0.052   1.866  -0.568  0.00  0.00    -0.286 N 
ATOM     37  H   UNL     1      -0.664   1.253  -0.132  0.00  0.00    +0.155 HD
ENDBRANCH  27  36
ENDBRANCH  25  30
ENDBRANCH  24  25
ENDBRANCH  23  24
ENDBRANCH   1  23
TORSDOF 7
