REMARK  Name = ZINC64600390
REMARK  8 active torsions:
REMARK  status: ('A' for Active; 'I' for Inactive)
REMARK    1  A    between atoms: C_1  and  C_2
REMARK    2  A    between atoms: C_4  and  O_32
REMARK    3  A    between atoms: C_11  and  C_16
REMARK    4  A    between atoms: C_13  and  C_15
REMARK    5  A    between atoms: C_16  and  C_17
REMARK    6  A    between atoms: N_19  and  C_20
REMARK    7  A    between atoms: C_20  and  C_21
REMARK    8  A    between atoms: C_21  and  C_22
REMARK                            x       y       z     vdW  Elec       q    Type
REMARK                         _______ _______ _______ _____ _____    ______ ____
ROOT
ATOM      1  C   UNL     1      -2.635  -4.793   2.597  0.00  0.00    +0.214 C 
ATOM      2  O   UNL     1      -1.939  -5.309   3.445  0.00  0.00    -0.276 OA
ATOM      3  N   UNL     1      -3.952  -4.616   2.822  0.00  0.00    -0.315 N 
ATOM      4  H   UNL     1      -4.509  -4.202   2.144  0.00  0.00    +0.149 HD
ENDROOT
BRANCH   1   5
ATOM      5  C   UNL     1      -2.028  -4.348   1.292  0.00  0.00    +0.111 C 
BRANCH   5  16
ATOM      6  C   UNL     1       0.713   1.448  -0.559  0.00  0.00    +0.044 C 
ATOM      7  C   UNL     1       0.543  -0.043  -0.420  0.00  0.00    -0.044 A 
ATOM      8  C   UNL     1       0.517  -0.844  -1.546  0.00  0.00    +0.049 A 
ATOM      9  C   UNL     1       0.365  -2.216  -1.415  0.00  0.00    +0.124 A 
ATOM     10  C   UNL     1       0.235  -2.790  -0.155  0.00  0.00    +0.040 A 
ATOM     11  C   UNL     1       0.255  -1.985   0.968  0.00  0.00    +0.139 A 
ATOM     12  C   UNL     1       0.418  -0.609   0.832  0.00  0.00    +0.050 A 
ATOM     13  O   UNL     1       0.111  -2.497   2.221  0.00  0.00    -0.425 OA
ATOM     14  C   UNL     1       0.167  -3.837   2.356  0.00  0.00    +0.317 C 
ATOM     15  O   UNL     1       0.746  -4.356   3.281  0.00  0.00    -0.250 OA
ATOM     16  C   UNL     1      -0.530  -4.662   1.293  0.00  0.00    +0.114 C 
ATOM     17  C   UNL     1       0.082  -4.287  -0.060  0.00  0.00    +0.037 C 
ATOM     18  C   UNL     1      -0.831  -4.777  -1.185  0.00  0.00    +0.013 C 
BRANCH   9  19
ATOM     19  O   UNL     1       0.341  -3.002  -2.523  0.00  0.00    -0.506 OA
ATOM     20  H   UNL     1       1.212  -3.323  -2.796  0.00  0.00    +0.292 HD
ENDBRANCH   9  19
ENDBRANCH   5  16
ENDBRANCH   1   5
BRANCH   3  21
ATOM     21  C   UNL     1      -4.543  -5.047   4.092  0.00  0.00    +0.108 C 
BRANCH  21  22
ATOM     22  C   UNL     1      -6.040  -4.734   4.090  0.00  0.00    +0.052 C 
BRANCH  22  23
ATOM     23  C   UNL     1      -6.648  -5.178   5.396  0.00  0.00    -0.040 C 
ATOM     24  C   UNL     1      -6.862  -4.417   6.493  0.00  0.00    +0.000 A 
ATOM     25  C   UNL     1      -6.603  -3.003   6.789  0.00  0.00    +0.030 A 
ATOM     26  C   UNL     1      -6.934  -2.516   8.008  0.00  0.00    +0.042 A 
ATOM     27  C   UNL     1      -7.516  -3.328   8.992  0.00  0.00    +0.022 A 
ATOM     28  C   UNL     1      -7.784  -4.635   8.795  0.00  0.00    +0.027 A 
ATOM     29  C   UNL     1      -7.478  -5.252   7.550  0.00  0.00    +0.043 A 
ATOM     30  N   UNL     1      -7.638  -6.481   7.122  0.00  0.00    -0.380 N 
ATOM     31  C   UNL     1      -7.147  -6.563   5.742  0.00  0.00    +0.144 C 
ATOM     32 CL   UNL     1      -6.629  -0.844   8.361  0.00  0.00    -0.084 Cl
ATOM     33  H   UNL     1      -8.021  -7.212   7.631  0.00  0.00    +0.160 HD
ENDBRANCH  22  23
ENDBRANCH  21  22
ENDBRANCH   3  21
TORSDOF 6
