REMARK  Name = ZINC12858612
REMARK  4 active torsions:
REMARK  status: ('A' for Active; 'I' for Inactive)
REMARK    1  A    between atoms: C_5  and  C_7
REMARK    2  A    between atoms: N_12  and  C_15
REMARK    3  A    between atoms: C_18  and  N_27
REMARK    4  A    between atoms: C_19  and  N_21
REMARK                            x       y       z     vdW  Elec       q    Type
REMARK                         _______ _______ _______ _____ _____    ______ ____
ROOT
ATOM      1  C   UNL     1      -0.864  -5.565   6.079  0.00  0.00    +0.248 C 
ATOM      2  O   UNL     1       0.046  -6.238   6.524  0.00  0.00    -0.270 OA
ATOM      3  N   UNL     1      -0.668  -4.258   5.816  0.00  0.00    -0.295 N 
ATOM      4  C   UNL     1       0.658  -3.644   5.981  0.00  0.00    +0.127 C 
ATOM      5  C   UNL     1       0.509  -2.385   6.841  0.00  0.00    +0.124 C 
ATOM      6  N   UNL     1      -0.511  -1.510   6.248  0.00  0.00    -0.327 N 
ATOM      7  C   UNL     1      -1.830  -2.157   6.240  0.00  0.00    +0.124 C 
ATOM      8  C   UNL     1      -1.776  -3.407   5.356  0.00  0.00    +0.127 C 
ENDROOT
BRANCH   1  13
ATOM      9  C   UNL     1      -4.167  -6.374   4.486  0.00  0.00    +0.001 A 
ATOM     10  C   UNL     1      -4.658  -7.333   5.355  0.00  0.00    +0.001 A 
ATOM     11  C   UNL     1      -3.918  -7.718   6.459  0.00  0.00    +0.015 A 
ATOM     12  C   UNL     1      -2.685  -7.148   6.700  0.00  0.00    +0.025 A 
ATOM     13  C   UNL     1      -2.184  -6.181   5.827  0.00  0.00    +0.050 A 
ATOM     14  C   UNL     1      -2.938  -5.793   4.718  0.00  0.00    +0.014 A 
ATOM     15  I   UNL     1      -1.567  -7.732   8.373  0.00  0.00    -0.043 I 
ENDBRANCH   1  13
BRANCH   6  16
ATOM     16  C   UNL     1      -0.561  -0.280   6.910  0.00  0.00    +0.032 A 
ATOM     17  C   UNL     1       0.292  -0.030   7.978  0.00  0.00    +0.025 A 
ATOM     18  C   UNL     1       0.244   1.186   8.632  0.00  0.00    +0.036 A 
ATOM     19  C   UNL     1      -0.653   2.156   8.228  0.00  0.00    +0.147 A 
ATOM     20  C   UNL     1      -1.508   1.913   7.161  0.00  0.00    +0.062 A 
ATOM     21  C   UNL     1      -1.466   0.691   6.504  0.00  0.00    +0.048 A 
BRANCH  20  22
ATOM     22  N   UNL     1      -2.414   2.894   6.753  0.00  0.00    -0.328 N 
ATOM     23  C   UNL     1      -3.799   2.452   6.960  0.00  0.00    +0.105 C 
ATOM     24  C   UNL     1      -4.756   3.602   6.640  0.00  0.00    +0.019 C 
ATOM     25  C   UNL     1      -4.553   4.040   5.187  0.00  0.00    +0.003 C 
ATOM     26  C   UNL     1      -3.091   4.449   4.986  0.00  0.00    +0.019 C 
ATOM     27  C   UNL     1      -2.182   3.275   5.353  0.00  0.00    +0.105 C 
ENDBRANCH  20  22
BRANCH  19  28
ATOM     28  N   UNL     1      -0.702   3.457   8.933  0.00  0.00    +0.058 N 
ATOM     29  O   UNL     1       0.112   3.709   9.804  0.00  0.00    -0.126 OA
ATOM     30  O   UNL     1      -1.555   4.275   8.642  0.00  0.00    -0.126 OA
ENDBRANCH  19  28
ENDBRANCH   6  16
TORSDOF 4
