REMARK  Name = ZINC34683677
REMARK  7 active torsions:
REMARK  status: ('A' for Active; 'I' for Inactive)
REMARK    1  A    between atoms: C_4  and  S_7
REMARK    2  A    between atoms: S_7  and  N_10
REMARK    3  A    between atoms: N_10  and  C_11
REMARK    4  A    between atoms: N_10  and  C_18
REMARK    5  A    between atoms: N_21  and  C_24
REMARK    6  A    between atoms: C_24  and  C_25
REMARK    7  A    between atoms: C_28  and  C_31
REMARK                            x       y       z     vdW  Elec       q    Type
REMARK                         _______ _______ _______ _____ _____    ______ ____
ROOT
ATOM      1  C   UNL     1       5.709  -0.564   1.866  0.00  0.00    +0.095 C 
ATOM      2  C   UNL     1       5.781  -0.256   3.365  0.00  0.00    +0.006 C 
ATOM      3  C   UNL     1       7.197   0.206   3.717  0.00  0.00    -0.077 C 
ATOM      4  N   UNL     1       8.157  -0.854   3.386  0.00  0.00    +0.382 N 
ATOM      5  C   UNL     1       8.145  -1.104   1.940  0.00  0.00    -0.077 C 
ATOM      6  C   UNL     1       6.766  -1.616   1.519  0.00  0.00    +0.006 C 
ATOM      7  H   UNL     1       7.905  -1.700   3.875  0.00  0.00    -0.081 HD
ENDROOT
BRANCH   1   8
ATOM      8  N   UNL     1       4.378  -1.079   1.536  0.00  0.00    -0.200 N 
BRANCH   8   9
ATOM      9  C   UNL     1       3.889  -2.219   2.181  0.00  0.00    +0.052 A 
ATOM     10  C   UNL     1       3.146  -2.092   3.348  0.00  0.00    +0.027 A 
ATOM     11  C   UNL     1       2.664  -3.220   3.983  0.00  0.00    +0.040 A 
ATOM     12  C   UNL     1       2.921  -4.475   3.458  0.00  0.00    +0.124 A 
ATOM     13  C   UNL     1       3.661  -4.603   2.296  0.00  0.00    +0.040 A 
ATOM     14  C   UNL     1       4.141  -3.478   1.654  0.00  0.00    +0.027 A 
ATOM     15  F   UNL     1       2.449  -5.577   4.082  0.00  0.00    -0.205 F 
ENDBRANCH   8   9
BRANCH   8  16
ATOM     16  S   UNL     1       3.452  -0.311   0.398  0.00  0.00    +0.075 S 
ATOM     17  O   UNL     1       2.606  -1.300  -0.172  0.00  0.00    -0.150 OA
ATOM     18  O   UNL     1       4.340   0.475  -0.386  0.00  0.00    -0.150 OA
BRANCH  16  22
ATOM     19  C   UNL     1       0.756   2.587   2.595  0.00  0.00    +0.000 A 
ATOM     20  C   UNL     1       2.002   2.998   2.158  0.00  0.00    +0.002 A 
ATOM     21  C   UNL     1       2.825   2.113   1.487  0.00  0.00    +0.029 A 
ATOM     22  C   UNL     1       2.403   0.817   1.254  0.00  0.00    +0.109 A 
ATOM     23  C   UNL     1       1.158   0.406   1.691  0.00  0.00    +0.029 A 
ATOM     24  C   UNL     1       0.334   1.292   2.361  0.00  0.00    +0.002 A 
ENDBRANCH  16  22
ENDBRANCH   8  16
ENDBRANCH   1   8
BRANCH   4  25
ATOM     25  C   UNL     1       9.505  -0.437   3.798  0.00  0.00    -0.043 C 
BRANCH  25  26
ATOM     26  C   UNL     1      10.472  -1.570   3.572  0.00  0.00    -0.064 A 
ATOM     27  C   UNL     1      10.698  -2.496   4.574  0.00  0.00    +0.002 A 
ATOM     28  C   UNL     1      11.585  -3.535   4.367  0.00  0.00    +0.012 A 
ATOM     29  C   UNL     1      12.246  -3.649   3.158  0.00  0.00    +0.055 A 
ATOM     30  C   UNL     1      12.020  -2.724   2.156  0.00  0.00    +0.012 A 
ATOM     31  C   UNL     1      11.129  -1.687   2.362  0.00  0.00    +0.002 A 
BRANCH  29  32
ATOM     32  C   UNL     1      13.214  -4.782   2.933  0.00  0.00    +0.417 C 
ATOM     33  F   UNL     1      12.532  -5.879   2.396  0.00  0.00    -0.166 F 
ATOM     34  F   UNL     1      14.212  -4.372   2.042  0.00  0.00    -0.166 F 
ATOM     35  F   UNL     1      13.798  -5.146   4.151  0.00  0.00    -0.166 F 
ENDBRANCH  29  32
ENDBRANCH  25  26
ENDBRANCH   4  25
TORSDOF 7
