REMARK  Name = ZINC49122579
REMARK  5 active torsions:
REMARK  status: ('A' for Active; 'I' for Inactive)
REMARK    1  A    between atoms: C_1  and  C_2
REMARK    2  A    between atoms: C_2  and  C_3
REMARK    3  A    between atoms: C_2  and  C_4
REMARK    4  A    between atoms: C_10  and  C_12
REMARK    5  A    between atoms: C_12  and  C_13
REMARK                            x       y       z     vdW  Elec       q    Type
REMARK                         _______ _______ _______ _____ _____    ______ ____
ROOT
ATOM      1  C   UNL     1      -1.433  -0.534   0.013  0.00  0.00    +0.079 C 
ATOM      2  C   UNL     1      -2.151  -0.077   1.300  0.00  0.00    +0.024 C 
ATOM      3  C   UNL     1      -3.006  -1.315   1.679  0.00  0.00    +0.021 C 
ATOM      4  C   UNL     1      -2.076  -2.478   1.251  0.00  0.00    +0.108 C 
ATOM      5  N   UNL     1      -1.424  -2.004   0.013  0.00  0.00    -0.298 N 
ATOM      6  C   UNL     1      -0.907  -2.786  -0.956  0.00  0.00    +0.218 C 
ATOM      7  O   UNL     1      -0.393  -2.282  -1.932  0.00  0.00    -0.276 OA
ENDROOT
BRANCH   1   9
ATOM      8  C   UNL     1      -0.019   1.526   0.010  0.00  0.00    +0.009 C 
ATOM      9  C   UNL     1       0.002  -0.004   0.002  0.00  0.00    +0.003 C 
ATOM     10  C   UNL     1       0.742  -0.511   1.242  0.00  0.00    +0.009 C 
ENDBRANCH   1   9
BRANCH   6  11
ATOM     11  C   UNL     1      -0.967  -4.286  -0.825  0.00  0.00    +0.127 C 
BRANCH  11  12
ATOM     12  C   UNL     1      -0.315  -4.931  -2.050  0.00  0.00    +0.169 C 
ATOM     13  C   UNL     1      -0.393  -6.442  -1.962  0.00  0.00    +0.241 C 
ATOM     14  O   UNL     1      -1.395  -7.122  -1.920  0.00  0.00    -0.273 OA
ATOM     15  N   UNL     1       0.884  -6.872  -1.940  0.00  0.00    -0.239 N 
ATOM     16  C   UNL     1       1.749  -5.854  -2.002  0.00  0.00    +0.307 C 
ATOM     17  O   UNL     1       2.957  -5.992  -1.997  0.00  0.00    -0.252 OA
ATOM     18  N   UNL     1       1.133  -4.656  -2.072  0.00  0.00    -0.287 N 
ATOM     19  H   UNL     1       1.144  -7.805  -1.886  0.00  0.00    +0.159 HD
ATOM     20  H   UNL     1       1.556  -3.786  -2.126  0.00  0.00    +0.151 HD
ENDBRANCH  11  12
ENDBRANCH   6  11
TORSDOF 3
