REMARK  Name = ZINC39674763
REMARK  10 active torsions:
REMARK  status: ('A' for Active; 'I' for Inactive)
REMARK    1  A    between atoms: C_1  and  C_2
REMARK    2  A    between atoms: C_4  and  C_14
REMARK    3  A    between atoms: C_7  and  C_12
REMARK    4  A    between atoms: C_14  and  C_15
REMARK    5  A    between atoms: C_15  and  N_16
REMARK    6  A    between atoms: C_17  and  C_19
REMARK    7  A    between atoms: C_30  and  C_32
REMARK    8  A    between atoms: C_36  and  N_38
REMARK    9  A    between atoms: N_38  and  C_39
REMARK   10  A    between atoms: N_38  and  C_40
REMARK                            x       y       z     vdW  Elec       q    Type
REMARK                         _______ _______ _______ _____ _____    ______ ____
ROOT
ATOM      1  C   UNL     1       1.001  -0.780  -7.939  0.00  0.00    +0.100 C 
ATOM      2  C   UNL     1       1.153   0.758  -7.938  0.00  0.00    +0.121 C 
ATOM      3  N   UNL     1       2.523   1.000  -8.449  0.00  0.00    -0.296 N 
ATOM      4  C   UNL     1       2.697  -0.004  -9.526  0.00  0.00    +0.115 C 
ATOM      5  C   UNL     1       2.014  -1.276  -8.985  0.00  0.00    -0.004 C 
ATOM      6  C   UNL     1       1.293  -2.008 -10.113  0.00  0.00    -0.010 C 
ATOM      7  C   UNL     1       2.325  -2.543 -11.110  0.00  0.00    -0.082 C 
ATOM      8  N   UNL     1       3.249  -3.451 -10.421  0.00  0.00    +0.379 N 
ATOM      9  C   UNL     1       4.006  -2.717  -9.400  0.00  0.00    -0.082 C 
ATOM     10  C   UNL     1       3.045  -2.190  -8.330  0.00  0.00    -0.010 C 
ATOM     11  C   UNL     1       3.410   1.923  -8.029  0.00  0.00    +0.247 C 
ATOM     12  O   UNL     1       3.167   2.596  -7.046  0.00  0.00    -0.270 OA
ATOM     13  H   UNL     1       2.725  -4.192  -9.981  0.00  0.00    -0.086 HD
ATOM     14  H   UNL     1       3.890  -3.849 -11.091  0.00  0.00    -0.086 HD
ENDROOT
BRANCH  11  15
ATOM     15  C   UNL     1       4.678   2.118  -8.763  0.00  0.00    +0.039 A 
ATOM     16  C   UNL     1       4.790   1.699 -10.090  0.00  0.00    +0.013 A 
ATOM     17  C   UNL     1       5.975   1.882 -10.774  0.00  0.00    +0.003 A 
ATOM     18  C   UNL     1       7.054   2.479 -10.149  0.00  0.00    +0.023 A 
ATOM     19  C   UNL     1       6.953   2.900  -8.828  0.00  0.00    +0.030 A 
ATOM     20  C   UNL     1       5.764   2.726  -8.135  0.00  0.00    +0.036 A 
BRANCH  19  21
ATOM     21  N   UNL     1       8.046   3.502  -8.201  0.00  0.00    -0.336 N 
ATOM     22  C   UNL     1       9.299   3.691  -8.936  0.00  0.00    +0.129 C 
ATOM     23  C   UNL     1       7.939   3.946  -6.809  0.00  0.00    +0.129 C 
ENDBRANCH  19  21
ENDBRANCH  11  15
BRANCH   1  25
ATOM     24  N   UNL     1       0.834  -2.534  -6.204  0.00  0.00    -0.315 N 
ATOM     25  C   UNL     1       1.333  -1.341  -6.580  0.00  0.00    +0.218 C 
ATOM     26  O   UNL     1       2.050  -0.718  -5.826  0.00  0.00    -0.275 OA
ATOM     27  H   UNL     1       0.261  -3.033  -6.807  0.00  0.00    +0.149 HD
BRANCH  24  28
ATOM     28  C   UNL     1       1.157  -3.079  -4.883  0.00  0.00    +0.108 C 
BRANCH  28  29
ATOM     29  C   UNL     1       0.469  -4.435  -4.708  0.00  0.00    +0.052 C 
BRANCH  29  32
ATOM     30  C   UNL     1      -1.196  -6.327  -2.671  0.00  0.00    +0.035 C 
ATOM     31  C   UNL     1       0.331  -6.310  -2.769  0.00  0.00    +0.103 C 
ATOM     32  C   UNL     1       0.801  -4.996  -3.349  0.00  0.00    -0.037 C 
ATOM     33  C   UNL     1       1.582  -4.423  -2.399  0.00  0.00    +0.000 A 
ATOM     34  C   UNL     1       2.294  -3.195  -2.372  0.00  0.00    +0.028 A 
ATOM     35  C   UNL     1       3.026  -2.846  -1.260  0.00  0.00    +0.052 A 
ATOM     36  C   UNL     1       3.090  -3.717  -0.091  0.00  0.00    +0.021 A 
ATOM     37  C   UNL     1       2.433  -4.894  -0.060  0.00  0.00    +0.027 A 
ATOM     38  C   UNL     1       1.639  -5.315  -1.220  0.00  0.00    +0.043 A 
ATOM     39  N   UNL     1       0.924  -6.395  -1.430  0.00  0.00    -0.378 N 
ATOM     40  H   UNL     1       0.807  -7.128  -0.805  0.00  0.00    +0.160 HD
BRANCH  35  41
ATOM     41  C   UNL     1       3.738  -1.604  -1.250  0.00  0.00    +0.099 C 
ATOM     42  N   UNL     1       4.303  -0.619  -1.242  0.00  0.00    -0.191 NA
ENDBRANCH  35  41
ENDBRANCH  29  32
ENDBRANCH  28  29
ENDBRANCH  24  28
ENDBRANCH   1  25
TORSDOF 7
