REMARK  Name = ZINC21240501
REMARK  7 active torsions:
REMARK  status: ('A' for Active; 'I' for Inactive)
REMARK    1  A    between atoms: C_1  and  C_2
REMARK    2  A    between atoms: C_2  and  C_3
REMARK    3  A    between atoms: C_2  and  O_4
REMARK    4  A    between atoms: O_4  and  C_5
REMARK    5  A    between atoms: C_8  and  C_11
REMARK    6  A    between atoms: C_16  and  C_26
REMARK    7  A    between atoms: C_31  and  N_32
REMARK                            x       y       z     vdW  Elec       q    Type
REMARK                         _______ _______ _______ _____ _____    ______ ____
ROOT
ATOM      1  C   UNL     1      -0.364   8.203  -3.861  0.00  0.00    +0.032 C 
ATOM      2  C   UNL     1       1.026   7.599  -4.052  0.00  0.00    +0.059 C 
ATOM      3  C   UNL     1       1.591   7.169  -2.708  0.00  0.00    +0.017 C 
ATOM      4  C   UNL     1       0.776   6.712  -1.744  0.00  0.00    +0.036 C 
ATOM      5  C   UNL     1       1.205   6.217  -0.383  0.00  0.00    +0.138 C 
ATOM      6  N   UNL     1       2.584   6.504  -0.048  0.00  0.00    -0.331 N 
ATOM      7  C   UNL     1       3.634   5.939  -0.770  0.00  0.00    +0.049 A 
ATOM      8  C   UNL     1       4.481   5.003  -0.200  0.00  0.00    +0.025 A 
ATOM      9  C   UNL     1       5.443   4.389  -0.985  0.00  0.00    +0.002 A 
ATOM     10  C   UNL     1       5.559   4.707  -2.326  0.00  0.00    +0.002 A 
ATOM     11  C   UNL     1       4.727   5.657  -2.893  0.00  0.00    +0.025 A 
ATOM     12  C   UNL     1       3.777   6.283  -2.106  0.00  0.00    +0.052 A 
ATOM     13  N   UNL     1       2.940   7.277  -2.601  0.00  0.00    -0.316 N 
ATOM     14  C   UNL     1      -0.622   6.666  -1.954  0.00  0.00    +0.163 C 
ATOM     15  O   UNL     1      -1.334   6.236  -1.068  0.00  0.00    -0.292 OA
ATOM     16  C   UNL     1      -1.258   7.129  -3.231  0.00  0.00    +0.088 C 
ATOM     17  H   UNL     1       2.818   7.178   0.788  0.00  0.00    +0.147 HD
ATOM     18  H   UNL     1       3.445   8.201  -2.918  0.00  0.00    +0.152 HD
ENDROOT
BRANCH   1  22
ATOM     19  C   UNL     1      -1.965   9.378  -7.646  0.00  0.00    +0.121 A 
ATOM     20  C   UNL     1      -1.780  10.322  -6.646  0.00  0.00    +0.046 A 
ATOM     21  C   UNL     1      -1.262   9.940  -5.424  0.00  0.00    +0.007 A 
ATOM     22  C   UNL     1      -0.929   8.618  -5.196  0.00  0.00    -0.043 A 
ATOM     23  C   UNL     1      -1.107   7.676  -6.192  0.00  0.00    +0.007 A 
ATOM     24  C   UNL     1      -1.630   8.052  -7.415  0.00  0.00    +0.046 A 
BRANCH  19  25
ATOM     25  O   UNL     1      -2.474   9.752  -8.849  0.00  0.00    -0.489 OA
BRANCH  25  27
ATOM     26  C   UNL     1      -1.618  11.950  -9.374  0.00  0.00    +0.051 C 
ATOM     27  C   UNL     1      -2.849  11.123  -8.998  0.00  0.00    +0.167 C 
ATOM     28  C   UNL     1      -3.903  11.247 -10.099  0.00  0.00    +0.051 C 
ENDBRANCH  25  27
ENDBRANCH  19  25
ENDBRANCH   1  22
BRANCH   5  29
ATOM     29  C   UNL     1       1.001   4.724  -0.331  0.00  0.00    +0.007 A 
ATOM     30  C   UNL     1       0.864   4.005  -1.504  0.00  0.00    +0.008 A 
ATOM     31  C   UNL     1       0.678   2.636  -1.457  0.00  0.00    +0.000 A 
ATOM     32  C   UNL     1       0.628   1.987  -0.237  0.00  0.00    +0.002 A 
ATOM     33  C   UNL     1       0.759   2.707   0.935  0.00  0.00    +0.033 A 
ATOM     34  C   UNL     1       0.951   4.075   0.888  0.00  0.00    +0.131 A 
BRANCH  34  35
ATOM     35  N   UNL     1       1.097   4.846   2.143  0.00  0.00    +0.057 N 
ATOM     36  O   UNL     1       0.940   4.295   3.218  0.00  0.00    -0.126 OA
ATOM     37  O   UNL     1       1.376   6.031   2.101  0.00  0.00    -0.126 OA
ENDBRANCH  34  35
ENDBRANCH   5  29
TORSDOF 5
