REMARK  Name = ZINC35886276
REMARK  7 active torsions:
REMARK  status: ('A' for Active; 'I' for Inactive)
REMARK    1  A    between atoms: C_1  and  C_2
REMARK    2  A    between atoms: C_5  and  C_8
REMARK    3  A    between atoms: C_12  and  C_24
REMARK    4  A    between atoms: C_14  and  C_17
REMARK    5  A    between atoms: C_24  and  N_25
REMARK    6  A    between atoms: C_28  and  C_31
REMARK    7  A    between atoms: C_31  and  C_32
REMARK                            x       y       z     vdW  Elec       q    Type
REMARK                         _______ _______ _______ _____ _____    ______ ____
ROOT
ATOM      1  C   UNL     1      -0.182  -4.758  -0.214  0.00  0.00    +0.247 C 
ATOM      2  O   UNL     1      -0.412  -5.486  -1.160  0.00  0.00    -0.270 OA
ATOM      3  N   UNL     1      -0.107  -5.271   1.030  0.00  0.00    -0.297 N 
ATOM      4  C   UNL     1      -0.155  -6.697   1.429  0.00  0.00    +0.110 C 
ATOM      5  C   UNL     1      -1.005  -6.713   2.717  0.00  0.00    -0.001 C 
ATOM      6  C   UNL     1      -0.876  -5.289   3.297  0.00  0.00    +0.039 C 
ATOM      7  C   UNL     1       0.047  -4.538   2.308  0.00  0.00    +0.116 C 
ENDROOT
BRANCH   1  12
ATOM      8  C   UNL     1       0.589   0.883  -1.049  0.00  0.00    +0.044 C 
ATOM      9  C   UNL     1       0.387  -0.594  -0.831  0.00  0.00    -0.050 A 
ATOM     10  C   UNL     1      -0.315  -1.339  -1.762  0.00  0.00    +0.004 A 
ATOM     11  C   UNL     1      -0.503  -2.691  -1.568  0.00  0.00    +0.013 A 
ATOM     12  C   UNL     1       0.016  -3.309  -0.429  0.00  0.00    +0.037 A 
ATOM     13  C   UNL     1       0.723  -2.552   0.507  0.00  0.00    +0.013 A 
ATOM     14  C   UNL     1       0.909  -1.201   0.298  0.00  0.00    +0.004 A 
ENDBRANCH   1  12
BRANCH   6  15
ATOM     15  C   UNL     1      -0.248  -5.336   4.666  0.00  0.00    -0.040 A 
ATOM     16  C   UNL     1       1.083  -5.685   4.803  0.00  0.00    +0.004 A 
ATOM     17  C   UNL     1       1.661  -5.728   6.058  0.00  0.00    +0.003 A 
ATOM     18  C   UNL     1       0.909  -5.423   7.177  0.00  0.00    +0.038 A 
ATOM     19  C   UNL     1      -0.423  -5.074   7.040  0.00  0.00    +0.124 A 
ATOM     20  C   UNL     1      -1.000  -5.025   5.782  0.00  0.00    +0.042 A 
ATOM     21  F   UNL     1      -1.160  -4.776   8.133  0.00  0.00    -0.205 F 
ENDBRANCH   6  15
BRANCH   5  22
ATOM     22  C   UNL     1      -0.455  -7.744   3.705  0.00  0.00    -0.073 C 
BRANCH  22  23
ATOM     23  N   UNL     1      -1.379  -7.877   4.839  0.00  0.00    +0.380 N 
ATOM     24  C   UNL     1      -2.642  -8.462   4.373  0.00  0.00    -0.079 C 
ATOM     25  C   UNL     1      -3.637  -8.528   5.534  0.00  0.00    -0.015 C 
ATOM     26  C   UNL     1      -3.052  -9.396   6.652  0.00  0.00    -0.010 C 
ATOM     27  C   UNL     1      -1.699  -8.819   7.078  0.00  0.00    -0.015 C 
ATOM     28  C   UNL     1      -0.776  -8.743   5.860  0.00  0.00    -0.079 C 
ATOM     29  H   UNL     1      -1.558  -6.966   5.235  0.00  0.00    -0.082 HD
BRANCH  26  30
ATOM     30  C   UNL     1      -4.006  -9.402   7.848  0.00  0.00    +0.038 C 
BRANCH  30  31
ATOM     31  C   UNL     1      -3.490 -10.354   8.897  0.00  0.00    -0.047 A 
ATOM     32  C   UNL     1      -3.872 -11.682   8.873  0.00  0.00    +0.003 A 
ATOM     33  C   UNL     1      -3.399 -12.554   9.836  0.00  0.00    +0.000 A 
ATOM     34  C   UNL     1      -2.544 -12.098  10.821  0.00  0.00    +0.000 A 
ATOM     35  C   UNL     1      -2.161 -10.770  10.844  0.00  0.00    +0.000 A 
ATOM     36  C   UNL     1      -2.631  -9.899   9.879  0.00  0.00    +0.003 A 
ENDBRANCH  30  31
ENDBRANCH  26  30
ENDBRANCH  22  23
ENDBRANCH   5  22
TORSDOF 6
