REMARK  Name = ZINC06919967
REMARK  14 active torsions:
REMARK  status: ('A' for Active; 'I' for Inactive)
REMARK    1  A    between atoms: C_1  and  C_2
REMARK    2  A    between atoms: C_2  and  C_3
REMARK    3  A    between atoms: C_3  and  C_5
REMARK    4  A    between atoms: C_3  and  C_6
REMARK    5  A    between atoms: C_13  and  C_18
REMARK    6  A    between atoms: N_20  and  C_21
REMARK    7  A    between atoms: C_21  and  C_22
REMARK    8  A    between atoms: C_22  and  C_24
REMARK    9  A    between atoms: C_22  and  C_25
REMARK   10  A    between atoms: C_25  and  N_61
REMARK   11  A    between atoms: C_26  and  C_27
REMARK   12  A    between atoms: C_26  and  N_61
REMARK   13  A    between atoms: C_28  and  C_29
REMARK   14  A    between atoms: C_28  and  N_61
REMARK                            x       y       z     vdW  Elec       q    Type
REMARK                         _______ _______ _______ _____ _____    ______ ____
ROOT
ATOM      1  C   UNL     1      -3.066   0.799  13.136  0.00  0.00    +0.160 C 
ATOM      2  C   UNL     1      -1.675   0.230  13.255  0.00  0.00    +0.238 C 
ATOM      3  O   UNL     1      -1.285  -0.183  14.326  0.00  0.00    -0.273 OA
ATOM      4  N   UNL     1      -0.860   0.176  12.184  0.00  0.00    -0.282 N 
ATOM      5  C   UNL     1      -1.271   0.692  10.948  0.00  0.00    +0.055 A 
ATOM      6  C   UNL     1      -0.577   0.389   9.793  0.00  0.00    +0.038 A 
ATOM      7  C   UNL     1      -1.001   0.919   8.570  0.00  0.00    +0.039 A 
ATOM      8  C   UNL     1      -2.119   1.756   8.520  0.00  0.00    +0.015 A 
ATOM      9  C   UNL     1      -2.812   2.052   9.674  0.00  0.00    +0.025 A 
ATOM     10  C   UNL     1      -2.394   1.525  10.887  0.00  0.00    +0.049 A 
ATOM     11  N   UNL     1      -3.082   1.809  12.068  0.00  0.00    -0.331 N 
ATOM     12  H   UNL     1       0.019  -0.224  12.269  0.00  0.00    +0.155 HD
ATOM     13  H   UNL     1      -3.555   2.648  12.181  0.00  0.00    +0.147 HD
ENDROOT
BRANCH   7  14
ATOM     14  C   UNL     1      -0.264   0.599   7.333  0.00  0.00    +0.244 C 
ATOM     15  O   UNL     1       0.712  -0.126   7.377  0.00  0.00    -0.270 OA
ATOM     16  N   UNL     1      -0.672   1.109   6.154  0.00  0.00    -0.311 N 
ATOM     17  H   UNL     1      -1.450   1.687   6.119  0.00  0.00    +0.149 HD
BRANCH  16  18
ATOM     18  C   UNL     1       0.060   0.791   4.926  0.00  0.00    +0.106 C 
BRANCH  18  19
ATOM     19  C   UNL     1      -0.605   1.492   3.740  0.00  0.00    -0.014 C 
ATOM     20  C   UNL     1      -0.478   3.007   3.906  0.00  0.00    +0.007 C 
BRANCH  19  21
ATOM     21  C   UNL     1       0.082   1.061   2.442  0.00  0.00    -0.074 C 
BRANCH  21  22
ATOM     22  N   UNL     1      -0.607   1.705   1.304  0.00  0.00    +0.380 N 
ATOM     23  H   UNL     1      -0.756   2.697   1.523  0.00  0.00    -0.082 HD
BRANCH  22  24
ATOM     24  C   UNL     1       0.225   1.603   0.087  0.00  0.00    -0.082 C 
ATOM     25  C   UNL     1      -0.400   2.464  -1.012  0.00  0.00    -0.017 C 
ENDBRANCH  22  24
BRANCH  22  26
ATOM     26  C   UNL     1      -1.917   1.061   1.076  0.00  0.00    -0.082 C 
ATOM     27  C   UNL     1      -1.736  -0.420   0.738  0.00  0.00    -0.017 C 
ENDBRANCH  22  26
ENDBRANCH  21  22
ENDBRANCH  19  21
ENDBRANCH  18  19
ENDBRANCH  16  18
ENDBRANCH   7  14
BRANCH   1  28
ATOM     28  C   UNL     1      -4.050  -0.323  12.796  0.00  0.00    +0.015 C 
ATOM     29  C   UNL     1      -3.579  -1.050  11.535  0.00  0.00    +0.010 C 
BRANCH  28  31
ATOM     30  C   UNL     1      -5.190  -2.365  13.675  0.00  0.00    +0.004 C 
ATOM     31  C   UNL     1      -4.116  -1.313  13.960  0.00  0.00    +0.002 C 
ENDBRANCH  28  31
ENDBRANCH   1  28
TORSDOF 9
