REMARK  Name = ZINC12412425
REMARK  9 active torsions:
REMARK  status: ('A' for Active; 'I' for Inactive)
REMARK    1  A    between atoms: C_1  and  C_2
REMARK    2  A    between atoms: C_2  and  O_3
REMARK    3  A    between atoms: O_3  and  C_4
REMARK    4  A    between atoms: C_4  and  C_6
REMARK    5  A    between atoms: C_7  and  C_40
REMARK    6  A    between atoms: C_14  and  C_15
REMARK    7  A    between atoms: C_26  and  C_28
REMARK    8  A    between atoms: C_31  and  O_38
REMARK    9  A    between atoms: O_38  and  C_39
REMARK                            x       y       z     vdW  Elec       q    Type
REMARK                         _______ _______ _______ _____ _____    ______ ____
ROOT
ATOM      1  C   UNL     1       2.689   0.261   1.434  0.00  0.00    +0.085 C 
ATOM      2  C   UNL     1       3.638  -0.544   2.002  0.00  0.00    +0.053 C 
ATOM      3  N   UNL     1       4.605  -1.072   1.262  0.00  0.00    -0.228 NA
ATOM      4  C   UNL     1       4.743  -0.886  -0.026  0.00  0.00    +0.178 A 
ATOM      5  N   UNL     1       3.898  -0.113  -0.790  0.00  0.00    -0.275 N 
ATOM      6  C   UNL     1       4.153  -0.006  -2.100  0.00  0.00    +0.268 A 
ATOM      7  O   UNL     1       3.432   0.668  -2.813  0.00  0.00    -0.266 OA
ATOM      8  C   UNL     1       5.273  -0.686  -2.649  0.00  0.00    +0.081 A 
ATOM      9  C   UNL     1       5.718  -0.719  -3.937  0.00  0.00    +0.030 C 
ATOM     10  S   UNL     1       5.942  -1.484  -1.200  0.00  0.00    -0.046 S 
ATOM     11  C   UNL     1       2.776   0.527  -0.051  0.00  0.00    +0.162 C 
ATOM     12  C   UNL     1       3.586  -0.833   3.480  0.00  0.00    +0.066 C 
ENDROOT
BRANCH   9  13
ATOM     13  C   UNL     1       4.920  -0.113  -5.002  0.00  0.00    +0.001 A 
ATOM     14  C   UNL     1       3.555  -0.090  -5.090  0.00  0.00    +0.091 A 
ATOM     15  N   UNL     1       3.182   0.566  -6.218  0.00  0.00    -0.360 N 
ATOM     16  H   UNL     1       2.264   0.711  -6.496  0.00  0.00    +0.165 HD
ATOM     17  C   UNL     1       4.292   0.991  -6.918  0.00  0.00    +0.047 A 
ATOM     18  C   UNL     1       5.427   0.590  -6.196  0.00  0.00    +0.007 A 
ATOM     19  C   UNL     1       6.700   0.888  -6.672  0.00  0.00    +0.010 A 
ATOM     20  C   UNL     1       6.841   1.579  -7.856  0.00  0.00    +0.001 A 
ATOM     21  C   UNL     1       5.721   1.976  -8.572  0.00  0.00    +0.002 A 
ATOM     22  C   UNL     1       4.455   1.688  -8.111  0.00  0.00    +0.026 A 
ENDBRANCH   9  13
BRANCH  11  23
ATOM     23  C   UNL     1       2.879   2.017  -0.250  0.00  0.00    -0.012 A 
ATOM     24  C   UNL     1       4.101   2.611  -0.339  0.00  0.00    +0.010 A 
ATOM     25  C   UNL     1       4.219   3.986  -0.522  0.00  0.00    +0.046 A 
ATOM     26  C   UNL     1       3.111   4.779  -0.620  0.00  0.00    +0.128 A 
ATOM     27  C   UNL     1       1.830   4.198  -0.533  0.00  0.00    +0.024 A 
ATOM     28  C   UNL     1       1.715   2.798  -0.345  0.00  0.00    -0.009 A 
ATOM     29  C   UNL     1       0.438   2.217  -0.258  0.00  0.00    +0.009 A 
ATOM     30  C   UNL     1      -0.668   3.005  -0.361  0.00  0.00    +0.001 A 
ATOM     31  C   UNL     1      -0.554   4.382  -0.540  0.00  0.00    +0.001 A 
ATOM     32  C   UNL     1       0.667   4.978  -0.628  0.00  0.00    +0.012 A 
BRANCH  26  33
ATOM     33  O   UNL     1       3.243   6.119  -0.800  0.00  0.00    -0.495 OA
ATOM     34  C   UNL     1       4.573   6.635  -0.879  0.00  0.00    +0.277 C 
ENDBRANCH  26  33
ENDBRANCH  11  23
BRANCH   1  35
ATOM     35  C   UNL     1       1.663   0.824   2.210  0.00  0.00    +0.339 C 
ATOM     36  O   UNL     1       0.562   0.304   2.234  0.00  0.00    -0.245 OA
BRANCH  35  37
ATOM     37  O   UNL     1       1.898   1.943   2.929  0.00  0.00    -0.462 OA
BRANCH  37  39
ATOM     38  C   UNL     1       1.245   3.731   4.418  0.00  0.00    +0.048 C 
ATOM     39  C   UNL     1       0.845   2.398   3.782  0.00  0.00    +0.229 C 
ENDBRANCH  37  39
ENDBRANCH  35  37
ENDBRANCH   1  35
TORSDOF 6
