REMARK  Name = ZINC20589864
REMARK  10 active torsions:
REMARK  status: ('A' for Active; 'I' for Inactive)
REMARK    1  A    between atoms: C_1  and  C_2
REMARK    2  A    between atoms: C_2  and  C_3
REMARK    3  A    between atoms: C_2  and  C_4
REMARK    4  A    between atoms: C_4  and  C_5
REMARK    5  A    between atoms: C_8  and  C_27
REMARK    6  A    between atoms: C_9  and  N_11
REMARK    7  A    between atoms: N_14  and  C_17
REMARK    8  A    between atoms: C_17  and  C_18
REMARK    9  A    between atoms: N_20  and  C_21
REMARK   10  A    between atoms: C_21  and  C_22
REMARK                            x       y       z     vdW  Elec       q    Type
REMARK                         _______ _______ _______ _____ _____    ______ ____
ROOT
ATOM      1  N   UNL     1       1.107  -2.071  -0.020  0.00  0.00    -0.318 N 
ATOM      2  C   UNL     1       1.745  -2.605  -1.231  0.00  0.00    +0.088 C 
ATOM      3  C   UNL     1       1.763  -4.134  -1.163  0.00  0.00    -0.059 C 
ATOM      4  N   UNL     1       0.387  -4.632  -1.034  0.00  0.00    +0.387 N 
ATOM      5  C   UNL     1      -0.252  -4.098   0.178  0.00  0.00    -0.059 C 
ATOM      6  C   UNL     1      -0.270  -2.570   0.110  0.00  0.00    +0.088 C 
ATOM      7  H   UNL     1      -0.186  -4.279  -1.903  0.00  0.00    -0.081 HD
ENDROOT
BRANCH   1  12
ATOM      8  C   UNL     1       0.516   1.308  -0.996  0.00  0.00    +0.047 A 
ATOM      9  C   UNL     1       1.174   2.049  -0.028  0.00  0.00    -0.022 A 
ATOM     10  C   UNL     1       1.840   1.392   0.990  0.00  0.00    -0.022 A 
ATOM     11  C   UNL     1       1.825  -0.007   1.006  0.00  0.00    +0.095 A 
ATOM     12  C   UNL     1       1.136  -0.688  -0.012  0.00  0.00    +0.139 A 
ATOM     13  N   UNL     1       0.514  -0.010  -0.965  0.00  0.00    -0.235 NA
ATOM     14  C   UNL     1       2.477   2.396   1.922  0.00  0.00    +0.037 C 
ATOM     15  C   UNL     1       1.771   3.735   1.615  0.00  0.00    +0.009 C 
ATOM     16  C   UNL     1       1.320   3.544   0.151  0.00  0.00    +0.037 C 
BRANCH  11  17
ATOM     17  C   UNL     1       2.501  -0.732   2.040  0.00  0.00    +0.103 C 
ATOM     18  N   UNL     1       3.037  -1.307   2.860  0.00  0.00    -0.191 NA
ENDBRANCH  11  17
BRANCH   8  19
ATOM     19  C   UNL     1      -0.205   2.022  -2.109  0.00  0.00    +0.058 C 
BRANCH  19  21
ATOM     20  C   UNL     1      -1.676   3.255  -0.509  0.00  0.00    +0.007 C 
ATOM     21  C   UNL     1      -1.653   2.285  -1.693  0.00  0.00    -0.011 C 
ATOM     22  C   UNL     1      -2.419   2.897  -2.867  0.00  0.00    +0.007 C 
ENDBRANCH  19  21
ENDBRANCH   8  19
ENDBRANCH   1  12
BRANCH   4  23
ATOM     23  C   UNL     1       0.355  -6.101  -1.041  0.00  0.00    +0.019 C 
BRANCH  23  24
ATOM     24  C   UNL     1       0.790  -6.606  -2.393  0.00  0.00    +0.197 C 
ATOM     25  O   UNL     1       1.095  -5.819  -3.264  0.00  0.00    -0.278 OA
ATOM     26  N   UNL     1       0.839  -7.931  -2.634  0.00  0.00    -0.310 N 
ATOM     27  H   UNL     1       0.562  -8.644  -1.844  0.00  0.00    +0.149 HD
BRANCH  26  28
ATOM     28  C   UNL     1       1.261  -8.421  -3.948  0.00  0.00    +0.178 C 
BRANCH  28  29
ATOM     29  C   UNL     1       1.229  -9.928  -3.956  0.00  0.00    +0.122 A 
ATOM     30  C   UNL     1       0.177 -10.690  -4.302  0.00  0.00    +0.046 A 
ATOM     31  C   UNL     1       0.584 -12.037  -4.165  0.00  0.00    +0.041 A 
ATOM     32  C   UNL     1       1.862 -12.017  -3.744  0.00  0.00    +0.195 A 
ATOM     33  O   UNL     1       2.249 -10.737  -3.625  0.00  0.00    -0.466 OA
ENDBRANCH  28  29
ENDBRANCH  26  28
ENDBRANCH  23  24
ENDBRANCH   4  23
TORSDOF 8
