REMARK  Name = ZINC36855935
REMARK  9 active torsions:
REMARK  status: ('A' for Active; 'I' for Inactive)
REMARK    1  A    between atoms: C_1  and  C_2
REMARK    2  A    between atoms: C_3  and  C_33
REMARK    3  A    between atoms: N_9  and  C_30
REMARK    4  A    between atoms: C_10  and  S_12
REMARK    5  A    between atoms: S_12  and  C_13
REMARK    6  A    between atoms: C_13  and  C_14
REMARK    7  A    between atoms: N_16  and  C_17
REMARK    8  A    between atoms: C_30  and  C_31
REMARK    9  A    between atoms: C_30  and  C_32
REMARK                            x       y       z     vdW  Elec       q    Type
REMARK                         _______ _______ _______ _____ _____    ______ ____
ROOT
ATOM      1  C   UNL     1      -1.494  -4.511   5.378  0.00  0.00    +0.173 C 
ENDROOT
BRANCH   1   2
ATOM      2  C   UNL     1      -1.711  -5.057   6.766  0.00  0.00    +0.227 C 
ATOM      3  O   UNL     1      -1.591  -4.330   7.729  0.00  0.00    -0.275 OA
ATOM      4  N   UNL     1      -2.038  -6.353   6.937  0.00  0.00    -0.285 N 
ATOM      5  H   UNL     1      -2.061  -6.952   6.174  0.00  0.00    +0.155 HD
BRANCH   4   6
ATOM      6  C   UNL     1      -2.346  -6.835   8.216  0.00  0.00    +0.037 A 
ATOM      7  C   UNL     1      -2.056  -8.152   8.550  0.00  0.00    +0.027 A 
ATOM      8  C   UNL     1      -2.358  -8.630   9.811  0.00  0.00    +0.051 A 
ATOM      9  C   UNL     1      -2.950  -7.797  10.744  0.00  0.00    +0.167 A 
ATOM     10  C   UNL     1      -3.242  -6.474  10.412  0.00  0.00    +0.169 A 
ATOM     11  C   UNL     1      -2.935  -5.995   9.151  0.00  0.00    +0.072 A 
ATOM     12  O   UNL     1      -3.814  -5.872  11.502  0.00  0.00    -0.447 OA
ATOM     13  C   UNL     1      -4.302  -6.971  12.285  0.00  0.00    +0.254 C 
ATOM     14  O   UNL     1      -3.345  -8.012  12.040  0.00  0.00    -0.448 OA
ATOM     15  C   UNL     1      -5.707  -7.390  11.842  0.00  0.00    +0.093 C 
ATOM     16  C   UNL     1      -6.400  -7.827  13.160  0.00  0.00    +0.008 C 
ATOM     17  C   UNL     1      -5.841  -6.818  14.195  0.00  0.00    +0.008 C 
ATOM     18  C   UNL     1      -4.370  -6.613  13.770  0.00  0.00    +0.093 C 
ENDBRANCH   4   6
ENDBRANCH   1   2
BRANCH   1  19
ATOM     19  S   UNL     1      -1.070  -2.751   5.480  0.00  0.00    -0.078 S 
BRANCH  19  29
ATOM     20  C   UNL     1      -0.011   0.036  -0.811  0.00  0.00    +0.045 C 
ATOM     21  C   UNL     1      -0.375  -1.317  -0.258  0.00  0.00    -0.026 A 
ATOM     22  C   UNL     1      -0.574  -2.356  -1.082  0.00  0.00    -0.008 A 
ATOM     23  S   UNL     1      -0.970  -3.695   0.027  0.00  0.00    -0.073 S 
ATOM     24  C   UNL     1      -0.857  -2.820   1.566  0.00  0.00    +0.117 A 
ATOM     25  C   UNL     1      -0.508  -1.513   1.176  0.00  0.00    +0.075 A 
ATOM     26  C   UNL     1      -0.342  -0.570   2.238  0.00  0.00    +0.263 A 
ATOM     27  O   UNL     1      -0.044   0.587   1.995  0.00  0.00    -0.267 OA
ATOM     28  N   UNL     1      -0.517  -0.976   3.509  0.00  0.00    -0.285 N 
ATOM     29  C   UNL     1      -0.851  -2.267   3.800  0.00  0.00    +0.173 A 
ATOM     30  N   UNL     1      -1.021  -3.155   2.841  0.00  0.00    -0.216 NA
ATOM     31  C   UNL     1      -0.484  -2.385  -2.586  0.00  0.00    +0.052 C 
BRANCH  28  32
ATOM     32  C   UNL     1      -0.347  -0.014   4.601  0.00  0.00    +0.087 C 
ATOM     33  C   UNL     1       1.090   0.511   4.599  0.00  0.00    +0.031 C 
ATOM     34  C   UNL     1      -1.317   1.153   4.408  0.00  0.00    +0.031 C 
ENDBRANCH  28  32
ENDBRANCH  19  29
ENDBRANCH   1  19
TORSDOF 5
