REMARK  Name = ZINC09123427
REMARK  16 active torsions:
REMARK  status: ('A' for Active; 'I' for Inactive)
REMARK    1  A    between atoms: C_1  and  C_2
REMARK    2  A    between atoms: C_2  and  O_3
REMARK    3  A    between atoms: O_3  and  C_4
REMARK    4  A    between atoms: C_7  and  C_13
REMARK    5  A    between atoms: C_9  and  O_10
REMARK    6  A    between atoms: O_10  and  C_11
REMARK    7  A    between atoms: C_11  and  C_12
REMARK    8  A    between atoms: C_16  and  C_17
REMARK    9  A    between atoms: C_16  and  O_24
REMARK   10  A    between atoms: C_20  and  C_23
REMARK   11  A    between atoms: N_29  and  C_30
REMARK   12  A    between atoms: C_30  and  C_31
REMARK   13  A    between atoms: C_31  and  C_32
REMARK   14  A    between atoms: C_32  and  N_68
REMARK   15  A    between atoms: C_33  and  N_68
REMARK   16  A    between atoms: C_34  and  N_68
REMARK                            x       y       z     vdW  Elec       q    Type
REMARK                         _______ _______ _______ _____ _____    ______ ____
ROOT
ATOM      1  C   UNL     1      -2.678   0.672  -0.020  0.00  0.00    +0.145 C 
ATOM      2  C   UNL     1      -3.240   0.669   1.383  0.00  0.00    +0.071 C 
ATOM      3  C   UNL     1      -2.543   0.461   2.554  0.00  0.00    +0.133 C 
ATOM      4  C   UNL     1      -4.616   0.920   1.252  0.00  0.00    +0.249 C 
ATOM      5  O   UNL     1      -5.418   0.994   2.165  0.00  0.00    -0.282 OA
ATOM      6  C   UNL     1      -4.923   1.079  -0.195  0.00  0.00    +0.288 C 
ATOM      7  O   UNL     1      -6.025   1.305  -0.652  0.00  0.00    -0.266 OA
ATOM      8  N   UNL     1      -3.803   0.935  -0.923  0.00  0.00    -0.284 N 
ENDROOT
BRANCH   3   9
ATOM      9  C   UNL     1      -3.215   0.638   3.853  0.00  0.00    +0.017 A 
ATOM     10  C   UNL     1      -3.921   1.815   4.125  0.00  0.00    +0.012 A 
ATOM     11  C   UNL     1      -4.552   1.971   5.341  0.00  0.00    +0.004 A 
ATOM     12  C   UNL     1      -4.479   0.972   6.296  0.00  0.00    -0.050 A 
ATOM     13  C   UNL     1      -3.779  -0.194   6.036  0.00  0.00    +0.004 A 
ATOM     14  C   UNL     1      -3.147  -0.367   4.823  0.00  0.00    +0.012 A 
ATOM     15  C   UNL     1      -5.167   1.153   7.624  0.00  0.00    +0.044 C 
ENDBRANCH   3   9
BRANCH   1  19
ATOM     16  C   UNL     1       0.259   3.756  -0.417  0.00  0.00    +0.162 A 
ATOM     17  C   UNL     1      -1.090   4.074  -0.426  0.00  0.00    +0.050 A 
ATOM     18  C   UNL     1      -2.037   3.076  -0.294  0.00  0.00    +0.009 A 
ATOM     19  C   UNL     1      -1.641   1.758  -0.158  0.00  0.00    -0.019 A 
ATOM     20  C   UNL     1      -0.298   1.434  -0.143  0.00  0.00    +0.055 A 
ATOM     21  C   UNL     1       0.657   2.430  -0.275  0.00  0.00    +0.162 A 
BRANCH  16  22
ATOM     22  O   UNL     1       1.192   4.737  -0.548  0.00  0.00    -0.489 OA
BRANCH  22  24
ATOM     23  C   UNL     1       1.897   7.032  -0.822  0.00  0.00    +0.048 C 
ATOM     24  C   UNL     1       0.710   6.075  -0.690  0.00  0.00    +0.226 C 
ENDBRANCH  22  24
ENDBRANCH  16  22
BRANCH  21  25
ATOM     25  O   UNL     1       1.979   2.112  -0.265  0.00  0.00    -0.489 OA
BRANCH  25  26
ATOM     26  C   UNL     1       2.313   0.731  -0.115  0.00  0.00    +0.226 C 
ATOM     27  C   UNL     1       3.835   0.571  -0.127  0.00  0.00    +0.048 C 
ENDBRANCH  25  26
ENDBRANCH  21  25
ENDBRANCH   1  19
BRANCH   3  28
ATOM     28  O   UNL     1      -1.244   0.096   2.511  0.00  0.00    -0.506 OA
ATOM     29  H   UNL     1      -0.896  -0.011   3.443  0.00  0.00    +0.292 HD
ENDBRANCH   3  28
BRANCH   8  30
ATOM     30  C   UNL     1      -3.719   1.027  -2.382  0.00  0.00    +0.107 C 
BRANCH  30  31
ATOM     31  C   UNL     1      -3.937  -0.358  -2.994  0.00  0.00    +0.000 C 
BRANCH  31  32
ATOM     32  C   UNL     1      -3.849  -0.262  -4.519  0.00  0.00    -0.078 C 
BRANCH  32  35
ATOM     33  C   UNL     1      -5.429  -2.064  -4.864  0.00  0.00    -0.097 C 
ATOM     34  C   UNL     1      -3.750  -1.588  -6.542  0.00  0.00    -0.097 C 
ATOM     35  N   UNL     1      -4.041  -1.610  -5.093  0.00  0.00    +0.376 N 
ATOM     36  H   UNL     1      -3.396  -2.264  -4.633  0.00  0.00    -0.083 HD
ENDBRANCH  32  35
ENDBRANCH  31  32
ENDBRANCH  30  31
ENDBRANCH   8  30
TORSDOF 11
