REMARK  Name = ZINC36495109
REMARK  20 active torsions:
REMARK  status: ('A' for Active; 'I' for Inactive)
REMARK    1  A    between atoms: C_1  and  C_2
REMARK    2  A    between atoms: C_2  and  C_3
REMARK    3  A    between atoms: C_2  and  C_4
REMARK    4  A    between atoms: C_2  and  C_5
REMARK    5  A    between atoms: C_5  and  C_6
REMARK    6  A    between atoms: C_6  and  C_7
REMARK    7  A    between atoms: C_6  and  C_8
REMARK    8  A    between atoms: C_6  and  N_9
REMARK    9  A    between atoms: C_10  and  C_12
REMARK   10  A    between atoms: C_12  and  C_14
REMARK   11  A    between atoms: C_12  and  N_23
REMARK   12  A    between atoms: C_17  and  N_20
REMARK   13  A    between atoms: N_20  and  C_21
REMARK   14  A    between atoms: N_20  and  C_22
REMARK   15  A    between atoms: N_23  and  C_24
REMARK   16  A    between atoms: C_24  and  C_25
REMARK   17  A    between atoms: C_30  and  C_32
REMARK   18  A    between atoms: C_32  and  C_34
REMARK   19  A    between atoms: C_32  and  O_40
REMARK   20  A    between atoms: O_40  and  C_41
REMARK                            x       y       z     vdW  Elec       q    Type
REMARK                         _______ _______ _______ _____ _____    ______ ____
ROOT
ATOM      1  C   UNL     1       5.013   0.015  -5.334  0.00  0.00    +0.193 C 
ENDROOT
BRANCH   1   2
ATOM      2  C   UNL     1       4.308   1.111  -6.090  0.00  0.00    -0.018 A 
ATOM      3  C   UNL     1       4.518   2.433  -5.743  0.00  0.00    +0.008 A 
ATOM      4  C   UNL     1       3.873   3.441  -6.433  0.00  0.00    +0.023 A 
ATOM      5  C   UNL     1       3.012   3.125  -7.477  0.00  0.00    +0.029 A 
ATOM      6  C   UNL     1       2.804   1.796  -7.823  0.00  0.00    +0.023 A 
ATOM      7  C   UNL     1       3.456   0.793  -7.132  0.00  0.00    +0.008 A 
BRANCH   5   8
ATOM      8  N   UNL     1       2.358   4.141  -8.177  0.00  0.00    -0.336 N 
ATOM      9  C   UNL     1       2.579   5.542  -7.810  0.00  0.00    +0.129 C 
ATOM     10  C   UNL     1       1.451   3.806  -9.277  0.00  0.00    +0.129 C 
ENDBRANCH   5   8
ENDBRANCH   1   2
BRANCH   1  12
ATOM     11  N   UNL     1       2.984  -0.833  -4.201  0.00  0.00    -0.308 N 
ATOM     12  C   UNL     1       4.228  -0.326  -4.093  0.00  0.00    +0.239 C 
ATOM     13  O   UNL     1       4.716  -0.143  -2.998  0.00  0.00    -0.273 OA
ATOM     14  H   UNL     1       2.594  -0.979  -5.077  0.00  0.00    +0.149 HD
BRANCH  11  15
ATOM     15  C   UNL     1       2.222  -1.164  -2.995  0.00  0.00    +0.030 C 
ATOM     16  C   UNL     1       2.376  -0.039  -1.969  0.00  0.00    +0.031 C 
ATOM     17  C   UNL     1       2.748  -2.472  -2.401  0.00  0.00    +0.031 C 
BRANCH  15  18
ATOM     18  C   UNL     1       0.743  -1.326  -3.354  0.00  0.00    +0.031 C 
BRANCH  18  20
ATOM     19  C   UNL     1       0.746  -0.528  -5.722  0.00  0.00    +0.010 C 
ATOM     20  C   UNL     1       0.319  -0.194  -4.291  0.00  0.00    -0.036 C 
ATOM     21  C   UNL     1       0.989   1.110  -3.851  0.00  0.00    +0.010 C 
ATOM     22  C   UNL     1      -1.201  -0.029  -4.238  0.00  0.00    +0.010 C 
ENDBRANCH  18  20
ENDBRANCH  15  18
ENDBRANCH  11  15
ENDBRANCH   1  12
BRANCH   1  23
ATOM     23  N   UNL     1       6.354   0.467  -4.955  0.00  0.00    -0.276 N 
ATOM     24  C   UNL     1       7.313   0.593  -5.894  0.00  0.00    +0.250 C 
ATOM     25  O   UNL     1       7.109   0.205  -7.025  0.00  0.00    -0.272 OA
BRANCH  23  26
ATOM     26  C   UNL     1       6.652   0.783  -3.556  0.00  0.00    +0.183 C 
BRANCH  26  27
ATOM     27  C   UNL     1       7.109  -0.465  -2.846  0.00  0.00    +0.122 A 
ATOM     28  C   UNL     1       8.387  -0.845  -2.668  0.00  0.00    +0.046 A 
ATOM     29  C   UNL     1       8.356  -2.066  -1.956  0.00  0.00    +0.041 A 
ATOM     30  C   UNL     1       7.060  -2.359  -1.742  0.00  0.00    +0.195 A 
ATOM     31  O   UNL     1       6.310  -1.382  -2.278  0.00  0.00    -0.466 OA
ENDBRANCH  26  27
ENDBRANCH  23  26
BRANCH  24  32
ATOM     32  C   UNL     1       8.639   1.214  -5.538  0.00  0.00    +0.233 C 
BRANCH  32  33
ATOM     33  C   UNL     1       8.499   2.715  -5.511  0.00  0.00    -0.010 A 
ATOM     34  C   UNL     1       8.292   3.411  -6.687  0.00  0.00    +0.006 A 
ATOM     35  C   UNL     1       8.164   4.787  -6.662  0.00  0.00    +0.000 A 
ATOM     36  C   UNL     1       8.243   5.467  -5.461  0.00  0.00    +0.000 A 
ATOM     37  C   UNL     1       8.449   4.771  -4.285  0.00  0.00    +0.000 A 
ATOM     38  C   UNL     1       8.573   3.394  -4.309  0.00  0.00    +0.006 A 
ENDBRANCH  32  33
BRANCH  32  39
ATOM     39  O   UNL     1       9.616   0.844  -6.513  0.00  0.00    -0.366 OA
ATOM     40  C   UNL     1      10.318  -0.361  -6.204  0.00  0.00    +0.195 C 
ENDBRANCH  32  39
ENDBRANCH  24  32
ENDBRANCH   1  23
TORSDOF 12
