REMARK  Name = ZINC15018426
REMARK  10 active torsions:
REMARK  status: ('A' for Active; 'I' for Inactive)
REMARK    1  A    between atoms: C_1  and  O_2
REMARK    2  A    between atoms: O_2  and  C_3
REMARK    3  A    between atoms: C_7  and  C_10
REMARK    4  A    between atoms: C_8  and  O_9
REMARK    5  A    between atoms: N_11  and  N_12
REMARK    6  A    between atoms: C_13  and  C_15
REMARK    7  A    between atoms: C_15  and  N_25
REMARK    8  A    between atoms: C_16  and  C_17
REMARK    9  A    between atoms: C_18  and  C_19
REMARK   10  A    between atoms: C_26  and  C_28
REMARK                            x       y       z     vdW  Elec       q    Type
REMARK                         _______ _______ _______ _____ _____    ______ ____
ROOT
ATOM      1  C   UNL     1      -1.053  -2.085  -0.057  0.00  0.00    +0.098 C 
ATOM      2  C   UNL     1      -2.176  -2.846  -0.167  0.00  0.00    +0.028 C 
ENDROOT
BRANCH   1   4
ATOM      3  N   UNL     1       0.372  -4.056  -0.223  0.00  0.00    -0.202 N 
ATOM      4  C   UNL     1       0.268  -2.723  -0.053  0.00  0.00    +0.277 C 
ATOM      5  O   UNL     1       1.269  -2.049   0.103  0.00  0.00    -0.267 OA
ATOM      6  H   UNL     1      -0.427  -4.603  -0.278  0.00  0.00    +0.178 HD
BRANCH   3   8
ATOM      7  C   UNL     1       1.737  -5.937  -0.483  0.00  0.00    +0.142 C 
ATOM      8  N   UNL     1       1.636  -4.653  -0.320  0.00  0.00    -0.187 NA
BRANCH   7  13
ATOM      9  C   UNL     1       5.472  -6.380  -0.604  0.00  0.00    +0.163 A 
ATOM     10  C   UNL     1       5.569  -7.752  -0.778  0.00  0.00    +0.064 A 
ATOM     11  C   UNL     1       4.426  -8.530  -0.856  0.00  0.00    +0.022 A 
ATOM     12  C   UNL     1       3.179  -7.946  -0.761  0.00  0.00    +0.028 A 
ATOM     13  C   UNL     1       3.067  -6.564  -0.585  0.00  0.00    +0.041 A 
ATOM     14  C   UNL     1       4.223  -5.778  -0.512  0.00  0.00    +0.167 A 
ATOM     15 BR   UNL     1       4.574 -10.400  -1.093  0.00  0.00    -0.050 Br
BRANCH   9  17
ATOM     16  C   UNL     1       7.849  -6.307  -0.637  0.00  0.00    +0.277 C 
ATOM     17  O   UNL     1       6.599  -5.623  -0.529  0.00  0.00    -0.491 OA
ENDBRANCH   9  17
BRANCH  14  18
ATOM     18  O   UNL     1       4.125  -4.433  -0.347  0.00  0.00    -0.503 OA
ATOM     19  H   UNL     1       4.113  -4.149   0.577  0.00  0.00    +0.292 HD
ENDBRANCH  14  18
ENDBRANCH   7  13
ENDBRANCH   3   8
ENDBRANCH   1   4
BRANCH   1  20
ATOM     20  N   UNL     1      -1.158  -0.697   0.054  0.00  0.00    -0.277 N 
ATOM     21  C   UNL     1      -0.630  -0.064   1.120  0.00  0.00    +0.248 C 
ATOM     22  O   UNL     1      -0.139  -0.707   2.027  0.00  0.00    -0.270 OA
ATOM     23  H   UNL     1      -1.611  -0.189  -0.637  0.00  0.00    +0.155 HD
BRANCH  21  24
ATOM     24  C   UNL     1      -0.647   1.413   1.186  0.00  0.00    +0.037 A 
ATOM     25  C   UNL     1      -1.205   2.154   0.143  0.00  0.00    +0.013 A 
ATOM     26  C   UNL     1      -1.223   3.532   0.214  0.00  0.00    +0.001 A 
ATOM     27  C   UNL     1      -0.680   4.179   1.310  0.00  0.00    +0.000 A 
ATOM     28  C   UNL     1      -0.120   3.450   2.344  0.00  0.00    +0.001 A 
ATOM     29  C   UNL     1      -0.101   2.071   2.289  0.00  0.00    +0.013 A 
ENDBRANCH  21  24
ENDBRANCH   1  20
BRANCH   2  30
ATOM     30  C   UNL     1      -3.446  -2.233  -0.171  0.00  0.00    +0.003 C 
ATOM     31  C   UNL     1      -4.563  -2.989  -0.281  0.00  0.00    +0.008 C 
BRANCH  31  32
ATOM     32  C   UNL     1      -5.887  -2.349  -0.284  0.00  0.00    -0.025 A 
ATOM     33  C   UNL     1      -5.997  -0.959  -0.168  0.00  0.00    +0.008 A 
ATOM     34  C   UNL     1      -7.242  -0.367  -0.177  0.00  0.00    +0.001 A 
ATOM     35  C   UNL     1      -8.382  -1.144  -0.289  0.00  0.00    +0.000 A 
ATOM     36  C   UNL     1      -8.282  -2.521  -0.400  0.00  0.00    +0.001 A 
ATOM     37  C   UNL     1      -7.044  -3.128  -0.398  0.00  0.00    +0.008 A 
ENDBRANCH  31  32
ENDBRANCH   2  30
TORSDOF 9
