REMARK  Name = ZINC63626162
REMARK  9 active torsions:
REMARK  status: ('A' for Active; 'I' for Inactive)
REMARK    1  A    between atoms: C_1  and  O_2
REMARK    2  A    between atoms: O_2  and  C_3
REMARK    3  A    between atoms: C_9  and  C_12
REMARK    4  A    between atoms: C_12  and  C_13
REMARK    5  A    between atoms: C_13  and  N_14
REMARK    6  A    between atoms: C_15  and  C_28
REMARK    7  A    between atoms: N_19  and  C_22
REMARK    8  A    between atoms: C_28  and  C_29
REMARK    9  A    between atoms: N_31  and  C_32
REMARK                            x       y       z     vdW  Elec       q    Type
REMARK                         _______ _______ _______ _____ _____    ______ ____
ROOT
ATOM      1  N   UNL     1       1.749  -6.833  -0.034  0.00  0.00    -0.273 N 
ATOM      2  C   UNL     1       1.960  -8.147   0.598  0.00  0.00    +0.173 C 
ATOM      3  C   UNL     1       1.425  -9.126  -0.429  0.00  0.00    +0.248 C 
ATOM      4  O   UNL     1       1.391 -10.335  -0.340  0.00  0.00    -0.273 OA
ATOM      5  N   UNL     1       0.994  -8.373  -1.460  0.00  0.00    -0.193 N 
ATOM      6  C   UNL     1       1.176  -7.068  -1.228  0.00  0.00    +0.316 C 
ATOM      7  O   UNL     1       0.862  -6.193  -2.011  0.00  0.00    -0.252 OA
ENDROOT
BRANCH   5   8
ATOM      8  C   UNL     1       0.422  -8.893  -2.630  0.00  0.00    +0.045 A 
ATOM      9  C   UNL     1      -0.105  -8.036  -3.586  0.00  0.00    +0.024 A 
ATOM     10  C   UNL     1      -0.669  -8.552  -4.737  0.00  0.00    +0.002 A 
ATOM     11  C   UNL     1      -0.708  -9.919  -4.937  0.00  0.00    +0.000 A 
ATOM     12  C   UNL     1      -0.183 -10.775  -3.986  0.00  0.00    +0.002 A 
ATOM     13  C   UNL     1       0.387 -10.266  -2.836  0.00  0.00    +0.024 A 
ENDBRANCH   5   8
BRANCH   1  14
ATOM     14  C   UNL     1       2.090  -5.526   0.531  0.00  0.00    +0.114 C 
BRANCH  14  15
ATOM     15  C   UNL     1       0.937  -5.032   1.406  0.00  0.00    +0.052 C 
BRANCH  15  22
ATOM     16  C   UNL     1       0.259  -0.621   0.317  0.00  0.00    +0.121 A 
ATOM     17  C   UNL     1       0.802   0.296   1.233  0.00  0.00    +0.047 A 
ATOM     18  C   UNL     1       1.468  -0.092   2.342  0.00  0.00    +0.029 A 
ATOM     19  C   UNL     1       1.644  -1.521   2.622  0.00  0.00    +0.043 A 
ATOM     20  N   UNL     1       2.237  -2.154   3.604  0.00  0.00    -0.380 N 
ATOM     21  C   UNL     1       2.108  -3.598   3.374  0.00  0.00    +0.144 C 
ATOM     22  C   UNL     1       1.335  -3.745   2.083  0.00  0.00    -0.040 C 
ATOM     23  C   UNL     1       1.072  -2.488   1.658  0.00  0.00    +0.002 A 
ATOM     24  C   UNL     1       0.362  -1.961   0.487  0.00  0.00    +0.055 A 
ATOM     25  H   UNL     1       2.686  -1.739   4.357  0.00  0.00    +0.160 HD
BRANCH  16  27
ATOM     26  C   UNL     1      -0.483   1.272  -0.915  0.00  0.00    +0.277 C 
ATOM     27  O   UNL     1      -0.398  -0.147  -0.775  0.00  0.00    -0.495 OA
ENDBRANCH  16  27
ENDBRANCH  15  22
ENDBRANCH  14  15
ENDBRANCH   1  14
BRANCH   2  28
ATOM     28  C   UNL     1       1.173  -8.249   1.905  0.00  0.00    +0.128 C 
BRANCH  28  29
ATOM     29  C   UNL     1       1.513  -9.543   2.598  0.00  0.00    +0.219 C 
ATOM     30  O   UNL     1       2.379 -10.263   2.146  0.00  0.00    -0.275 OA
ATOM     31  N   UNL     1       0.856  -9.902   3.718  0.00  0.00    -0.285 N 
ATOM     32  H   UNL     1       0.116  -9.363   4.040  0.00  0.00    +0.155 HD
BRANCH  31  33
ATOM     33  C   UNL     1       1.240 -11.051   4.418  0.00  0.00    +0.033 A 
ATOM     34  C   UNL     1       0.284 -11.830   5.056  0.00  0.00    +0.023 A 
ATOM     35  C   UNL     1       0.666 -12.963   5.746  0.00  0.00    +0.002 A 
ATOM     36  C   UNL     1       2.001 -13.323   5.802  0.00  0.00    +0.000 A 
ATOM     37  C   UNL     1       2.955 -12.550   5.168  0.00  0.00    +0.002 A 
ATOM     38  C   UNL     1       2.579 -11.418   4.471  0.00  0.00    +0.023 A 
ENDBRANCH  31  33
ENDBRANCH  28  29
ENDBRANCH   2  28
TORSDOF 8
