REMARK  Name = ZINC40030184
REMARK  10 active torsions:
REMARK  status: ('A' for Active; 'I' for Inactive)
REMARK    1  A    between atoms: C_1  and  S_2
REMARK    2  A    between atoms: S_2  and  C_3
REMARK    3  A    between atoms: C_6  and  C_9
REMARK    4  A    between atoms: C_11  and  C_20
REMARK    5  A    between atoms: N_15  and  C_16
REMARK    6  A    between atoms: C_16  and  C_17
REMARK    7  A    between atoms: C_20  and  C_22
REMARK    8  A    between atoms: C_26  and  O_28
REMARK    9  A    between atoms: O_28  and  C_29
REMARK   10  A    between atoms: C_29  and  C_30
REMARK                            x       y       z     vdW  Elec       q    Type
REMARK                         _______ _______ _______ _____ _____    ______ ____
ROOT
ATOM      1  C   UNL     1       2.983  -1.444   5.002  0.00  0.00    +0.145 C 
ATOM      2  C   UNL     1       4.370  -1.952   4.688  0.00  0.00    +0.076 C 
ATOM      3  C   UNL     1       4.443  -3.214   5.171  0.00  0.00    +0.249 C 
ATOM      4  C   UNL     1       3.152  -3.569   5.798  0.00  0.00    +0.288 C 
ATOM      5  O   UNL     1       2.902  -4.636   6.324  0.00  0.00    -0.266 OA
ATOM      6  N   UNL     1       2.295  -2.535   5.702  0.00  0.00    -0.280 N 
ATOM      7  O   UNL     1       5.525  -4.023   5.093  0.00  0.00    -0.282 OA
ENDROOT
BRANCH   1  11
ATOM      8  C   UNL     1       0.915  -0.484   1.386  0.00  0.00    +0.008 A 
ATOM      9  C   UNL     1       1.298   0.527   2.259  0.00  0.00    +0.015 A 
ATOM     10  C   UNL     1       1.966   0.213   3.426  0.00  0.00    +0.007 A 
ATOM     11  C   UNL     1       2.254  -1.106   3.727  0.00  0.00    -0.022 A 
ATOM     12  C   UNL     1       1.875  -2.115   2.861  0.00  0.00    +0.007 A 
ATOM     13  C   UNL     1       1.201  -1.809   1.695  0.00  0.00    +0.015 A 
BRANCH   8  15
ATOM     14  C   UNL     1      -0.074   1.720  -0.064  0.00  0.00    +0.090 C 
ATOM     15  S   UNL     1       0.063  -0.088  -0.104  0.00  0.00    -0.129 S 
ENDBRANCH   8  15
ENDBRANCH   1  11
BRANCH   2  16
ATOM     16  C   UNL     1       5.433  -1.220   3.993  0.00  0.00    +0.195 C 
ATOM     17  O   UNL     1       5.818  -1.596   2.902  0.00  0.00    -0.287 OA
BRANCH  16  18
ATOM     18  C   UNL     1       6.037  -0.023   4.618  0.00  0.00    +0.026 A 
ATOM     19  C   UNL     1       5.685   0.341   5.920  0.00  0.00    +0.012 A 
ATOM     20  C   UNL     1       6.250   1.457   6.500  0.00  0.00    +0.004 A 
ATOM     21  C   UNL     1       7.166   2.219   5.796  0.00  0.00    +0.046 A 
ATOM     22  C   UNL     1       7.522   1.865   4.501  0.00  0.00    +0.122 A 
ATOM     23  C   UNL     1       6.965   0.743   3.912  0.00  0.00    +0.057 A 
BRANCH  22  24
ATOM     24  O   UNL     1       8.422   2.617   3.815  0.00  0.00    -0.487 OA
BRANCH  24  25
ATOM     25  C   UNL     1       8.961   3.757   4.487  0.00  0.00    +0.266 C 
BRANCH  25  26
ATOM     26  C   UNL     1       9.933   4.463   3.577  0.00  0.00    +0.008 A 
ATOM     27  C   UNL     1      10.169   3.976   2.305  0.00  0.00    +0.008 A 
ATOM     28  C   UNL     1      11.061   4.623   1.471  0.00  0.00    +0.000 A 
ATOM     29  C   UNL     1      11.718   5.759   1.908  0.00  0.00    +0.001 A 
ATOM     30  C   UNL     1      11.483   6.247   3.179  0.00  0.00    +0.020 A 
ATOM     31  C   UNL     1      10.586   5.603   4.013  0.00  0.00    +0.047 A 
ATOM     32 CL   UNL     1      10.286   6.220   5.607  0.00  0.00    -0.083 Cl
ENDBRANCH  25  26
ENDBRANCH  24  25
ENDBRANCH  22  24
ENDBRANCH  16  18
ENDBRANCH   2  16
BRANCH   6  33
ATOM     33  C   UNL     1       0.919  -2.505   6.206  0.00  0.00    +0.136 C 
BRANCH  33  34
ATOM     34  C   UNL     1      -0.019  -2.998   5.135  0.00  0.00    -0.016 C 
ATOM     35  C   UNL     1      -0.836  -3.991   5.386  0.00  0.00    +0.005 C 
ENDBRANCH  33  34
ENDBRANCH   6  33
TORSDOF 9
