REMARK  Name = ZINC13371332
REMARK  6 active torsions:
REMARK  status: ('A' for Active; 'I' for Inactive)
REMARK    1  A    between atoms: C_1  and  C_2
REMARK    2  A    between atoms: C_5  and  S_8
REMARK    3  A    between atoms: S_8  and  C_11
REMARK    4  A    between atoms: C_18  and  N_20
REMARK    5  A    between atoms: N_20  and  C_21
REMARK    6  A    between atoms: C_21  and  C_22
REMARK                            x       y       z     vdW  Elec       q    Type
REMARK                         _______ _______ _______ _____ _____    ______ ____
ROOT
ATOM      1  C   UNL     1       1.427  -4.580  -2.832  0.00  0.00    +0.175 C 
ATOM      2  C   UNL     1       0.816  -5.966  -3.173  0.00  0.00    +0.194 C 
ATOM      3  S   UNL     1      -0.864  -5.747  -2.438  0.00  0.00    -0.028 S 
ATOM      4  O   UNL     1      -1.319  -6.995  -1.934  0.00  0.00    -0.174 OA
ATOM      5  O   UNL     1      -1.679  -5.015  -3.343  0.00  0.00    -0.174 OA
ATOM      6  C   UNL     1      -0.395  -4.659  -1.029  0.00  0.00    +0.186 C 
ATOM      7  C   UNL     1       0.998  -4.139  -1.433  0.00  0.00    +0.101 C 
ENDROOT
BRANCH   1   8
ATOM      8  S   UNL     1       3.236  -4.695  -2.897  0.00  0.00    +0.003 S 
ATOM      9  O   UNL     1       3.813  -3.401  -2.784  0.00  0.00    -0.169 OA
ATOM     10  O   UNL     1       3.689  -5.763  -2.077  0.00  0.00    -0.169 OA
BRANCH   8  15
ATOM     11  C   UNL     1       4.480  -6.447  -8.535  0.00  0.00    +0.044 C 
ATOM     12  C   UNL     1       4.169  -6.009  -7.127  0.00  0.00    -0.050 A 
ATOM     13  C   UNL     1       4.086  -4.663  -6.824  0.00  0.00    +0.005 A 
ATOM     14  C   UNL     1       3.801  -4.262  -5.532  0.00  0.00    +0.027 A 
ATOM     15  C   UNL     1       3.599  -5.206  -4.544  0.00  0.00    +0.089 A 
ATOM     16  C   UNL     1       3.686  -6.553  -4.846  0.00  0.00    +0.027 A 
ATOM     17  C   UNL     1       3.966  -6.954  -6.138  0.00  0.00    +0.005 A 
ENDBRANCH   8  15
ENDBRANCH   1   8
BRANCH   7  18
ATOM     18  N   UNL     1       0.985  -2.671  -1.386  0.00  0.00    -0.306 NA
ATOM     19  H   UNL     1       1.769  -2.275  -2.048  0.00  0.00    +0.123 HD
BRANCH  18  20
ATOM     20  C   UNL     1       1.231  -2.186  -0.022  0.00  0.00    +0.118 C 
BRANCH  20  21
ATOM     21  C   UNL     1       1.210  -0.679  -0.013  0.00  0.00    -0.015 A 
ATOM     22  C   UNL     1       2.397   0.029  -0.021  0.00  0.00    +0.006 A 
ATOM     23  C   UNL     1       2.377   1.411  -0.013  0.00  0.00    +0.000 A 
ATOM     24  C   UNL     1       1.171   2.086   0.002  0.00  0.00    +0.001 A 
ATOM     25  C   UNL     1      -0.017   1.379   0.010  0.00  0.00    +0.020 A 
ATOM     26  C   UNL     1       0.002  -0.004   0.002  0.00  0.00    +0.045 A 
ATOM     27 CL   UNL     1      -1.489  -0.893   0.011  0.00  0.00    -0.083 Cl
ENDBRANCH  20  21
ENDBRANCH  18  20
ENDBRANCH   7  18
TORSDOF 5
