REMARK  Name = ZINC39342364
REMARK  5 active torsions:
REMARK  status: ('A' for Active; 'I' for Inactive)
REMARK    1  A    between atoms: C_1  and  C_2
REMARK    2  A    between atoms: C_10  and  C_14
REMARK    3  A    between atoms: C_17  and  O_20
REMARK    4  A    between atoms: O_20  and  C_21
REMARK    5  A    between atoms: C_21  and  C_22
REMARK                            x       y       z     vdW  Elec       q    Type
REMARK                         _______ _______ _______ _____ _____    ______ ____
ROOT
ATOM      1  C   UNL     1      -0.019   1.526   0.010  0.00  0.00    +0.007 C 
ATOM      2  C   UNL     1       0.002  -0.004   0.002  0.00  0.00    -0.012 C 
ATOM      3  C   UNL     1       0.702  -0.489  -1.265  0.00  0.00    +0.008 C 
ATOM      4  C   UNL     1       2.123   0.085  -1.344  0.00  0.00    +0.033 C 
ATOM      5  C   UNL     1       2.809  -0.263  -0.025  0.00  0.00    -0.042 C 
ATOM      6  C   UNL     1       3.969  -0.910   0.082  0.00  0.00    +0.071 C 
ATOM      7  C   UNL     1       4.411  -1.344   1.434  0.00  0.00    +0.112 C 
ATOM      8  N   UNL     1       5.514  -2.022   1.629  0.00  0.00    -0.223 NA
ATOM      9  C   UNL     1       6.259  -2.323   0.554  0.00  0.00    +0.154 C 
ATOM     10  N   UNL     1       5.965  -1.992  -0.688  0.00  0.00    -0.157 NA
ATOM     11  C   UNL     1       4.871  -1.306  -1.052  0.00  0.00    +0.272 C 
ATOM     12  O   UNL     1       4.628  -1.025  -2.214  0.00  0.00    -0.268 OA
ATOM     13  S   UNL     1       3.169  -0.735   2.531  0.00  0.00    -0.097 S 
ATOM     14  C   UNL     1       2.124   0.119   1.288  0.00  0.00    +0.080 C 
ATOM     15  C   UNL     1       0.729  -0.504   1.254  0.00  0.00    +0.022 C 
ENDROOT
BRANCH   9  16
ATOM     16  C   UNL     1       7.505  -3.085   0.780  0.00  0.00    +0.017 A 
ATOM     17  C   UNL     1       7.867  -3.469   2.074  0.00  0.00    +0.015 A 
ATOM     18  C   UNL     1       9.029  -4.179   2.280  0.00  0.00    +0.046 A 
ATOM     19  C   UNL     1       9.841  -4.514   1.204  0.00  0.00    +0.121 A 
ATOM     20  C   UNL     1       9.486  -4.133  -0.085  0.00  0.00    +0.046 A 
ATOM     21  C   UNL     1       8.322  -3.428  -0.300  0.00  0.00    +0.015 A 
BRANCH  19  22
ATOM     22  O   UNL     1      10.986  -5.213   1.411  0.00  0.00    -0.487 OA
BRANCH  22  23
ATOM     23  C   UNL     1      11.774  -5.524   0.261  0.00  0.00    +0.264 C 
BRANCH  23  24
ATOM     24  C   UNL     1      12.996  -6.298   0.683  0.00  0.00    -0.010 A 
ATOM     25  C   UNL     1      14.158  -5.627   1.018  0.00  0.00    +0.008 A 
ATOM     26  C   UNL     1      15.279  -6.336   1.405  0.00  0.00    +0.020 A 
ATOM     27  C   UNL     1      15.239  -7.718   1.458  0.00  0.00    +0.041 A 
ATOM     28  C   UNL     1      14.076  -8.389   1.122  0.00  0.00    +0.020 A 
ATOM     29  C   UNL     1      12.954  -7.678   0.740  0.00  0.00    +0.008 A 
ATOM     30 CL   UNL     1      16.647  -8.610   1.943  0.00  0.00    -0.084 Cl
ENDBRANCH  23  24
ENDBRANCH  22  23
ENDBRANCH  19  22
ENDBRANCH   9  16
TORSDOF 4
