REMARK  Name = ZINC63386206
REMARK  9 active torsions:
REMARK  status: ('A' for Active; 'I' for Inactive)
REMARK    1  A    between atoms: C_1  and  O_2
REMARK    2  A    between atoms: O_2  and  C_3
REMARK    3  A    between atoms: C_7  and  C_9
REMARK    4  A    between atoms: N_17  and  C_18
REMARK    5  A    between atoms: C_18  and  C_19
REMARK    6  A    between atoms: C_19  and  C_20
REMARK    7  A    between atoms: C_23  and  O_29
REMARK    8  A    between atoms: O_29  and  C_30
REMARK    9  A    between atoms: C_33  and  C_34
REMARK                            x       y       z     vdW  Elec       q    Type
REMARK                         _______ _______ _______ _____ _____    ______ ____
ROOT
ATOM      1  C   UNL     1       1.407  -3.789  -2.333  0.00  0.00    +0.118 C 
ATOM      2  C   UNL     1       2.777  -4.386  -2.018  0.00  0.00    +0.098 C 
ATOM      3  C   UNL     1       2.375  -5.872  -2.400  0.00  0.00    +0.186 C 
ATOM      4  C   UNL     1       1.720  -5.689  -3.678  0.00  0.00    +0.239 C 
ATOM      5  O   UNL     1       1.745  -6.454  -4.619  0.00  0.00    -0.273 OA
ATOM      6  N   UNL     1       1.053  -4.480  -3.609  0.00  0.00    -0.292 N 
ATOM      7  N   UNL     1       3.498  -6.542  -1.862  0.00  0.00    -0.256 N 
ATOM      8  N   UNL     1       3.640  -5.910  -0.584  0.00  0.00    -0.187 NA
ATOM      9  C   UNL     1       3.211  -4.642  -0.612  0.00  0.00    +0.108 C 
ATOM     10  H   UNL     1       4.033  -7.247  -2.257  0.00  0.00    +0.169 HD
ENDROOT
BRANCH   1  15
ATOM     11  C   UNL     1       0.969  -0.068  -1.841  0.00  0.00    +0.120 A 
ATOM     12  C   UNL     1       1.685   0.437  -2.917  0.00  0.00    +0.045 A 
ATOM     13  C   UNL     1       2.308  -0.426  -3.797  0.00  0.00    +0.004 A 
ATOM     14  C   UNL     1       2.217  -1.793  -3.607  0.00  0.00    +0.006 A 
ATOM     15  C   UNL     1       1.504  -2.299  -2.537  0.00  0.00    -0.023 A 
ATOM     16  C   UNL     1       0.885  -1.439  -1.650  0.00  0.00    +0.051 A 
BRANCH  11  18
ATOM     17  C   UNL     1       0.486   2.179  -1.232  0.00  0.00    +0.277 C 
ATOM     18  O   UNL     1       0.357   0.780  -0.973  0.00  0.00    -0.495 OA
ENDBRANCH  11  18
ENDBRANCH   1  15
BRANCH   9  19
ATOM     19  C   UNL     1       3.165  -3.691   0.504  0.00  0.00    +0.151 A 
ATOM     20  C   UNL     1       3.570  -3.937   1.783  0.00  0.00    +0.051 A 
ATOM     21  C   UNL     1       3.349  -2.753   2.513  0.00  0.00    +0.042 A 
ATOM     22  C   UNL     1       2.826  -1.852   1.657  0.00  0.00    +0.196 A 
ATOM     23  O   UNL     1       2.721  -2.420   0.444  0.00  0.00    -0.462 OA
ENDBRANCH   9  19
BRANCH   6  24
ATOM     24  C   UNL     1       0.147  -3.955  -4.633  0.00  0.00    +0.113 C 
BRANCH  24  25
ATOM     25  C   UNL     1      -1.260  -4.511  -4.402  0.00  0.00    +0.052 C 
BRANCH  25  26
ATOM     26  C   UNL     1      -2.193  -3.968  -5.454  0.00  0.00    -0.040 C 
ATOM     27  C   UNL     1      -2.544  -4.565  -6.615  0.00  0.00    +0.002 A 
ATOM     28  C   UNL     1      -2.178  -5.847  -7.226  0.00  0.00    +0.055 A 
ATOM     29  C   UNL     1      -2.700  -6.186  -8.429  0.00  0.00    +0.121 A 
ATOM     30  C   UNL     1      -3.589  -5.348  -9.125  0.00  0.00    +0.047 A 
ATOM     31  C   UNL     1      -3.984  -4.150  -8.645  0.00  0.00    +0.029 A 
ATOM     32  C   UNL     1      -3.481  -3.683  -7.349  0.00  0.00    +0.043 A 
ATOM     33  N   UNL     1      -3.700  -2.585  -6.669  0.00  0.00    -0.380 N 
ATOM     34  C   UNL     1      -2.931  -2.648  -5.421  0.00  0.00    +0.144 C 
ATOM     35  H   UNL     1      -4.277  -1.855  -6.943  0.00  0.00    +0.160 HD
BRANCH  29  36
ATOM     36  O   UNL     1      -2.351  -7.378  -8.983  0.00  0.00    -0.495 OA
ATOM     37  C   UNL     1      -2.925  -7.695 -10.253  0.00  0.00    +0.277 C 
ENDBRANCH  29  36
ENDBRANCH  25  26
ENDBRANCH  24  25
ENDBRANCH   6  24
TORSDOF 7
