REMARK  Name = ZINC35564705
REMARK  7 active torsions:
REMARK  status: ('A' for Active; 'I' for Inactive)
REMARK    1  A    between atoms: C_1  and  C_2
REMARK    2  A    between atoms: C_2  and  C_3
REMARK    3  A    between atoms: C_3  and  C_5
REMARK    4  A    between atoms: C_3  and  C_11
REMARK    5  A    between atoms: C_25  and  C_27
REMARK    6  A    between atoms: C_27  and  N_28
REMARK    7  A    between atoms: C_31  and  C_34
REMARK                            x       y       z     vdW  Elec       q    Type
REMARK                         _______ _______ _______ _____ _____    ______ ____
ROOT
ATOM      1  C   UNL     1       2.032   0.009  -1.293  0.00  0.00    +0.223 C 
ATOM      2  O   UNL     1       2.933  -0.777  -1.494  0.00  0.00    -0.275 OA
ATOM      3  N   UNL     1       2.305   1.317  -1.117  0.00  0.00    -0.298 N 
ATOM      4  C   UNL     1       1.217   2.296  -0.979  0.00  0.00    +0.127 C 
ATOM      5  C   UNL     1       1.419   3.070   0.329  0.00  0.00    +0.127 C 
ATOM      6  N   UNL     1       2.809   3.543   0.386  0.00  0.00    -0.298 N 
ATOM      7  C   UNL     1       3.896   2.564   0.248  0.00  0.00    +0.127 C 
ATOM      8  C   UNL     1       3.695   1.789  -1.055  0.00  0.00    +0.127 C 
ATOM      9  C   UNL     1       3.086   4.872   0.564  0.00  0.00    +0.198 A 
ATOM     10  N   UNL     1       2.067   5.740   0.807  0.00  0.00    -0.295 N 
ATOM     11  H   UNL     1       1.154   5.418   0.853  0.00  0.00    +0.172 HD
ATOM     12  C   UNL     1       2.333   7.052   0.984  0.00  0.00    +0.253 A 
ATOM     13  O   UNL     1       1.432   7.845   1.203  0.00  0.00    -0.268 OA
ATOM     14  C   UNL     1       3.668   7.487   0.912  0.00  0.00    +0.091 A 
ATOM     15  C   UNL     1       4.648   6.570   0.665  0.00  0.00    +0.034 A 
ATOM     16  N   UNL     1       4.336   5.287   0.503  0.00  0.00    -0.223 NA
ENDROOT
BRANCH   1  17
ATOM     17  C   UNL     1       0.607  -0.478  -1.238  0.00  0.00    +0.105 C 
BRANCH  17  18
ATOM     18  C   UNL     1       0.036  -0.518  -2.632  0.00  0.00    -0.036 A 
ATOM     19  C   UNL     1       0.620  -1.319  -3.595  0.00  0.00    +0.004 A 
ATOM     20  C   UNL     1       0.097  -1.356  -4.874  0.00  0.00    +0.000 A 
ATOM     21  C   UNL     1      -1.012  -0.593  -5.190  0.00  0.00    +0.000 A 
ATOM     22  C   UNL     1      -1.597   0.207  -4.226  0.00  0.00    +0.000 A 
ATOM     23  C   UNL     1      -1.076   0.241  -2.946  0.00  0.00    +0.004 A 
ENDBRANCH  17  18
BRANCH  17  25
ATOM     24  C   UNL     1       1.018  -1.817   0.831  0.00  0.00    +0.005 C 
ATOM     25  C   UNL     1       0.570  -1.882  -0.631  0.00  0.00    +0.014 C 
ENDBRANCH  17  25
ENDBRANCH   1  17
BRANCH  15  26
ATOM     26  C   UNL     1       6.087   7.011   0.583  0.00  0.00    -0.022 C 
BRANCH  26  27
ATOM     27  N   UNL     1       6.848   6.408   1.686  0.00  0.00    +0.383 N 
ATOM     28  C   UNL     1       6.869   4.949   1.524  0.00  0.00    -0.078 C 
ATOM     29  C   UNL     1       7.590   4.311   2.713  0.00  0.00    -0.016 C 
ATOM     30  C   UNL     1       9.026   4.841   2.777  0.00  0.00    -0.018 C 
ATOM     31  C   UNL     1       8.992   6.369   2.870  0.00  0.00    -0.016 C 
ATOM     32  C   UNL     1       8.219   6.931   1.675  0.00  0.00    -0.078 C 
ATOM     33  C   UNL     1       9.729   4.268   4.009  0.00  0.00    +0.007 C 
ATOM     34  H   UNL     1       6.407   6.641   2.563  0.00  0.00    -0.081 HD
ENDBRANCH  26  27
ENDBRANCH  15  26
TORSDOF 5
