REMARK  Name = ZINC36104872
REMARK  7 active torsions:
REMARK  status: ('A' for Active; 'I' for Inactive)
REMARK    1  A    between atoms: C_1  and  C_2
REMARK    2  A    between atoms: C_2  and  C_3
REMARK    3  A    between atoms: C_9  and  C_11
REMARK    4  A    between atoms: C_11  and  C_13
REMARK    5  A    between atoms: C_11  and  N_18
REMARK    6  A    between atoms: C_20  and  C_27
REMARK    7  A    between atoms: C_23  and  C_26
REMARK                            x       y       z     vdW  Elec       q    Type
REMARK                         _______ _______ _______ _____ _____    ______ ____
ROOT
ATOM      1  C   UNL     1       2.896  -2.477   6.417  0.00  0.00    +0.012 C 
ENDROOT
BRANCH   1   8
ATOM      2  C   UNL     1       0.731  -0.503   1.223  0.00  0.00    +0.152 A 
ATOM      3  N   UNL     1       2.039  -0.738   1.297  0.00  0.00    -0.205 NA
ATOM      4  C   UNL     1       2.334  -1.160   2.497  0.00  0.00    +0.199 A 
ATOM      5  N   UNL     1       1.204  -1.214   3.253  0.00  0.00    -0.170 N 
ATOM      6  N   UNL     1       0.180  -0.769   2.377  0.00  0.00    -0.146 NA
ATOM      7  C   UNL     1       1.335  -1.642   4.552  0.00  0.00    +0.282 A 
ATOM      8  C   UNL     1       2.533  -1.988   5.038  0.00  0.00    +0.051 A 
ATOM      9  S   UNL     1       3.590  -1.715   3.624  0.00  0.00    -0.050 S 
ATOM     10  O   UNL     1       0.237  -1.716   5.352  0.00  0.00    -0.265 OA
BRANCH   2  12
ATOM     11  C   UNL     1      -0.019   1.526   0.010  0.00  0.00    +0.012 C 
ATOM     12  C   UNL     1       0.002  -0.004   0.002  0.00  0.00    +0.075 C 
ENDBRANCH   2  12
ENDBRANCH   1   8
BRANCH   1  13
ATOM     13  N   UNL     1       3.602  -3.760   6.311  0.00  0.00    +0.388 N 
ATOM     14  C   UNL     1       2.735  -4.741   5.647  0.00  0.00    -0.074 C 
ATOM     15  C   UNL     1       3.494  -6.056   5.462  0.00  0.00    -0.031 C 
ATOM     16  C   UNL     1       3.919  -6.592   6.833  0.00  0.00    +0.003 C 
ATOM     17  C   UNL     1       4.761  -5.531   7.546  0.00  0.00    -0.031 C 
ATOM     18  C   UNL     1       3.954  -4.235   7.654  0.00  0.00    -0.074 C 
ATOM     19  C   UNL     1       5.126  -6.025   8.947  0.00  0.00    +0.005 C 
ATOM     20  C   UNL     1       4.736  -5.812   4.601  0.00  0.00    +0.005 C 
ATOM     21  H   UNL     1       4.443  -3.636   5.768  0.00  0.00    -0.080 HD
ENDBRANCH   1  13
BRANCH   1  22
ATOM     22  C   UNL     1       3.788  -1.466   7.089  0.00  0.00    -0.019 A 
ATOM     23  C   UNL     1       3.469  -0.525   8.012  0.00  0.00    +0.010 A 
ATOM     24  C   UNL     1       4.464   0.303   8.496  0.00  0.00    +0.008 A 
ATOM     25  C   UNL     1       5.729   0.150   8.035  0.00  0.00    +0.045 A 
ATOM     26  S   UNL     1       5.542  -1.202   6.884  0.00  0.00    -0.103 S 
ENDBRANCH   1  22
TORSDOF 4
