REMARK  Name = ZINC16692686
REMARK  6 active torsions:
REMARK  status: ('A' for Active; 'I' for Inactive)
REMARK    1  A    between atoms: C_1  and  O_2
REMARK    2  A    between atoms: O_2  and  C_3
REMARK    3  A    between atoms: C_5  and  C_10
REMARK    4  A    between atoms: C_8  and  O_9
REMARK    5  A    between atoms: C_15  and  N_17
REMARK    6  A    between atoms: N_17  and  C_18
REMARK                            x       y       z     vdW  Elec       q    Type
REMARK                         _______ _______ _______ _____ _____    ______ ____
ROOT
ATOM      1  C   UNL     1       2.483   0.335  -4.149  0.00  0.00    +0.028 C 
ATOM      2  C   UNL     1       3.142  -0.267  -5.171  0.00  0.00    +0.079 C 
ATOM      3  C   UNL     1       3.857   0.331  -6.322  0.00  0.00    +0.276 C 
ATOM      4  O   UNL     1       3.930   1.540  -6.478  0.00  0.00    -0.267 OA
ATOM      5  N   UNL     1       4.410  -0.511  -7.167  0.00  0.00    -0.152 NA
ATOM      6  C   UNL     1       4.339  -1.823  -7.010  0.00  0.00    +0.175 C 
ATOM      7  S   UNL     1       3.397  -2.006  -5.504  0.00  0.00    -0.050 S 
ENDROOT
BRANCH   1  10
ATOM      8  C   UNL     1       0.366  -0.635  -1.209  0.00  0.00    +0.162 A 
ATOM      9  C   UNL     1       1.119   0.126  -2.081  0.00  0.00    +0.057 A 
ATOM     10  C   UNL     1       1.682  -0.469  -3.217  0.00  0.00    -0.020 A 
ATOM     11  C   UNL     1       1.479  -1.833  -3.461  0.00  0.00    +0.012 A 
ATOM     12  C   UNL     1       0.727  -2.584  -2.586  0.00  0.00    +0.050 A 
ATOM     13  C   UNL     1       0.174  -1.994  -1.457  0.00  0.00    +0.158 A 
BRANCH   8  15
ATOM     14  C   UNL     1       0.055   1.335   0.086  0.00  0.00    +0.277 C 
ATOM     15  O   UNL     1      -0.182  -0.061  -0.105  0.00  0.00    -0.491 OA
ENDBRANCH   8  15
BRANCH  13  16
ATOM     16  O   UNL     1      -0.562  -2.741  -0.594  0.00  0.00    -0.503 OA
ATOM     17  H   UNL     1      -1.505  -2.771  -0.804  0.00  0.00    +0.292 HD
ENDBRANCH  13  16
ENDBRANCH   1  10
BRANCH   6  18
ATOM     18  N   UNL     1       4.865  -2.806  -7.809  0.00  0.00    -0.191 NA
BRANCH  18  19
ATOM     19  C   UNL     1       5.723  -2.467  -8.860  0.00  0.00    +0.070 A 
ATOM     20  C   UNL     1       6.443  -1.280  -8.816  0.00  0.00    +0.026 A 
ATOM     21  C   UNL     1       7.289  -0.949  -9.856  0.00  0.00    +0.002 A 
ATOM     22  C   UNL     1       7.421  -1.797 -10.940  0.00  0.00    +0.001 A 
ATOM     23  C   UNL     1       6.706  -2.980 -10.988  0.00  0.00    +0.017 A 
ATOM     24  C   UNL     1       5.862  -3.321  -9.948  0.00  0.00    +0.041 A 
ATOM     25 BR   UNL     1       4.890  -4.942 -10.010  0.00  0.00    -0.048 Br
ENDBRANCH  18  19
ENDBRANCH   6  18
TORSDOF 5
