REMARK  Name = ZINC01141921
REMARK  14 active torsions:
REMARK  status: ('A' for Active; 'I' for Inactive)
REMARK    1  A    between atoms: C_1  and  C_2
REMARK    2  A    between atoms: C_2  and  O_3
REMARK    3  A    between atoms: O_3  and  C_4
REMARK    4  A    between atoms: C_4  and  C_6
REMARK    5  A    between atoms: C_11  and  N_12
REMARK    6  A    between atoms: C_13  and  C_15
REMARK    7  A    between atoms: C_15  and  N_16
REMARK    8  A    between atoms: N_16  and  C_17
REMARK    9  A    between atoms: N_16  and  S_24
REMARK   10  A    between atoms: S_24  and  C_27
REMARK   11  A    between atoms: C_30  and  O_35
REMARK   12  A    between atoms: C_31  and  O_33
REMARK   13  A    between atoms: O_33  and  C_34
REMARK   14  A    between atoms: O_35  and  C_36
REMARK                            x       y       z     vdW  Elec       q    Type
REMARK                         _______ _______ _______ _____ _____    ______ ____
ROOT
ATOM      1  N   UNL     1       0.032   0.005  -0.001  0.00  0.00    -0.194 N 
ENDROOT
BRANCH   1   2
ATOM      2  C   UNL     1       0.035   1.403  -0.004  0.00  0.00    +0.052 A 
ATOM      3  C   UNL     1       0.954   2.095  -0.780  0.00  0.00    +0.027 A 
ATOM      4  C   UNL     1       0.951   3.476  -0.786  0.00  0.00    +0.040 A 
ATOM      5  C   UNL     1       0.040   4.171  -0.008  0.00  0.00    +0.124 A 
ATOM      6  C   UNL     1      -0.874   3.483   0.772  0.00  0.00    +0.040 A 
ATOM      7  C   UNL     1      -0.878   2.102   0.776  0.00  0.00    +0.027 A 
ATOM      8  F   UNL     1       0.043   5.522  -0.011  0.00  0.00    -0.205 F 
ENDBRANCH   1   2
BRANCH   1   9
ATOM      9  S   UNL     1      -1.333  -0.821  -0.449  0.00  0.00    +0.075 S 
ATOM     10  O   UNL     1      -1.319  -2.047   0.270  0.00  0.00    -0.150 OA
ATOM     11  O   UNL     1      -2.411   0.100  -0.363  0.00  0.00    -0.150 OA
BRANCH   9  12
ATOM     12  C   UNL     1      -1.156  -1.234  -2.153  0.00  0.00    +0.112 A 
ATOM     13  C   UNL     1      -1.618  -0.365  -3.124  0.00  0.00    +0.032 A 
ATOM     14  C   UNL     1      -1.477  -0.681  -4.462  0.00  0.00    +0.051 A 
ATOM     15  C   UNL     1      -0.882  -1.877  -4.832  0.00  0.00    +0.162 A 
ATOM     16  C   UNL     1      -0.423  -2.754  -3.855  0.00  0.00    +0.163 A 
ATOM     17  C   UNL     1      -0.562  -2.428  -2.515  0.00  0.00    +0.078 A 
BRANCH  16  18
ATOM     18  O   UNL     1       0.162  -3.928  -4.213  0.00  0.00    -0.491 OA
ATOM     19  C   UNL     1       0.610  -4.779  -3.156  0.00  0.00    +0.277 C 
ENDBRANCH  16  18
BRANCH  15  20
ATOM     20  O   UNL     1      -0.748  -2.192  -6.149  0.00  0.00    -0.491 OA
ATOM     21  C   UNL     1      -1.243  -1.244  -7.097  0.00  0.00    +0.277 C 
ENDBRANCH  15  20
ENDBRANCH   9  12
ENDBRANCH   1   9
BRANCH   1  22
ATOM     22  C   UNL     1       1.235  -0.730   0.397  0.00  0.00    +0.227 C 
BRANCH  22  24
ATOM     23  N   UNL     1       2.286  -1.517   2.493  0.00  0.00    -0.283 N 
ATOM     24  C   UNL     1       1.264  -0.872   1.897  0.00  0.00    +0.236 C 
ATOM     25  O   UNL     1       0.367  -0.405   2.567  0.00  0.00    -0.274 OA
ATOM     26  H   UNL     1       3.039  -1.825   1.965  0.00  0.00    +0.155 HD
BRANCH  23  32
ATOM     27  C   UNL     1       3.461  -1.867   4.583  0.00  0.00    +0.080 A 
ATOM     28  C   UNL     1       3.422  -2.091   5.962  0.00  0.00    +0.017 A 
ATOM     29  C   UNL     1       2.209  -2.188   6.608  0.00  0.00    +0.001 A 
ATOM     30  C   UNL     1       1.025  -2.062   5.898  0.00  0.00    +0.002 A 
ATOM     31  C   UNL     1       1.048  -1.835   4.537  0.00  0.00    +0.024 A 
ATOM     32  C   UNL     1       2.261  -1.741   3.867  0.00  0.00    +0.047 A 
BRANCH  27  33
ATOM     33  C   UNL     1       4.755  -1.763   3.885  0.00  0.00    +0.341 C 
ATOM     34  O   UNL     1       4.788  -1.465   2.708  0.00  0.00    -0.245 OA
BRANCH  33  35
ATOM     35  O   UNL     1       5.902  -1.997   4.554  0.00  0.00    -0.461 OA
BRANCH  35  37
ATOM     36  C   UNL     1       8.324  -2.177   4.722  0.00  0.00    +0.048 C 
ATOM     37  C   UNL     1       7.138  -1.876   3.803  0.00  0.00    +0.229 C 
ENDBRANCH  35  37
ENDBRANCH  33  35
ENDBRANCH  27  33
ENDBRANCH  23  32
ENDBRANCH  22  24
ENDBRANCH   1  22
TORSDOF 11
