REMARK  Name = ZINC34956599
REMARK  4 active torsions:
REMARK  status: ('A' for Active; 'I' for Inactive)
REMARK    1  A    between atoms: C_4  and  C_8
REMARK    2  A    between atoms: C_8  and  C_10
REMARK    3  A    between atoms: C_8  and  O_21
REMARK    4  A    between atoms: C_16  and  C_18
REMARK                            x       y       z     vdW  Elec       q    Type
REMARK                         _______ _______ _______ _____ _____    ______ ____
ROOT
ATOM      1  C   UNL     1       3.712  -0.708  -0.038  0.00  0.00    +0.150 C 
ENDROOT
BRANCH   1   5
ATOM      2  C   UNL     1      -0.326   0.682   0.115  0.00  0.00    +0.016 A 
ATOM      3  C   UNL     1       0.699   1.567  -0.163  0.00  0.00    +0.017 A 
ATOM      4  C   UNL     1       2.006   1.117  -0.212  0.00  0.00    +0.024 A 
ATOM      5  C   UNL     1       2.288  -0.218   0.017  0.00  0.00    -0.004 A 
ATOM      6  C   UNL     1       1.263  -1.102   0.295  0.00  0.00    +0.022 A 
ATOM      7  C   UNL     1      -0.045  -0.653   0.344  0.00  0.00    +0.018 A 
ATOM      8 BR   UNL     1      -1.447  -1.863   0.725  0.00  0.00    -0.050 Br
ATOM      9 BR   UNL     1       3.408   2.327  -0.593  0.00  0.00    -0.050 Br
ENDBRANCH   1   5
BRANCH   1  10
ATOM     10  C   UNL     1       4.293  -0.745   1.377  0.00  0.00    +0.040 C 
ATOM     11  C   UNL     1       4.410   0.679   1.923  0.00  0.00    +0.034 C 
ATOM     12  C   UNL     1       5.494   1.423   1.200  0.00  0.00    -0.031 C 
ATOM     13  C   UNL     1       6.417   0.853   0.493  0.00  0.00    -0.030 C 
ATOM     14  C   UNL     1       6.526  -0.630   0.291  0.00  0.00    +0.042 C 
ATOM     15  C   UNL     1       5.692  -1.373   1.343  0.00  0.00    +0.112 C 
BRANCH  15  16
ATOM     16  C   UNL     1       5.585  -2.831   0.978  0.00  0.00    +0.360 C 
ATOM     17  O   UNL     1       6.494  -3.377   0.377  0.00  0.00    -0.246 OA
ATOM     18  O   UNL     1       4.589  -3.464   1.284  0.00  0.00    -0.246 OA
ENDBRANCH  15  16
ENDBRANCH   1  10
BRANCH   1  19
ATOM     19  O   UNL     1       3.742  -2.021  -0.601  0.00  0.00    -0.387 OA
ATOM     20  H   UNL     1       3.235  -2.675  -0.101  0.00  0.00    +0.210 HD
ENDBRANCH   1  19
TORSDOF 4
