REMARK  Name = ZINC07387757
REMARK  4 active torsions:
REMARK  status: ('A' for Active; 'I' for Inactive)
REMARK    1  A    between atoms: C_4  and  S_8
REMARK    2  A    between atoms: S_8  and  N_11
REMARK    3  A    between atoms: N_11  and  N_12
REMARK    4  A    between atoms: C_13  and  C_15
REMARK                            x       y       z     vdW  Elec       q    Type
REMARK                         _______ _______ _______ _____ _____    ______ ____
ROOT
ATOM      1  N   UNL     1      -0.887  -2.274   0.009  0.00  0.00    -0.227 N 
ATOM      2  C   UNL     1      -1.121  -0.946   0.020  0.00  0.00    +0.265 C 
ATOM      3  O   UNL     1      -2.264  -0.530   0.046  0.00  0.00    -0.268 OA
ATOM      4  H   UNL     1       0.025  -2.605  -0.012  0.00  0.00    +0.171 HD
ENDROOT
BRANCH   2   5
ATOM      5  C   UNL     1       0.002  -0.004   0.002  0.00  0.00    +0.076 A 
ATOM      6  C   UNL     1      -0.017   1.373   0.010  0.00  0.00    +0.024 A 
ATOM      7  C   UNL     1       1.204   2.053   0.002  0.00  0.00    -0.036 A 
ATOM      8  C   UNL     1       2.322   1.304  -0.072  0.00  0.00    -0.006 A 
ATOM      9  S   UNL     1       1.752  -0.337  -0.035  0.00  0.00    -0.088 S 
ATOM     10  C   UNL     1       3.779   1.652  -0.234  0.00  0.00    +0.043 C 
ATOM     11  C   UNL     1       4.005   3.160  -0.351  0.00  0.00    +0.005 C 
ATOM     12  C   UNL     1       3.967   3.819   1.018  0.00  0.00    +0.000 C 
ATOM     13  C   UNL     1       2.925   3.210   1.935  0.00  0.00    +0.000 C 
ATOM     14  C   UNL     1       1.593   3.895   1.615  0.00  0.00    +0.005 C 
ATOM     15  C   UNL     1       1.200   3.565   0.175  0.00  0.00    +0.036 C 
ENDBRANCH   2   5
BRANCH   1  16
ATOM     16  N   UNL     1      -1.960  -3.174   0.026  0.00  0.00    -0.108 NA
ATOM     17  H   UNL     1      -2.626  -3.121   0.729  0.00  0.00    +0.172 HD
BRANCH  16  18
ATOM     18  S   UNL     1      -2.089  -4.330  -1.152  0.00  0.00    +0.076 S 
ATOM     19  O   UNL     1      -3.179  -5.165  -0.784  0.00  0.00    -0.152 OA
ATOM     20  O   UNL     1      -2.039  -3.648  -2.398  0.00  0.00    -0.152 OA
BRANCH  18  24
ATOM     21  C   UNL     1       1.637  -6.894  -0.930  0.00  0.00    +0.003 A 
ATOM     22  C   UNL     1       0.400  -7.443  -0.645  0.00  0.00    +0.002 A 
ATOM     23  C   UNL     1      -0.736  -6.659  -0.708  0.00  0.00    +0.031 A 
ATOM     24  C   UNL     1      -0.639  -5.328  -1.066  0.00  0.00    +0.142 A 
ATOM     25  C   UNL     1       0.598  -4.777  -1.351  0.00  0.00    +0.150 A 
ATOM     26  C   UNL     1       1.737  -5.561  -1.282  0.00  0.00    +0.040 A 
ATOM     27  F   UNL     1       0.695  -3.474  -1.694  0.00  0.00    -0.203 F 
ENDBRANCH  18  24
ENDBRANCH  16  18
ENDBRANCH   1  16
TORSDOF 4
