REMARK  Name = ZINC58247043
REMARK  9 active torsions:
REMARK  status: ('A' for Active; 'I' for Inactive)
REMARK    1  A    between atoms: C_1  and  C_2
REMARK    2  A    between atoms: C_6  and  O_8
REMARK    3  A    between atoms: O_8  and  C_9
REMARK    4  A    between atoms: C_9  and  C_10
REMARK    5  A    between atoms: C_9  and  C_11
REMARK    6  A    between atoms: N_13  and  C_14
REMARK    7  A    between atoms: C_14  and  C_15
REMARK    8  A    between atoms: C_14  and  C_16
REMARK    9  A    between atoms: C_19  and  N_22
REMARK                            x       y       z     vdW  Elec       q    Type
REMARK                         _______ _______ _______ _____ _____    ______ ____
ROOT
ATOM      1  C   UNL     1      -0.342  -2.788   4.754  0.00  0.00    +0.254 C 
ATOM      2  O   UNL     1      -0.726  -3.924   4.576  0.00  0.00    -0.272 OA
ATOM      3  N   UNL     1      -0.463  -2.218   5.969  0.00  0.00    -0.306 N 
ATOM      4  H   UNL     1      -0.156  -1.309   6.112  0.00  0.00    +0.149 HD
ENDROOT
BRANCH   1   5
ATOM      5  C   UNL     1       0.270  -2.012   3.616  0.00  0.00    +0.256 C 
ATOM      6  C   UNL     1       1.740  -1.722   3.929  0.00  0.00    +0.062 C 
BRANCH   5   7
ATOM      7  O   UNL     1       0.182  -2.780   2.414  0.00  0.00    -0.478 OA
BRANCH   7  13
ATOM      8  C   UNL     1       0.242   1.494   0.058  0.00  0.00    +0.044 C 
ATOM      9  C   UNL     1       0.235  -0.013   0.052  0.00  0.00    -0.047 A 
ATOM     10  C   UNL     1       0.252  -0.700  -1.149  0.00  0.00    +0.005 A 
ATOM     11  C   UNL     1       0.245  -2.082  -1.158  0.00  0.00    +0.024 A 
ATOM     12  C   UNL     1       0.222  -2.782   0.034  0.00  0.00    +0.083 A 
ATOM     13  C   UNL     1       0.205  -2.095   1.240  0.00  0.00    +0.140 A 
ATOM     14  C   UNL     1       0.217  -0.708   1.246  0.00  0.00    +0.050 A 
ATOM     15 CL   UNL     1       0.213  -4.518   0.023  0.00  0.00    -0.080 Cl
ENDBRANCH   7  13
ENDBRANCH   5   7
ENDBRANCH   1   5
BRANCH   3  16
ATOM     16  C   UNL     1      -1.059  -2.972   7.075  0.00  0.00    +0.100 C 
ATOM     17  C   UNL     1       0.017  -3.828   7.746  0.00  0.00    +0.033 C 
BRANCH  16  18
ATOM     18  C   UNL     1      -1.637  -2.012   8.083  0.00  0.00    -0.027 A 
ATOM     19  C   UNL     1      -0.960  -0.848   8.395  0.00  0.00    +0.007 A 
ATOM     20  C   UNL     1      -1.488   0.034   9.318  0.00  0.00    +0.023 A 
ATOM     21  C   UNL     1      -2.700  -0.250   9.933  0.00  0.00    +0.035 A 
ATOM     22  C   UNL     1      -3.377  -1.420   9.618  0.00  0.00    +0.023 A 
ATOM     23  C   UNL     1      -2.847  -2.295   8.690  0.00  0.00    +0.007 A 
BRANCH  21  24
ATOM     24  N   UNL     1      -3.237   0.641  10.869  0.00  0.00    -0.270 N 
ATOM     25  C   UNL     1      -3.071   1.969  10.708  0.00  0.00    +0.301 C 
ATOM     26  O   UNL     1      -2.390   2.390   9.793  0.00  0.00    -0.253 OA
ATOM     27  N   UNL     1      -3.659   2.830  11.562  0.00  0.00    -0.313 N 
ATOM     28  H   UNL     1      -3.728   0.303  11.634  0.00  0.00    +0.156 HD
ATOM     29  H   UNL     1      -4.202   2.494  12.292  0.00  0.00    +0.146 HD
ATOM     30  H   UNL     1      -3.539   3.785  11.446  0.00  0.00    +0.146 HD
ENDBRANCH  21  24
ENDBRANCH  16  18
ENDBRANCH   3  16
TORSDOF 6
