REMARK  Name = ZINC35099357
REMARK  13 active torsions:
REMARK  status: ('A' for Active; 'I' for Inactive)
REMARK    1  A    between atoms: C_1  and  C_2
REMARK    2  A    between atoms: C_2  and  O_3
REMARK    3  A    between atoms: O_3  and  C_4
REMARK    4  A    between atoms: C_4  and  C_6
REMARK    5  A    between atoms: C_6  and  N_7
REMARK    6  A    between atoms: N_13  and  C_16
REMARK    7  A    between atoms: C_16  and  C_17
REMARK    8  A    between atoms: C_17  and  N_18
REMARK    9  A    between atoms: N_18  and  C_19
REMARK   10  A    between atoms: C_19  and  C_20
REMARK   11  A    between atoms: C_28  and  C_29
REMARK   12  A    between atoms: C_28  and  C_30
REMARK   13  A    between atoms: C_31  and  C_33
REMARK                            x       y       z     vdW  Elec       q    Type
REMARK                         _______ _______ _______ _____ _____    ______ ____
ROOT
ATOM      1  N   UNL     1       1.217 -12.402  -5.601  0.00  0.00    -0.295 N 
ATOM      2  C   UNL     1       0.748 -13.432  -4.871  0.00  0.00    +0.247 C 
ATOM      3  O   UNL     1      -0.166 -14.113  -5.296  0.00  0.00    -0.270 OA
ENDROOT
BRANCH   2   4
ATOM      4  C   UNL     1       1.343 -13.735  -3.553  0.00  0.00    +0.037 A 
ATOM      5  C   UNL     1       1.942 -12.720  -2.804  0.00  0.00    +0.016 A 
ATOM      6  C   UNL     1       2.495 -13.008  -1.575  0.00  0.00    +0.039 A 
ATOM      7  C   UNL     1       2.460 -14.303  -1.083  0.00  0.00    +0.123 A 
ATOM      8  C   UNL     1       1.867 -15.315  -1.822  0.00  0.00    +0.039 A 
ATOM      9  C   UNL     1       1.304 -15.037  -3.049  0.00  0.00    +0.016 A 
ATOM     10  F   UNL     1       3.005 -14.580   0.122  0.00  0.00    -0.205 F 
ENDBRANCH   2   4
BRANCH   1  11
ATOM     11  C   UNL     1       2.373 -11.635  -5.129  0.00  0.00    +0.090 C 
BRANCH  11  12
ATOM     12  C   UNL     1       1.913 -10.251  -4.667  0.00  0.00    -0.059 C 
BRANCH  12  19
ATOM     13  N   UNL     1       5.103  -5.054  -3.612  0.00  0.00    -0.289 N 
ATOM     14  C   UNL     1       5.414  -6.137  -4.353  0.00  0.00    +0.303 C 
ATOM     15  O   UNL     1       6.205  -6.038  -5.270  0.00  0.00    -0.253 OA
ATOM     16  N   UNL     1       4.848  -7.328  -4.076  0.00  0.00    -0.289 N 
ATOM     17  C   UNL     1       3.808  -7.450  -3.042  0.00  0.00    +0.091 C 
ATOM     18  C   UNL     1       2.615  -8.202  -3.640  0.00  0.00    -0.059 C 
ATOM     19  N   UNL     1       3.072  -9.483  -4.193  0.00  0.00    +0.383 N 
ATOM     20  C   UNL     1       3.990  -9.244  -5.314  0.00  0.00    -0.059 C 
ATOM     21  C   UNL     1       5.248  -8.543  -4.803  0.00  0.00    +0.091 C 
ATOM     22  H   UNL     1       4.419  -5.116  -2.927  0.00  0.00    +0.151 HD
ATOM     23  H   UNL     1       3.549 -10.007  -3.475  0.00  0.00    -0.082 HD
BRANCH  13  24
ATOM     24  C   UNL     1       5.799  -3.786  -3.841  0.00  0.00    +0.226 C 
BRANCH  24  25
ATOM     25  C   UNL     1       5.269  -2.744  -2.889  0.00  0.00    +0.324 C 
ATOM     26  O   UNL     1       4.400  -3.032  -2.101  0.00  0.00    -0.249 OA
BRANCH  25  27
ATOM     27  O   UNL     1       5.763  -1.496  -2.918  0.00  0.00    -0.464 OA
BRANCH  27  29
ATOM     28  C   UNL     1       5.896   0.798  -2.168  0.00  0.00    +0.048 C 
ATOM     29  C   UNL     1       5.215  -0.560  -1.988  0.00  0.00    +0.229 C 
ENDBRANCH  27  29
ENDBRANCH  25  27
ENDBRANCH  24  25
ENDBRANCH  13  24
ENDBRANCH  12  19
ENDBRANCH  11  12
ENDBRANCH   1  11
BRANCH   1  30
ATOM     30  C   UNL     1       0.572 -12.048  -6.868  0.00  0.00    +0.138 C 
BRANCH  30  31
ATOM     31  C   UNL     1       1.294 -12.723  -8.005  0.00  0.00    -0.053 C 
ATOM     32  C   UNL     1       0.868 -13.860  -8.505  0.00  0.00    -0.025 C 
ATOM     33  C   UNL     1       1.625 -14.507  -9.639  0.00  0.00    +0.031 C 
ATOM     34  C   UNL     1       2.791 -13.604 -10.065  0.00  0.00    -0.000 C 
ATOM     35  C   UNL     1       2.386 -12.125 -10.187  0.00  0.00    +0.012 C 
ATOM     36  C   UNL     1       2.540 -12.111  -8.623  0.00  0.00    +0.022 C 
ATOM     37  C   UNL     1       3.631 -13.181  -8.843  0.00  0.00    -0.025 C 
ATOM     38  C   UNL     1       3.697 -14.240  -7.740  0.00  0.00    +0.012 C 
ATOM     39  C   UNL     1       5.001 -12.602  -9.204  0.00  0.00    +0.012 C 
ENDBRANCH  30  31
ENDBRANCH   1  30
TORSDOF 10
