REMARK  Name = ZINC14971723
REMARK  12 active torsions:
REMARK  status: ('A' for Active; 'I' for Inactive)
REMARK    1  A    between atoms: C_1  and  C_2
REMARK    2  A    between atoms: C_2  and  C_4
REMARK    3  A    between atoms: C_2  and  C_10
REMARK    4  A    between atoms: C_15  and  C_18
REMARK    5  A    between atoms: C_18  and  C_29
REMARK    6  A    between atoms: N_21  and  C_25
REMARK    7  A    between atoms: C_25  and  C_26
REMARK    8  A    between atoms: C_26  and  N_74
REMARK    9  A    between atoms: C_27  and  N_74
REMARK   10  A    between atoms: C_28  and  N_74
REMARK   11  A    between atoms: C_29  and  C_30
REMARK   12  A    between atoms: C_30  and  C_31
REMARK                            x       y       z     vdW  Elec       q    Type
REMARK                         _______ _______ _______ _____ _____    ______ ____
ROOT
ATOM      1  C   UNL     1       1.020  -5.182  -3.337  0.00  0.00    +0.116 C 
ATOM      2  C   UNL     1       2.163  -4.378  -3.925  0.00  0.00    +0.247 C 
ATOM      3  O   UNL     1       2.979  -3.716  -3.321  0.00  0.00    -0.273 OA
ATOM      4  N   UNL     1       2.082  -4.552  -5.259  0.00  0.00    -0.226 N 
ATOM      5  C   UNL     1       1.058  -5.346  -5.593  0.00  0.00    +0.309 C 
ATOM      6  O   UNL     1       0.784  -5.650  -6.737  0.00  0.00    -0.252 OA
ATOM      7  N   UNL     1       0.367  -5.771  -4.519  0.00  0.00    -0.285 N 
ATOM      8  H   UNL     1      -0.409  -6.353  -4.523  0.00  0.00    +0.151 HD
ENDROOT
BRANCH   1  14
ATOM      9  C   UNL     1      -0.736  -0.473  -1.227  0.00  0.00    +0.223 C 
ATOM     10  O   UNL     1      -1.289   0.332  -1.946  0.00  0.00    -0.275 OA
ATOM     11  N   UNL     1      -0.791  -1.787  -1.520  0.00  0.00    -0.301 N 
ATOM     12  C   UNL     1      -0.226  -2.784  -0.599  0.00  0.00    +0.108 C 
ATOM     13  C   UNL     1       0.753  -3.670  -1.366  0.00  0.00    +0.025 C 
ATOM     14  C   UNL     1       0.050  -4.269  -2.586  0.00  0.00    +0.024 C 
ATOM     15  C   UNL     1      -0.413  -3.143  -3.513  0.00  0.00    +0.025 C 
ATOM     16  C   UNL     1      -1.411  -2.251  -2.769  0.00  0.00    +0.108 C 
BRANCH   9  18
ATOM     17  C   UNL     1      -0.796  -0.340   1.249  0.00  0.00    +0.022 C 
ATOM     18  C   UNL     1       0.013  -0.004  -0.006  0.00  0.00    +0.102 C 
BRANCH  18  19
ATOM     19  C   UNL     1       0.220   1.487  -0.085  0.00  0.00    -0.036 A 
ATOM     20  C   UNL     1      -0.871   2.333  -0.160  0.00  0.00    +0.004 A 
ATOM     21  C   UNL     1      -0.681   3.700  -0.228  0.00  0.00    +0.000 A 
ATOM     22  C   UNL     1       0.600   4.221  -0.232  0.00  0.00    +0.000 A 
ATOM     23  C   UNL     1       1.690   3.374  -0.163  0.00  0.00    +0.000 A 
ATOM     24  C   UNL     1       1.500   2.007  -0.089  0.00  0.00    +0.004 A 
ENDBRANCH  18  19
ENDBRANCH   9  18
ENDBRANCH   1  14
BRANCH   4  25
ATOM     25  C   UNL     1       3.002  -3.945  -6.225  0.00  0.00    +0.099 C 
BRANCH  25  26
ATOM     26  C   UNL     1       4.185  -4.886  -6.463  0.00  0.00    -0.060 C 
BRANCH  26  29
ATOM     27  C   UNL     1       6.364  -5.034  -7.508  0.00  0.00    -0.097 C 
ATOM     28  C   UNL     1       4.479  -4.163  -8.755  0.00  0.00    -0.097 C 
ATOM     29  N   UNL     1       5.113  -4.251  -7.423  0.00  0.00    +0.377 N 
ATOM     30  H   UNL     1       5.334  -3.304  -7.095  0.00  0.00    -0.083 HD
ENDBRANCH  26  29
ENDBRANCH  25  26
ENDBRANCH   4  25
BRANCH   1  31
ATOM     31  C   UNL     1       1.553  -6.277  -2.411  0.00  0.00    +0.040 C 
BRANCH  31  32
ATOM     32  C   UNL     1       2.520  -7.174  -3.186  0.00  0.00    +0.038 C 
BRANCH  32  33
ATOM     33  C   UNL     1       3.045  -8.253  -2.274  0.00  0.00    -0.047 A 
ATOM     34  C   UNL     1       4.201  -8.039  -1.545  0.00  0.00    +0.003 A 
ATOM     35  C   UNL     1       4.680  -9.027  -0.705  0.00  0.00    +0.000 A 
ATOM     36  C   UNL     1       4.010 -10.231  -0.600  0.00  0.00    +0.000 A 
ATOM     37  C   UNL     1       2.857 -10.446  -1.333  0.00  0.00    +0.000 A 
ATOM     38  C   UNL     1       2.375  -9.457  -2.170  0.00  0.00    +0.003 A 
ENDBRANCH  32  33
ENDBRANCH  31  32
ENDBRANCH   1  31
TORSDOF 9
