REMARK  Name = ZINC36742498
REMARK  5 active torsions:
REMARK  status: ('A' for Active; 'I' for Inactive)
REMARK    1  A    between atoms: C_1  and  C_2
REMARK    2  A    between atoms: C_5  and  O_22
REMARK    3  A    between atoms: C_6  and  C_8
REMARK    4  A    between atoms: C_14  and  N_21
REMARK    5  A    between atoms: C_18  and  C_20
REMARK                            x       y       z     vdW  Elec       q    Type
REMARK                         _______ _______ _______ _____ _____    ______ ____
ROOT
ATOM      1  C   UNL     1      -0.167  -2.861   2.456  0.00  0.00    +0.255 C 
ATOM      2  O   UNL     1      -0.270  -2.257   1.405  0.00  0.00    -0.269 OA
ATOM      3  N   UNL     1      -0.169  -2.188   3.623  0.00  0.00    -0.264 N 
ATOM      4  C   UNL     1      -0.391  -0.812   3.757  0.00  0.00    +0.040 A 
ATOM      5  C   UNL     1      -0.650   0.141   2.769  0.00  0.00    +0.025 A 
ATOM      6  C   UNL     1      -0.842   1.462   3.110  0.00  0.00    +0.024 A 
ATOM      7  C   UNL     1      -0.779   1.856   4.440  0.00  0.00    +0.025 A 
ATOM      8  C   UNL     1      -0.523   0.912   5.425  0.00  0.00    +0.028 A 
ATOM      9  C   UNL     1      -0.330  -0.412   5.082  0.00  0.00    -0.022 A 
ATOM     10  C   UNL     1      -0.040  -1.625   5.938  0.00  0.00    +0.059 C 
ATOM     11  C   UNL     1       0.056  -2.790   4.940  0.00  0.00    +0.083 C 
ATOM     12  C   UNL     1       1.446  -3.426   5.003  0.00  0.00    +0.029 C 
ENDROOT
BRANCH   1  18
ATOM     13  C   UNL     1       0.095  -7.174   4.946  0.00  0.00    +0.044 C 
ATOM     14  C   UNL     1       0.085  -6.412   3.646  0.00  0.00    -0.050 A 
ATOM     15  C   UNL     1       0.194  -7.095   2.445  0.00  0.00    +0.007 A 
ATOM     16  C   UNL     1       0.186  -6.407   1.248  0.00  0.00    +0.046 A 
ATOM     17  C   UNL     1       0.069  -5.026   1.239  0.00  0.00    +0.129 A 
ATOM     18  C   UNL     1      -0.042  -4.331   2.452  0.00  0.00    +0.079 A 
ATOM     19  C   UNL     1      -0.038  -5.039   3.656  0.00  0.00    +0.020 A 
BRANCH  17  20
ATOM     20  O   UNL     1       0.062  -4.349   0.063  0.00  0.00    -0.506 OA
ATOM     21  H   UNL     1      -0.820  -4.228  -0.315  0.00  0.00    +0.292 HD
ENDBRANCH  17  20
ENDBRANCH   1  18
BRANCH   7  22
ATOM     22  N   UNL     1      -0.974   3.198   4.786  0.00  0.00    -0.358 N 
ATOM     23  H   UNL     1      -1.153   3.855   4.096  0.00  0.00    +0.142 HD
ATOM     24  H   UNL     1      -0.929   3.470   5.716  0.00  0.00    +0.142 HD
ENDBRANCH   7  22
TORSDOF 3
