REMARK  Name = ZINC35457715
REMARK  4 active torsions:
REMARK  status: ('A' for Active; 'I' for Inactive)
REMARK    1  A    between atoms: C_1  and  C_2
REMARK    2  A    between atoms: C_11  and  C_17
REMARK    3  A    between atoms: C_14  and  O_16
REMARK    4  A    between atoms: C_17  and  C_19
REMARK                            x       y       z     vdW  Elec       q    Type
REMARK                         _______ _______ _______ _____ _____    ______ ____
ROOT
ATOM      1  C   UNL     1      -0.871   1.063  -0.769  0.00  0.00    +0.014 C 
ATOM      2  C   UNL     1      -0.825  -0.451  -0.552  0.00  0.00    +0.000 C 
ATOM      3  C   UNL     1      -0.476  -1.141  -1.869  0.00  0.00    +0.010 C 
ATOM      4  C   UNL     1       0.836  -0.570  -2.412  0.00  0.00    +0.005 C 
ATOM      5  C   UNL     1       1.976  -0.870  -1.435  0.00  0.00    +0.030 C 
ATOM      6  C   UNL     1       1.590  -0.363  -0.061  0.00  0.00    -0.073 C 
ATOM      7  C   UNL     1       2.393   0.411   0.626  0.00  0.00    +0.008 C 
ATOM      8  C   UNL     1       0.248  -0.781   0.491  0.00  0.00    +0.023 C 
ATOM      9  C   UNL     1      -0.066  -0.030   1.784  0.00  0.00    +0.017 C 
ATOM     10  C   UNL     1      -1.431  -0.487   2.308  0.00  0.00    +0.029 C 
ATOM     11  C   UNL     1      -2.511  -0.199   1.264  0.00  0.00    +0.040 C 
ATOM     12  C   UNL     1      -2.183  -0.930  -0.041  0.00  0.00    +0.122 C 
ENDROOT
BRANCH  12  13
ATOM     13  O   UNL     1      -2.133  -2.338   0.200  0.00  0.00    -0.391 OA
ATOM     14  H   UNL     1      -2.963  -2.711   0.527  0.00  0.00    +0.210 HD
ENDBRANCH  12  13
BRANCH  10  15
ATOM     15  C   UNL     1      -1.390  -1.967   2.588  0.00  0.00    +0.037 C 
ATOM     16  C   UNL     1      -0.233  -2.625   2.524  0.00  0.00    +0.020 C 
BRANCH  15  17
ATOM     17  C   UNL     1      -2.623  -2.683   2.931  0.00  0.00    +0.382 C 
ATOM     18  O   UNL     1      -2.613  -3.902   3.039  0.00  0.00    -0.241 OA
ATOM     19  O   UNL     1      -3.662  -2.062   3.109  0.00  0.00    -0.241 OA
ENDBRANCH  15  17
ENDBRANCH  10  15
TORSDOF 3
