REMARK  Name = ZINC01747705
REMARK  13 active torsions:
REMARK  status: ('A' for Active; 'I' for Inactive)
REMARK    1  A    between atoms: C_1  and  C_2
REMARK    2  A    between atoms: C_2  and  C_3
REMARK    3  A    between atoms: C_2  and  C_4
REMARK    4  A    between atoms: C_4  and  N_60
REMARK    5  A    between atoms: C_5  and  C_6
REMARK    6  A    between atoms: C_5  and  N_60
REMARK    7  A    between atoms: C_7  and  O_28
REMARK    8  A    between atoms: C_13  and  C_24
REMARK    9  A    between atoms: C_14  and  C_17
REMARK   10  A    between atoms: C_29  and  C_30
REMARK   11  A    between atoms: C_29  and  N_60
REMARK   12  A    between atoms: C_30  and  C_31
REMARK   13  A    between atoms: C_30  and  C_32
REMARK                            x       y       z     vdW  Elec       q    Type
REMARK                         _______ _______ _______ _____ _____    ______ ____
ROOT
ATOM      1  C   UNL     1       5.521   5.749   0.732  0.00  0.00    +0.020 A 
ATOM      2  C   UNL     1       5.974   6.052  -0.541  0.00  0.00    +0.122 A 
ATOM      3  C   UNL     1       5.361   5.499  -1.662  0.00  0.00    +0.046 A 
ATOM      4  C   UNL     1       4.302   4.648  -1.520  0.00  0.00    +0.019 A 
ATOM      5  C   UNL     1       3.834   4.333  -0.244  0.00  0.00    +0.065 A 
ATOM      6  C   UNL     1       4.446   4.886   0.895  0.00  0.00    +0.144 A 
ATOM      7  O   UNL     1       3.992   4.580   2.127  0.00  0.00    -0.450 OA
ATOM      8  C   UNL     1       2.959   3.762   2.345  0.00  0.00    +0.219 A 
ATOM      9  C   UNL     1       2.281   3.155   1.337  0.00  0.00    +0.078 A 
ATOM     10  C   UNL     1       2.693   3.419  -0.052  0.00  0.00    +0.201 A 
ATOM     11  O   UNL     1       2.119   2.906  -0.997  0.00  0.00    -0.286 OA
ENDROOT
BRANCH   9  12
ATOM     12  C   UNL     1       1.144   2.249   1.629  0.00  0.00    +0.008 A 
ATOM     13  C   UNL     1       1.365   0.886   1.814  0.00  0.00    +0.010 A 
ATOM     14  C   UNL     1       0.303   0.048   2.086  0.00  0.00    +0.001 A 
ATOM     15  C   UNL     1      -0.980   0.557   2.170  0.00  0.00    +0.001 A 
ATOM     16  C   UNL     1      -1.206   1.910   1.994  0.00  0.00    +0.020 A 
ATOM     17  C   UNL     1      -0.151   2.759   1.721  0.00  0.00    +0.049 A 
ATOM     18 CL   UNL     1      -0.437   4.456   1.492  0.00  0.00    -0.083 Cl
ENDBRANCH   9  12
BRANCH   8  19
ATOM     19  C   UNL     1       2.534   3.497   3.767  0.00  0.00    +0.451 C 
ATOM     20  F   UNL     1       3.232   2.392   4.264  0.00  0.00    -0.163 F 
ATOM     21  F   UNL     1       2.814   4.619   4.554  0.00  0.00    -0.163 F 
ATOM     22  F   UNL     1       1.160   3.235   3.801  0.00  0.00    -0.163 F 
ENDBRANCH   8  19
BRANCH   2  23
ATOM     23  O   UNL     1       7.026   6.896  -0.697  0.00  0.00    -0.506 OA
ATOM     24  H   UNL     1       7.886   6.455  -0.707  0.00  0.00    +0.292 HD
ENDBRANCH   2  23
BRANCH   1  25
ATOM     25  C   UNL     1       6.194   6.354   1.938  0.00  0.00    -0.036 C 
BRANCH  25  26
ATOM     26  N   UNL     1       7.301   5.471   2.361  0.00  0.00    +0.383 N 
ATOM     27  H   UNL     1       7.938   5.332   1.568  0.00  0.00    -0.081 HD
BRANCH  26  28
ATOM     28  C   UNL     1       8.047   6.095   3.474  0.00  0.00    -0.075 C 
BRANCH  28  30
ATOM     29  C   UNL     1       8.385   8.217   2.199  0.00  0.00    +0.005 C 
ATOM     30  C   UNL     1       9.091   7.047   2.887  0.00  0.00    -0.034 C 
ATOM     31  C   UNL     1       9.984   7.580   4.010  0.00  0.00    +0.005 C 
ENDBRANCH  28  30
ENDBRANCH  26  28
BRANCH  26  32
ATOM     32  C   UNL     1       6.767   4.159   2.784  0.00  0.00    -0.075 C 
BRANCH  32  33
ATOM     33  C   UNL     1       7.931   3.176   2.923  0.00  0.00    -0.034 C 
ATOM     34  C   UNL     1       7.409   1.838   3.451  0.00  0.00    +0.005 C 
ATOM     35  C   UNL     1       8.587   2.965   1.557  0.00  0.00    +0.005 C 
ENDBRANCH  32  33
ENDBRANCH  26  32
ENDBRANCH  25  26
ENDBRANCH   1  25
TORSDOF 9
