REMARK  Name = ZINC06577033
REMARK  7 active torsions:
REMARK  status: ('A' for Active; 'I' for Inactive)
REMARK    1  A    between atoms: C_1  and  C_2
REMARK    2  A    between atoms: C_7  and  N_8
REMARK    3  A    between atoms: C_9  and  C_23
REMARK    4  A    between atoms: C_12  and  S_13
REMARK    5  A    between atoms: S_13  and  C_14
REMARK    6  A    between atoms: C_14  and  C_15
REMARK    7  A    between atoms: C_23  and  N_24
REMARK                            x       y       z     vdW  Elec       q    Type
REMARK                         _______ _______ _______ _____ _____    ______ ____
ROOT
ATOM      1  N   UNL     1       0.002  -0.198   2.527  0.00  0.00    -0.272 N 
ATOM      2  C   UNL     1      -1.060   0.453   3.097  0.00  0.00    +0.159 A 
ATOM      3  N   UNL     1      -0.588   1.197   4.057  0.00  0.00    -0.131 NA
ATOM      4  N   UNL     1       0.688   1.063   4.135  0.00  0.00    -0.122 NA
ATOM      5  C   UNL     1       1.105   0.215   3.224  0.00  0.00    +0.197 A 
ENDROOT
BRANCH   1  12
ATOM      6  C   UNL     1       0.572   0.780  -0.084  0.00  0.00    +0.046 C 
ATOM      7  C   UNL     1       0.237  -0.667   0.167  0.00  0.00    -0.027 A 
ATOM      8  C   UNL     1       0.206  -1.563  -0.884  0.00  0.00    +0.005 A 
ATOM      9  C   UNL     1      -0.101  -2.891  -0.654  0.00  0.00    +0.000 A 
ATOM     10  C   UNL     1      -0.378  -3.327   0.629  0.00  0.00    +0.002 A 
ATOM     11  C   UNL     1      -0.348  -2.437   1.684  0.00  0.00    +0.026 A 
ATOM     12  C   UNL     1      -0.034  -1.103   1.457  0.00  0.00    +0.053 A 
ENDBRANCH   1  12
BRANCH   5  13
ATOM     13  S   UNL     1       2.769  -0.293   2.948  0.00  0.00    -0.076 S 
BRANCH  13  14
ATOM     14  C   UNL     1       3.719   0.616   4.198  0.00  0.00    +0.173 C 
BRANCH  14  15
ATOM     15  C   UNL     1       5.179   0.268   4.071  0.00  0.00    +0.229 C 
ATOM     16  O   UNL     1       5.544  -0.516   3.221  0.00  0.00    -0.275 OA
ATOM     17  N   UNL     1       6.080   0.829   4.902  0.00  0.00    -0.264 N 
ATOM     18  C   UNL     1       7.428   0.507   4.785  0.00  0.00    +0.164 A 
ATOM     19  N   UNL     1       8.002  -0.309   3.929  0.00  0.00    -0.233 NA
ATOM     20  C   UNL     1       9.306  -0.510   3.947  0.00  0.00    +0.120 A 
ATOM     21  C   UNL     1      10.020   0.162   4.884  0.00  0.00    +0.068 A 
ATOM     22  S   UNL     1       8.721   1.075   5.700  0.00  0.00    -0.061 S 
ATOM     23  H   UNL     1       5.788   1.456   5.582  0.00  0.00    +0.157 HD
ENDBRANCH  14  15
ENDBRANCH  13  14
ENDBRANCH   5  13
BRANCH   2  24
ATOM     24  C   UNL     1      -2.505   0.333   2.688  0.00  0.00    +0.202 C 
BRANCH  24  25
ATOM     25  N   UNL     1      -2.848   1.426   1.776  0.00  0.00    -0.294 N 
ATOM     26  C   UNL     1      -3.235   2.652   2.292  0.00  0.00    +0.060 A 
ATOM     27  C   UNL     1      -3.353   3.018   3.643  0.00  0.00    +0.027 A 
ATOM     28  C   UNL     1      -3.753   4.284   3.999  0.00  0.00    +0.002 A 
ATOM     29  C   UNL     1      -4.052   5.238   3.042  0.00  0.00    +0.001 A 
ATOM     30  C   UNL     1      -3.945   4.907   1.703  0.00  0.00    +0.017 A 
ATOM     31  C   UNL     1      -3.545   3.642   1.347  0.00  0.00    +0.041 A 
ATOM     32  S   UNL     1      -3.283   2.816  -0.204  0.00  0.00    -0.027 S 
ATOM     33  C   UNL     1      -2.779   1.231   0.445  0.00  0.00    +0.292 A 
ATOM     34  O   UNL     1      -2.455   0.227  -0.162  0.00  0.00    -0.259 OA
ENDBRANCH  24  25
ENDBRANCH   2  24
TORSDOF 6
