REMARK  Name = ZINC12993264
REMARK  7 active torsions:
REMARK  status: ('A' for Active; 'I' for Inactive)
REMARK    1  A    between atoms: C_4  and  C_7
REMARK    2  A    between atoms: C_8  and  C_31
REMARK    3  A    between atoms: C_10  and  C_12
REMARK    4  A    between atoms: C_12  and  C_13
REMARK    5  A    between atoms: C_13  and  C_14
REMARK    6  A    between atoms: N_19  and  C_22
REMARK    7  A    between atoms: C_25  and  N_28
REMARK                            x       y       z     vdW  Elec       q    Type
REMARK                         _______ _______ _______ _____ _____    ______ ____
ROOT
ATOM      1  C   UNL     1       7.111  -1.201   1.039  0.00  0.00    +0.103 C 
ENDROOT
BRANCH   1   5
ATOM      2  C   UNL     1       3.692  -0.653  -0.011  0.00  0.00    +0.092 A 
ATOM      3  C   UNL     1       3.969  -1.826  -0.682  0.00  0.00    +0.161 A 
ATOM      4  O   UNL     1       5.243  -2.154  -0.374  0.00  0.00    -0.441 OA
ATOM      5  C   UNL     1       5.723  -1.216   0.454  0.00  0.00    +0.176 A 
ATOM      6  N   UNL     1       4.808  -0.315   0.670  0.00  0.00    -0.326 N 
ATOM      7  H   UNL     1       4.911   0.469   1.231  0.00  0.00    +0.169 HD
BRANCH   2  11
ATOM      8  C   UNL     1       0.029   1.501  -0.088  0.00  0.00    +0.000 A 
ATOM      9  C   UNL     1       1.226   2.171  -0.267  0.00  0.00    +0.001 A 
ATOM     10  C   UNL     1       2.418   1.478  -0.243  0.00  0.00    +0.010 A 
ATOM     11  C   UNL     1       2.416   0.098  -0.037  0.00  0.00    +0.002 A 
ATOM     12  C   UNL     1       1.206  -0.572   0.143  0.00  0.00    +0.010 A 
ATOM     13  C   UNL     1       0.020   0.133   0.117  0.00  0.00    +0.001 A 
ENDBRANCH   2  11
BRANCH   3  14
ATOM     14  C   UNL     1       3.053  -2.576  -1.564  0.00  0.00    +0.019 A 
ATOM     15  C   UNL     1       2.905  -3.956  -1.410  0.00  0.00    +0.011 A 
ATOM     16  C   UNL     1       2.047  -4.651  -2.237  0.00  0.00    +0.001 A 
ATOM     17  C   UNL     1       1.335  -3.983  -3.218  0.00  0.00    +0.000 A 
ATOM     18  C   UNL     1       1.477  -2.616  -3.376  0.00  0.00    +0.001 A 
ATOM     19  C   UNL     1       2.326  -1.907  -2.552  0.00  0.00    +0.011 A 
ENDBRANCH   3  14
ENDBRANCH   1   5
BRANCH   1  20
ATOM     20  C   UNL     1       7.112  -1.956   2.370  0.00  0.00    +0.105 C 
BRANCH  20  21
ATOM     21  C   UNL     1       8.500  -1.942   2.955  0.00  0.00    +0.216 C 
ATOM     22  O   UNL     1       9.401  -1.383   2.366  0.00  0.00    -0.276 OA
ATOM     23  N   UNL     1       8.741  -2.550   4.133  0.00  0.00    -0.298 N 
ATOM     24  C   UNL     1       7.661  -3.236   4.856  0.00  0.00    +0.126 C 
ATOM     25  C   UNL     1       8.091  -4.684   5.121  0.00  0.00    +0.124 C 
ATOM     26  N   UNL     1       9.439  -4.673   5.707  0.00  0.00    -0.327 N 
ATOM     27  C   UNL     1      10.520  -3.987   4.984  0.00  0.00    +0.124 C 
ATOM     28  C   UNL     1      10.090  -2.544   4.716  0.00  0.00    +0.126 C 
BRANCH  26  29
ATOM     29  C   UNL     1       9.689  -5.304   6.928  0.00  0.00    +0.030 A 
ATOM     30  C   UNL     1       8.692  -6.052   7.542  0.00  0.00    +0.025 A 
ATOM     31  C   UNL     1       8.943  -6.674   8.749  0.00  0.00    +0.034 A 
ATOM     32  C   UNL     1      10.184  -6.553   9.346  0.00  0.00    +0.126 A 
ATOM     33  C   UNL     1      11.178  -5.809   8.738  0.00  0.00    +0.034 A 
ATOM     34  C   UNL     1      10.936  -5.189   7.528  0.00  0.00    +0.025 A 
BRANCH  32  35
ATOM     35  N   UNL     1      10.448  -7.221  10.640  0.00  0.00    +0.056 N 
ATOM     36  O   UNL     1       9.580  -7.872  11.174  0.00  0.00    -0.126 OA
ATOM     37  O   UNL     1      11.533  -7.117  11.164  0.00  0.00    -0.126 OA
ENDBRANCH  32  35
ENDBRANCH  26  29
ENDBRANCH  20  21
ENDBRANCH   1  20
TORSDOF 7
