REMARK  Name = ZINC13064658
REMARK  14 active torsions:
REMARK  status: ('A' for Active; 'I' for Inactive)
REMARK    1  A    between atoms: C_1  and  C_2
REMARK    2  A    between atoms: C_2  and  C_3
REMARK    3  A    between atoms: C_3  and  C_5
REMARK    4  A    between atoms: C_3  and  N_70
REMARK    5  A    between atoms: N_9  and  C_10
REMARK    6  A    between atoms: C_10  and  C_11
REMARK    7  A    between atoms: C_14  and  O_17
REMARK    8  A    between atoms: O_17  and  C_18
REMARK    9  A    between atoms: C_19  and  C_20
REMARK   10  A    between atoms: C_19  and  N_70
REMARK   11  A    between atoms: C_25  and  C_26
REMARK   12  A    between atoms: C_25  and  N_70
REMARK   13  A    between atoms: C_30  and  C_39
REMARK   14  A    between atoms: C_31  and  C_38
REMARK                            x       y       z     vdW  Elec       q    Type
REMARK                         _______ _______ _______ _____ _____    ______ ____
ROOT
ATOM      1  N   UNL     1      -5.187   4.553  -1.307  0.00  0.00    +0.394 N 
ATOM      2  H   UNL     1      -4.477   5.002  -1.897  0.00  0.00    -0.080 HD
ENDROOT
BRANCH   1   3
ATOM      3  C   UNL     1      -6.445   5.323  -1.399  0.00  0.00    +0.003 C 
BRANCH   3   4
ATOM      4  C   UNL     1      -6.495   6.001  -2.743  0.00  0.00    +0.138 A 
ATOM      5  N   UNL     1      -6.077   5.509  -3.884  0.00  0.00    -0.115 NA
ATOM      6  N   UNL     1      -6.293   6.389  -4.800  0.00  0.00    -0.023 NA
ATOM      7  N   UNL     1      -6.832   7.432  -4.272  0.00  0.00    -0.044 NA
ATOM      8  N   UNL     1      -6.972   7.232  -3.005  0.00  0.00    -0.226 N 
BRANCH   8   9
ATOM      9  C   UNL     1      -7.543   8.169  -2.034  0.00  0.00    +0.182 C 
BRANCH   9  10
ATOM     10  C   UNL     1      -6.449   9.039  -1.472  0.00  0.00    -0.026 A 
ATOM     11  C   UNL     1      -5.768   8.643  -0.335  0.00  0.00    +0.009 A 
ATOM     12  C   UNL     1      -4.761   9.436   0.179  0.00  0.00    +0.046 A 
ATOM     13  C   UNL     1      -4.439  10.636  -0.440  0.00  0.00    +0.120 A 
ATOM     14  C   UNL     1      -5.127  11.033  -1.577  0.00  0.00    +0.046 A 
ATOM     15  C   UNL     1      -6.130  10.234  -2.091  0.00  0.00    +0.009 A 
BRANCH  13  16
ATOM     16  O   UNL     1      -3.452  11.420   0.067  0.00  0.00    -0.495 OA
ATOM     17  C   UNL     1      -2.786  10.948   1.240  0.00  0.00    +0.277 C 
ENDBRANCH  13  16
ENDBRANCH   9  10
ENDBRANCH   8   9
ENDBRANCH   3   4
BRANCH   3  19
ATOM     18  C   UNL     1      -7.718   3.868   0.184  0.00  0.00    +0.002 C 
ATOM     19  C   UNL     1      -7.651   4.392  -1.252  0.00  0.00    -0.011 C 
ENDBRANCH   3  19
ENDBRANCH   1   3
BRANCH   1  20
ATOM     20  C   UNL     1      -5.404   3.171  -1.786  0.00  0.00    -0.002 C 
BRANCH  20  21
ATOM     21  C   UNL     1      -5.603   3.202  -3.280  0.00  0.00    +0.089 A 
ATOM     22  C   UNL     1      -4.625   3.237  -4.203  0.00  0.00    +0.042 A 
ATOM     23  C   UNL     1      -5.256   3.256  -5.468  0.00  0.00    +0.041 A 
ATOM     24  C   UNL     1      -6.582   3.231  -5.242  0.00  0.00    +0.195 A 
ATOM     25  O   UNL     1      -6.786   3.192  -3.915  0.00  0.00    -0.470 OA
ENDBRANCH  20  21
ENDBRANCH   1  20
BRANCH   1  26
ATOM     26  C   UNL     1      -4.707   4.533   0.091  0.00  0.00    -0.036 C 
BRANCH  26  27
ATOM     27  C   UNL     1      -3.264   4.099   0.101  0.00  0.00    +0.001 A 
ATOM     28  C   UNL     1      -2.279   5.031   0.103  0.00  0.00    +0.017 A 
ATOM     29  C   UNL     1      -0.887   4.576   0.108  0.00  0.00    -0.001 A 
ATOM     30  C   UNL     1       0.172   5.490   0.093  0.00  0.00    +0.013 A 
ATOM     31  C   UNL     1       1.460   5.034   0.098  0.00  0.00    -0.047 A 
ATOM     32  C   UNL     1       1.727   3.672   0.117  0.00  0.00    -0.046 A 
ATOM     33  C   UNL     1       0.699   2.754   0.132  0.00  0.00    +0.030 A 
ATOM     34  C   UNL     1      -0.620   3.194   0.122  0.00  0.00    +0.049 A 
ATOM     35  N   UNL     1      -1.668   2.298   0.131  0.00  0.00    -0.322 N 
ATOM     36  H   UNL     1      -1.483   1.346   0.144  0.00  0.00    +0.169 HD
ATOM     37  C   UNL     1      -2.943   2.725   0.120  0.00  0.00    +0.251 A 
ATOM     38  O   UNL     1      -3.844   1.904   0.128  0.00  0.00    -0.268 OA
ATOM     39  C   UNL     1       3.155   3.192   0.121  0.00  0.00    +0.044 C 
ATOM     40  C   UNL     1       2.601   6.018   0.082  0.00  0.00    +0.044 C 
ENDBRANCH  26  27
ENDBRANCH   1  26
TORSDOF 10
