REMARK  Name = ZINC64623249
REMARK  10 active torsions:
REMARK  status: ('A' for Active; 'I' for Inactive)
REMARK    1  A    between atoms: C_1  and  C_2
REMARK    2  A    between atoms: C_2  and  O_3
REMARK    3  A    between atoms: O_3  and  C_4
REMARK    4  A    between atoms: C_4  and  C_6
REMARK    5  A    between atoms: C_6  and  C_7
REMARK    6  A    between atoms: C_10  and  N_13
REMARK    7  A    between atoms: C_22  and  O_38
REMARK    8  A    between atoms: C_29  and  C_31
REMARK    9  A    between atoms: C_34  and  C_37
REMARK   10  A    between atoms: O_38  and  C_39
REMARK                            x       y       z     vdW  Elec       q    Type
REMARK                         _______ _______ _______ _____ _____    ______ ____
ROOT
ATOM      1  N   UNL     1      -0.696  -8.135   0.340  0.00  0.00    -0.269 N 
ATOM      2  C   UNL     1      -1.169  -8.821   1.399  0.00  0.00    +0.307 C 
ATOM      3  O   UNL     1      -1.312  -8.264   2.470  0.00  0.00    -0.252 OA
ATOM      4  N   UNL     1      -1.483 -10.125   1.271  0.00  0.00    -0.276 N 
ATOM      5  C   UNL     1      -1.189 -10.822   0.015  0.00  0.00    +0.114 C 
ATOM      6  C   UNL     1      -2.490 -11.412  -0.561  0.00  0.00    +0.052 C 
ATOM      7  C   UNL     1      -3.208 -12.079   0.587  0.00  0.00    -0.035 C 
ATOM      8  C   UNL     1      -3.705 -13.301   0.720  0.00  0.00    +0.003 A 
ATOM      9  C   UNL     1      -3.838 -14.417  -0.231  0.00  0.00    +0.055 A 
ATOM     10  C   UNL     1      -4.389 -15.566   0.249  0.00  0.00    +0.121 A 
ATOM     11  C   UNL     1      -4.825 -15.733   1.572  0.00  0.00    +0.047 A 
ATOM     12  C   UNL     1      -4.758 -14.770   2.526  0.00  0.00    +0.029 A 
ATOM     13  C   UNL     1      -4.186 -13.477   2.125  0.00  0.00    +0.043 A 
ATOM     14  N   UNL     1      -4.018 -12.383   2.804  0.00  0.00    -0.375 N 
ATOM     15  C   UNL     1      -3.472 -11.364   1.907  0.00  0.00    +0.131 C 
ATOM     16  C   UNL     1      -2.113 -10.836   2.395  0.00  0.00    +0.134 C 
ATOM     17  H   UNL     1      -0.655  -8.557  -0.532  0.00  0.00    +0.156 HD
ATOM     18  H   UNL     1      -4.220 -12.262   3.745  0.00  0.00    +0.160 HD
ENDROOT
BRANCH  16  19
ATOM     19  C   UNL     1      -2.315  -9.888   3.549  0.00  0.00    -0.025 A 
ATOM     20  C   UNL     1      -3.175  -8.814   3.419  0.00  0.00    +0.006 A 
ATOM     21  C   UNL     1      -3.361  -7.945   4.478  0.00  0.00    +0.004 A 
ATOM     22  C   UNL     1      -2.686  -8.150   5.667  0.00  0.00    -0.050 A 
ATOM     23  C   UNL     1      -1.826  -9.225   5.797  0.00  0.00    +0.004 A 
ATOM     24  C   UNL     1      -1.644 -10.096   4.740  0.00  0.00    +0.006 A 
ATOM     25  C   UNL     1      -2.887  -7.202   6.821  0.00  0.00    +0.044 C 
ENDBRANCH  16  19
BRANCH   1  29
ATOM     26  C   UNL     1       0.592  -4.201   0.813  0.00  0.00    -0.037 A 
ATOM     27  C   UNL     1       1.245  -5.039  -0.073  0.00  0.00    +0.006 A 
ATOM     28  C   UNL     1       0.820  -6.343  -0.232  0.00  0.00    +0.023 A 
ATOM     29  C   UNL     1      -0.263  -6.814   0.499  0.00  0.00    +0.035 A 
ATOM     30  C   UNL     1      -0.916  -5.970   1.388  0.00  0.00    +0.023 A 
ATOM     31  C   UNL     1      -0.483  -4.668   1.546  0.00  0.00    +0.006 A 
BRANCH  26  32
ATOM     32  C   UNL     1       1.058  -2.778   0.984  0.00  0.00    +0.155 C 
BRANCH  32  33
ATOM     33  C   UNL     1       2.097  -2.717   2.073  0.00  0.00    +0.311 C 
ATOM     34  O   UNL     1       2.426  -3.726   2.652  0.00  0.00    -0.250 OA
BRANCH  33  35
ATOM     35  O   UNL     1       2.658  -1.542   2.401  0.00  0.00    -0.465 OA
BRANCH  35  37
ATOM     36  C   UNL     1       4.158  -0.139   3.675  0.00  0.00    +0.048 C 
ATOM     37  C   UNL     1       3.636  -1.558   3.443  0.00  0.00    +0.229 C 
ENDBRANCH  35  37
ENDBRANCH  33  35
ENDBRANCH  32  33
ENDBRANCH  26  32
ENDBRANCH   1  29
BRANCH  10  38
ATOM     38  O   UNL     1      -4.526 -16.613  -0.605  0.00  0.00    -0.495 OA
ATOM     39  C   UNL     1      -5.106 -17.808  -0.079  0.00  0.00    +0.277 C 
ENDBRANCH  10  38
TORSDOF 7
