REMARK  Name = ZINC03270697
REMARK  12 active torsions:
REMARK  status: ('A' for Active; 'I' for Inactive)
REMARK    1  A    between atoms: C_1  and  C_2
REMARK    2  A    between atoms: C_5  and  C_8
REMARK    3  A    between atoms: C_8  and  C_10
REMARK    4  A    between atoms: C_12  and  C_31
REMARK    5  A    between atoms: C_16  and  C_21
REMARK    6  A    between atoms: C_24  and  C_27
REMARK    7  A    between atoms: C_27  and  C_28
REMARK    8  A    between atoms: C_27  and  C_29
REMARK    9  A    between atoms: C_27  and  C_30
REMARK   10  A    between atoms: C_34  and  C_37
REMARK   11  A    between atoms: C_37  and  O_39
REMARK   12  A    between atoms: O_39  and  C_40
REMARK                            x       y       z     vdW  Elec       q    Type
REMARK                         _______ _______ _______ _____ _____    ______ ____
ROOT
ATOM      1  C   UNL     1      -3.454   1.972   7.802  0.00  0.00    +0.151 C 
ATOM      2  C   UNL     1      -2.294   2.952   7.581  0.00  0.00    +0.139 C 
ATOM      3  N   UNL     1      -2.808   4.298   7.325  0.00  0.00    -0.272 N 
ATOM      4  N   UNL     1      -3.561   4.797   8.340  0.00  0.00    -0.221 N 
ATOM      5  C   UNL     1      -3.840   6.115   8.608  0.00  0.00    +0.182 A 
ATOM      6  N   UNL     1      -4.621   6.136   9.665  0.00  0.00    -0.127 NA
ATOM      7  N   UNL     1      -4.842   4.935  10.075  0.00  0.00    -0.121 NA
ATOM      8  C   UNL     1      -4.216   4.085   9.305  0.00  0.00    +0.210 A 
ATOM      9  S   UNL     1      -4.178   2.325   9.432  0.00  0.00    -0.071 S 
ATOM     10  H   UNL     1      -2.061   4.932   7.088  0.00  0.00    +0.167 HD
ENDROOT
BRANCH   5  11
ATOM     11  C   UNL     1      -3.355   7.288   7.850  0.00  0.00    +0.021 A 
ATOM     12  C   UNL     1      -3.401   8.560   8.422  0.00  0.00    +0.012 A 
ATOM     13  C   UNL     1      -2.943   9.650   7.712  0.00  0.00    +0.005 A 
ATOM     14  C   UNL     1      -2.447   9.485   6.431  0.00  0.00    -0.042 A 
ATOM     15  C   UNL     1      -2.402   8.227   5.856  0.00  0.00    +0.005 A 
ATOM     16  C   UNL     1      -2.853   7.129   6.557  0.00  0.00    +0.012 A 
BRANCH  14  17
ATOM     17  C   UNL     1      -1.953  10.681   5.658  0.00  0.00    -0.013 C 
ATOM     18  C   UNL     1      -2.770  10.831   4.373  0.00  0.00    +0.015 C 
ATOM     19  C   UNL     1      -2.111  11.941   6.512  0.00  0.00    +0.015 C 
ATOM     20  C   UNL     1      -0.478  10.486   5.304  0.00  0.00    +0.015 C 
ENDBRANCH  14  17
ENDBRANCH   5  11
BRANCH   2  21
ATOM     21  C   UNL     1      -1.477   2.498   6.399  0.00  0.00    -0.024 A 
ATOM     22  C   UNL     1      -0.299   1.802   6.602  0.00  0.00    +0.006 A 
ATOM     23  C   UNL     1       0.454   1.384   5.524  0.00  0.00    +0.015 A 
ATOM     24  C   UNL     1       0.025   1.665   4.226  0.00  0.00    +0.059 A 
ATOM     25  C   UNL     1      -1.163   2.372   4.028  0.00  0.00    +0.015 A 
ATOM     26  C   UNL     1      -1.908   2.780   5.114  0.00  0.00    +0.006 A 
BRANCH  24  27
ATOM     27  C   UNL     1       0.827   1.221   3.067  0.00  0.00    +0.339 C 
ATOM     28  O   UNL     1       1.862   0.611   3.243  0.00  0.00    -0.245 OA
BRANCH  27  29
ATOM     29  O   UNL     1       0.409   1.494   1.815  0.00  0.00    -0.464 OA
ATOM     30  C   UNL     1       1.247   1.028   0.725  0.00  0.00    +0.280 C 
ENDBRANCH  27  29
ENDBRANCH  24  27
ENDBRANCH   2  21
BRANCH   1  31
ATOM     31  C   UNL     1      -2.938   0.556   7.769  0.00  0.00    +0.179 C 
ATOM     32  O   UNL     1      -2.650  -0.009   8.802  0.00  0.00    -0.291 OA
BRANCH  31  37
ATOM     33  C   UNL     1      -2.345  -2.169   2.742  0.00  0.00    +0.044 C 
ATOM     34  C   UNL     1      -2.501  -1.454   4.059  0.00  0.00    -0.050 A 
ATOM     35  C   UNL     1      -2.169  -2.102   5.237  0.00  0.00    +0.004 A 
ATOM     36  C   UNL     1      -2.309  -1.455   6.447  0.00  0.00    +0.011 A 
ATOM     37  C   UNL     1      -2.786  -0.141   6.482  0.00  0.00    +0.019 A 
ATOM     38  C   UNL     1      -3.124   0.504   5.288  0.00  0.00    +0.011 A 
ATOM     39  C   UNL     1      -2.974  -0.154   4.086  0.00  0.00    +0.004 A 
ENDBRANCH  31  37
ENDBRANCH   1  31
TORSDOF 7
