REMARK  Name = ZINC35747256
REMARK  13 active torsions:
REMARK  status: ('A' for Active; 'I' for Inactive)
REMARK    1  A    between atoms: C_1  and  C_2
REMARK    2  A    between atoms: C_2  and  C_3
REMARK    3  A    between atoms: C_3  and  N_4
REMARK    4  A    between atoms: N_4  and  C_5
REMARK    5  A    between atoms: N_4  and  C_24
REMARK    6  A    between atoms: C_5  and  C_6
REMARK    7  A    between atoms: C_12  and  C_17
REMARK    8  A    between atoms: C_22  and  C_23
REMARK    9  A    between atoms: C_24  and  C_25
REMARK   10  A    between atoms: C_25  and  C_27
REMARK   11  A    between atoms: C_25  and  O_31
REMARK   12  A    between atoms: C_27  and  C_28
REMARK   13  A    between atoms: C_28  and  C_29
REMARK                            x       y       z     vdW  Elec       q    Type
REMARK                         _______ _______ _______ _____ _____    ______ ____
ROOT
ATOM      1  C   UNL     1      -0.394  -4.047  -1.083  0.00  0.00    +0.094 A 
ATOM      2  N   UNL     1      -1.527  -4.795  -1.085  0.00  0.00    -0.312 N 
ATOM      3  H   UNL     1      -2.378  -4.370  -1.275  0.00  0.00    +0.170 HD
ATOM      4  C   UNL     1      -1.494  -6.116  -0.828  0.00  0.00    +0.260 A 
ATOM      5  O   UNL     1      -2.520  -6.774  -0.834  0.00  0.00    -0.267 OA
ATOM      6  C   UNL     1      -0.234  -6.736  -0.548  0.00  0.00    +0.080 A 
ATOM      7  C   UNL     1       0.060  -8.132  -0.244  0.00  0.00    +0.004 A 
ATOM      8  C   UNL     1       1.345  -8.491  -0.011  0.00  0.00    +0.056 A 
ATOM      9  S   UNL     1       2.240  -6.960  -0.188  0.00  0.00    -0.076 S 
ATOM     10  C   UNL     1       0.882  -5.884  -0.568  0.00  0.00    +0.116 A 
ATOM     11  N   UNL     1       0.770  -4.585  -0.836  0.00  0.00    -0.229 NA
ENDROOT
BRANCH   7  12
ATOM     12  C   UNL     1      -1.027  -9.138  -0.190  0.00  0.00    -0.014 A 
ATOM     13  C   UNL     1      -1.339  -9.768   1.014  0.00  0.00    +0.009 A 
ATOM     14  C   UNL     1      -2.353 -10.703   1.058  0.00  0.00    +0.001 A 
ATOM     15  C   UNL     1      -3.058 -11.017  -0.090  0.00  0.00    +0.000 A 
ATOM     16  C   UNL     1      -2.753 -10.396  -1.287  0.00  0.00    +0.004 A 
ATOM     17  C   UNL     1      -1.745  -9.455  -1.342  0.00  0.00    -0.043 A 
ATOM     18  C   UNL     1      -1.418  -8.774  -2.647  0.00  0.00    +0.044 C 
ENDBRANCH   7  12
BRANCH   1  19
ATOM     19  C   UNL     1      -0.481  -2.572  -1.377  0.00  0.00    -0.003 C 
BRANCH  19  20
ATOM     20  N   UNL     1       0.874  -2.012  -1.475  0.00  0.00    +0.386 N 
ATOM     21  H   UNL     1       1.399  -2.254  -0.648  0.00  0.00    -0.081 HD
BRANCH  20  22
ATOM     22  C   UNL     1       0.792  -0.550  -1.593  0.00  0.00    -0.078 C 
BRANCH  22  24
ATOM     23  C   UNL     1       0.262   1.562  -0.368  0.00  0.00    +0.002 C 
ATOM     24  C   UNL     1       0.211   0.034  -0.303  0.00  0.00    -0.022 C 
ENDBRANCH  22  24
ENDBRANCH  20  22
BRANCH  20  25
ATOM     25  C   UNL     1       1.546  -2.562  -2.660  0.00  0.00    -0.047 C 
BRANCH  25  26
ATOM     26  C   UNL     1       2.997  -2.077  -2.695  0.00  0.00    +0.098 C 
BRANCH  26  27
ATOM     27  O   UNL     1       3.705  -2.613  -1.575  0.00  0.00    -0.394 OA
ATOM     28  H   UNL     1       3.728  -3.579  -1.550  0.00  0.00    +0.210 HD
ENDBRANCH  26  27
BRANCH  26  29
ATOM     29  C   UNL     1       3.660  -2.546  -3.990  0.00  0.00    +0.033 C 
BRANCH  29  30
ATOM     30  C   UNL     1       5.070  -1.958  -4.084  0.00  0.00    +0.029 C 
BRANCH  30  31
ATOM     31  C   UNL     1       5.724  -2.420  -5.360  0.00  0.00    -0.034 C 
ATOM     32  C   UNL     1       6.204  -1.542  -6.205  0.00  0.00    +0.004 C 
ENDBRANCH  30  31
ENDBRANCH  29  30
ENDBRANCH  26  29
ENDBRANCH  25  26
ENDBRANCH  20  25
ENDBRANCH  19  20
ENDBRANCH   1  19
TORSDOF 11
