REMARK  Name = ZINC36313391
REMARK  14 active torsions:
REMARK  status: ('A' for Active; 'I' for Inactive)
REMARK    1  A    between atoms: C_1  and  C_2
REMARK    2  A    between atoms: C_2  and  C_3
REMARK    3  A    between atoms: C_3  and  N_4
REMARK    4  A    between atoms: N_4  and  C_5
REMARK    5  A    between atoms: N_4  and  C_24
REMARK    6  A    between atoms: C_5  and  C_6
REMARK    7  A    between atoms: C_7  and  C_17
REMARK    8  A    between atoms: C_10  and  N_11
REMARK    9  A    between atoms: C_24  and  C_25
REMARK   10  A    between atoms: C_25  and  C_27
REMARK   11  A    between atoms: C_25  and  O_36
REMARK   12  A    between atoms: C_27  and  O_28
REMARK   13  A    between atoms: O_28  and  C_29
REMARK   14  A    between atoms: C_34  and  C_35
REMARK                            x       y       z     vdW  Elec       q    Type
REMARK                         _______ _______ _______ _____ _____    ______ ____
ROOT
ATOM      1  C   UNL     1       1.285  -2.418   4.603  0.00  0.00    -0.035 C 
ENDROOT
BRANCH   1   2
ATOM      2  C   UNL     1      -0.190  -2.120   4.682  0.00  0.00    +0.025 A 
ATOM      3  C   UNL     1      -0.768  -0.867   4.975  0.00  0.00    +0.119 A 
ATOM      4  N   UNL     1      -2.074  -1.009   4.952  0.00  0.00    -0.076 NA
ATOM      5  O   UNL     1      -2.361  -2.361   4.643  0.00  0.00    -0.339 OA
ATOM      6  C   UNL     1      -1.195  -3.008   4.479  0.00  0.00    +0.222 A 
BRANCH   3   7
ATOM      7  C   UNL     1      -0.032   0.390   5.259  0.00  0.00    +0.039 A 
ATOM      8  C   UNL     1       1.130   0.694   4.554  0.00  0.00    +0.013 A 
ATOM      9  C   UNL     1       1.811   1.864   4.822  0.00  0.00    +0.001 A 
ATOM     10  C   UNL     1       1.342   2.735   5.789  0.00  0.00    +0.003 A 
ATOM     11  C   UNL     1       0.190   2.441   6.493  0.00  0.00    +0.039 A 
ATOM     12  C   UNL     1      -0.504   1.274   6.230  0.00  0.00    +0.133 A 
ATOM     13  F   UNL     1      -1.634   0.988   6.914  0.00  0.00    -0.205 F 
ENDBRANCH   3   7
BRANCH   6  14
ATOM     14  N   UNL     1      -1.046  -4.346   4.163  0.00  0.00    -0.295 N 
ATOM     15  C   UNL     1      -0.967  -5.370   5.218  0.00  0.00    +0.136 C 
ATOM     16  C   UNL     1      -1.972  -6.480   4.889  0.00  0.00    +0.179 C 
ATOM     17  O   UNL     1      -1.754  -6.931   3.550  0.00  0.00    -0.377 OA
ATOM     18  C   UNL     1      -1.966  -5.928   2.554  0.00  0.00    +0.179 C 
ATOM     19  C   UNL     1      -0.967  -4.789   2.762  0.00  0.00    +0.136 C 
ENDBRANCH   6  14
ENDBRANCH   1   2
BRANCH   1  20
ATOM     20  N   UNL     1       1.622  -2.867   3.245  0.00  0.00    +0.384 N 
ATOM     21  H   UNL     1       1.006  -3.621   2.978  0.00  0.00    -0.081 HD
BRANCH  20  22
ATOM     22  C   UNL     1       1.462  -1.749   2.306  0.00  0.00    -0.079 C 
BRANCH  22  24
ATOM     23  C   UNL     1       1.241  -1.135  -0.106  0.00  0.00    +0.002 C 
ATOM     24  C   UNL     1       1.544  -2.273   0.871  0.00  0.00    -0.022 C 
ENDBRANCH  22  24
ENDBRANCH  20  22
BRANCH  20  25
ATOM     25  C   UNL     1       3.013  -3.337   3.216  0.00  0.00    -0.043 C 
BRANCH  25  26
ATOM     26  C   UNL     1       3.146  -4.593   4.080  0.00  0.00    +0.135 C 
BRANCH  26  27
ATOM     27  O   UNL     1       2.376  -5.651   3.504  0.00  0.00    -0.390 OA
ATOM     28  H   UNL     1       2.692  -5.942   2.638  0.00  0.00    +0.210 HD
ENDBRANCH  26  27
BRANCH  26  29
ATOM     29  C   UNL     1       4.616  -5.012   4.148  0.00  0.00    +0.258 C 
BRANCH  29  30
ATOM     30  O   UNL     1       4.755  -6.114   5.047  0.00  0.00    -0.489 OA
BRANCH  30  31
ATOM     31  C   UNL     1       6.008  -6.611   5.224  0.00  0.00    +0.124 A 
ATOM     32  C   UNL     1       7.081  -6.046   4.550  0.00  0.00    +0.046 A 
ATOM     33  C   UNL     1       8.353  -6.553   4.732  0.00  0.00    +0.004 A 
ATOM     34  C   UNL     1       8.557  -7.623   5.584  0.00  0.00    +0.000 A 
ATOM     35  C   UNL     1       7.489  -8.188   6.256  0.00  0.00    +0.007 A 
ATOM     36  C   UNL     1       6.216  -7.681   6.082  0.00  0.00    -0.009 A 
ATOM     37  C   UNL     1       5.053  -8.293   6.820  0.00  0.00    +0.047 C 
ENDBRANCH  30  31
ENDBRANCH  29  30
ENDBRANCH  26  29
ENDBRANCH  25  26
ENDBRANCH  20  25
ENDBRANCH   1  20
TORSDOF 12
