REMARK  Name = ZINC12628900
REMARK  11 active torsions:
REMARK  status: ('A' for Active; 'I' for Inactive)
REMARK    1  A    between atoms: C_1  and  C_2
REMARK    2  A    between atoms: C_2  and  C_3
REMARK    3  A    between atoms: C_6  and  N_9
REMARK    4  A    between atoms: C_10  and  C_12
REMARK    5  A    between atoms: N_14  and  N_15
REMARK    6  A    between atoms: C_16  and  C_17
REMARK    7  A    between atoms: C_16  and  C_18
REMARK    8  A    between atoms: C_18  and  C_19
REMARK    9  A    between atoms: N_21  and  C_22
REMARK   10  A    between atoms: C_27  and  O_28
REMARK   11  A    between atoms: O_28  and  C_29
REMARK                            x       y       z     vdW  Elec       q    Type
REMARK                         _______ _______ _______ _____ _____    ______ ____
ROOT
ATOM      1  C   UNL     1      -0.147   1.204  -0.088  0.00  0.00    +0.148 C 
ENDROOT
BRANCH   1   2
ATOM      2  C   UNL     1      -0.836   1.707  -1.330  0.00  0.00    +0.223 C 
ATOM      3  O   UNL     1      -1.799   2.439  -1.236  0.00  0.00    -0.275 OA
ATOM      4  N   UNL     1      -0.383   1.343  -2.546  0.00  0.00    -0.282 N 
ATOM      5  H   UNL     1       0.425   0.813  -2.624  0.00  0.00    +0.155 HD
BRANCH   4   6
ATOM      6  C   UNL     1      -1.080   1.731  -3.698  0.00  0.00    +0.079 A 
ATOM      7  C   UNL     1      -1.714   2.961  -3.737  0.00  0.00    +0.074 A 
ATOM      8  C   UNL     1      -2.402   3.354  -4.877  0.00  0.00    +0.138 A 
ATOM      9  C   UNL     1      -2.455   2.489  -5.979  0.00  0.00    +0.031 A 
ATOM     10  C   UNL     1      -1.821   1.251  -5.935  0.00  0.00    +0.059 A 
ATOM     11  C   UNL     1      -1.135   0.872  -4.797  0.00  0.00    +0.142 A 
ATOM     12  C   UNL     1      -3.253   3.193  -7.002  0.00  0.00    +0.028 A 
ATOM     13  C   UNL     1      -3.662   2.878  -8.293  0.00  0.00    +0.012 A 
ATOM     14  C   UNL     1      -4.422   3.779  -9.009  0.00  0.00    +0.001 A 
ATOM     15  C   UNL     1      -4.778   4.992  -8.443  0.00  0.00    +0.004 A 
ATOM     16  C   UNL     1      -4.378   5.315  -7.163  0.00  0.00    +0.047 A 
ATOM     17  C   UNL     1      -3.611   4.420  -6.426  0.00  0.00    +0.136 A 
ATOM     18  O   UNL     1      -3.093   4.477  -5.180  0.00  0.00    -0.455 OA
BRANCH  11  19
ATOM     19  O   UNL     1      -0.513  -0.337  -4.748  0.00  0.00    -0.493 OA
ATOM     20  C   UNL     1      -0.611  -1.164  -5.909  0.00  0.00    +0.277 C 
ENDBRANCH  11  19
ENDBRANCH   4   6
ENDBRANCH   1   2
BRANCH   1  22
ATOM     21  N   UNL     1      -1.444   0.960   1.936  0.00  0.00    -0.189 NA
ATOM     22  C   UNL     1      -0.844   1.753   1.130  0.00  0.00    +0.043 C 
ATOM     23  C   UNL     1      -0.835   3.236   1.399  0.00  0.00    +0.063 C 
BRANCH  21  26
ATOM     24  C   UNL     1      -2.723   0.635   3.917  0.00  0.00    +0.318 C 
ATOM     25  O   UNL     1      -2.731  -0.560   3.701  0.00  0.00    -0.263 OA
ATOM     26  N   UNL     1      -2.092   1.470   3.069  0.00  0.00    -0.199 N 
ATOM     27  H   UNL     1      -2.086   2.425   3.242  0.00  0.00    +0.178 HD
BRANCH  24  29
ATOM     28  N   UNL     1      -4.045   0.343   5.972  0.00  0.00    -0.278 N 
ATOM     29  C   UNL     1      -3.413   1.178   5.123  0.00  0.00    +0.305 C 
ATOM     30  O   UNL     1      -3.406   2.373   5.340  0.00  0.00    -0.265 OA
ATOM     31  H   UNL     1      -3.980  -0.616   5.846  0.00  0.00    +0.155 HD
BRANCH  28  35
ATOM     32  C   UNL     1      -6.274   1.883   9.134  0.00  0.00    -0.048 A 
ATOM     33  C   UNL     1      -6.082   2.640   7.993  0.00  0.00    +0.005 A 
ATOM     34  C   UNL     1      -5.343   2.132   6.943  0.00  0.00    +0.023 A 
ATOM     35  C   UNL     1      -4.793   0.860   7.033  0.00  0.00    +0.034 A 
ATOM     36  C   UNL     1      -4.993   0.100   8.179  0.00  0.00    +0.023 A 
ATOM     37  C   UNL     1      -5.728   0.616   9.228  0.00  0.00    +0.005 A 
BRANCH  32  39
ATOM     38  C   UNL     1      -8.554   2.069  10.093  0.00  0.00    +0.009 C 
ATOM     39  C   UNL     1      -7.081   2.440  10.279  0.00  0.00    +0.032 C 
ENDBRANCH  32  39
ENDBRANCH  28  35
ENDBRANCH  24  29
ENDBRANCH  21  26
ENDBRANCH   1  22
TORSDOF 8
