REMARK  Name = ZINC22992650
REMARK  10 active torsions:
REMARK  status: ('A' for Active; 'I' for Inactive)
REMARK    1  A    between atoms: C_1  and  C_2
REMARK    2  A    between atoms: C_3  and  C_24
REMARK    3  A    between atoms: N_7  and  C_8
REMARK    4  A    between atoms: C_8  and  C_10
REMARK    5  A    between atoms: C_13  and  C_15
REMARK    6  A    between atoms: C_18  and  C_21
REMARK    7  A    between atoms: C_21  and  C_22
REMARK    8  A    between atoms: C_21  and  C_23
REMARK    9  A    between atoms: N_29  and  C_30
REMARK   10  A    between atoms: C_30  and  C_31
REMARK                            x       y       z     vdW  Elec       q    Type
REMARK                         _______ _______ _______ _____ _____    ______ ____
ROOT
ATOM      1  C   UNL     1      -0.018   1.503   0.010  0.00  0.00    +0.064 C 
ATOM      2  C   UNL     1       0.002  -0.004   0.002  0.00  0.00    +0.032 A 
ATOM      3  C   UNL     1      -1.143  -0.728   0.004  0.00  0.00    +0.078 A 
ATOM      4  S   UNL     1      -0.520  -2.399  -0.009  0.00  0.00    -0.049 S 
ATOM      5  C   UNL     1       1.126  -2.059  -0.016  0.00  0.00    +0.164 A 
ATOM      6  N   UNL     1       1.167  -0.697  -0.013  0.00  0.00    -0.339 N 
ATOM      7  N   UNL     1       2.145  -2.914  -0.026  0.00  0.00    -0.151 NA
ATOM      8  H   UNL     1       2.017  -0.231  -0.019  0.00  0.00    +0.167 HD
ENDROOT
BRANCH   3   9
ATOM      9  C   UNL     1      -2.539  -0.258   0.015  0.00  0.00    +0.174 A 
ATOM     10  N   UNL     1      -2.942   0.993   0.019  0.00  0.00    -0.128 NA
ATOM     11  N   UNL     1      -4.226   1.040   0.028  0.00  0.00    -0.121 NA
ATOM     12  C   UNL     1      -4.724  -0.175   0.030  0.00  0.00    +0.203 A 
ATOM     13  S   UNL     1      -6.432  -0.606   0.042  0.00  0.00    -0.009 SA
ATOM     14  N   UNL     1      -3.669  -1.045   0.016  0.00  0.00    -0.297 N 
BRANCH  14  15
ATOM     15  C   UNL     1      -3.728  -2.509   0.006  0.00  0.00    +0.152 C 
BRANCH  15  16
ATOM     16  C   UNL     1      -3.740  -3.020   1.424  0.00  0.00    -0.013 C 
ATOM     17  C   UNL     1      -4.700  -3.817   1.825  0.00  0.00    +0.005 C 
ENDBRANCH  15  16
ENDBRANCH  14  15
ENDBRANCH   3   9
BRANCH   7  18
ATOM     18  C   UNL     1       3.401  -2.458  -0.029  0.00  0.00    +0.288 C 
ATOM     19  O   UNL     1       3.613  -1.256  -0.023  0.00  0.00    -0.266 OA
BRANCH  18  20
ATOM     20  C   UNL     1       4.532  -3.408  -0.041  0.00  0.00    +0.135 A 
ATOM     21  C   UNL     1       5.822  -2.949  -0.039  0.00  0.00    +0.080 A 
ATOM     22  S   UNL     1       6.715  -4.376  -0.055  0.00  0.00    -0.075 S 
ATOM     23  C   UNL     1       5.352  -5.528  -0.063  0.00  0.00    +0.109 A 
ATOM     24  N   UNL     1       4.311  -4.713  -0.047  0.00  0.00    -0.234 NA
BRANCH  23  25
ATOM     25  C   UNL     1       5.380  -7.007  -0.077  0.00  0.00    +0.007 A 
ATOM     26  C   UNL     1       4.186  -7.730  -0.088  0.00  0.00    +0.011 A 
ATOM     27  C   UNL     1       4.219  -9.109  -0.101  0.00  0.00    +0.004 A 
ATOM     28  C   UNL     1       5.432  -9.775  -0.104  0.00  0.00    -0.045 A 
ATOM     29  C   UNL     1       6.619  -9.064  -0.093  0.00  0.00    +0.004 A 
ATOM     30  C   UNL     1       6.599  -7.684  -0.086  0.00  0.00    +0.011 A 
BRANCH  28  31
ATOM     31  C   UNL     1       5.460 -11.282  -0.118  0.00  0.00    +0.013 C 
ATOM     32  C   UNL     1       6.195 -11.766  -1.370  0.00  0.00    +0.012 C 
ATOM     33  C   UNL     1       6.187 -11.790   1.129  0.00  0.00    +0.012 C 
ENDBRANCH  28  31
ENDBRANCH  23  25
ENDBRANCH  18  20
ENDBRANCH   7  18
TORSDOF 7
