REMARK  Name = ZINC01887720
REMARK  9 active torsions:
REMARK  status: ('A' for Active; 'I' for Inactive)
REMARK    1  A    between atoms: C_1  and  C_2
REMARK    2  A    between atoms: C_5  and  C_8
REMARK    3  A    between atoms: C_8  and  C_9
REMARK    4  A    between atoms: N_13  and  C_29
REMARK    5  A    between atoms: C_15  and  C_16
REMARK    6  A    between atoms: C_15  and  C_18
REMARK    7  A    between atoms: N_20  and  C_21
REMARK    8  A    between atoms: C_21  and  C_22
REMARK    9  A    between atoms: C_32  and  C_35
REMARK                            x       y       z     vdW  Elec       q    Type
REMARK                         _______ _______ _______ _____ _____    ______ ____
ROOT
ATOM      1  C   UNL     1      -0.743   0.908  -0.935  0.00  0.00    +0.143 C 
ATOM      2  C   UNL     1      -0.048   0.599  -2.252  0.00  0.00    +0.238 C 
ATOM      3  O   UNL     1       1.153   0.457  -2.329  0.00  0.00    -0.274 OA
ATOM      4  N   UNL     1      -0.838   0.494  -3.307  0.00  0.00    -0.232 N 
ATOM      5  C   UNL     1      -2.200   0.653  -3.228  0.00  0.00    +0.098 C 
ATOM      6  C   UNL     1      -3.139   0.569  -4.258  0.00  0.00    +0.141 C 
ATOM      7  S   UNL     1      -2.489   0.993  -1.498  0.00  0.00    -0.095 S 
ENDROOT
BRANCH   4   8
ATOM      8  C   UNL     1      -0.264   0.210  -4.553  0.00  0.00    +0.042 A 
ATOM      9  C   UNL     1       0.114   1.246  -5.398  0.00  0.00    +0.024 A 
ATOM     10  C   UNL     1       0.684   0.963  -6.623  0.00  0.00    +0.005 A 
ATOM     11  C   UNL     1       0.870  -0.350  -7.014  0.00  0.00    -0.050 A 
ATOM     12  C   UNL     1       0.490  -1.384  -6.178  0.00  0.00    +0.005 A 
ATOM     13  C   UNL     1      -0.076  -1.107  -4.949  0.00  0.00    +0.024 A 
ATOM     14  C   UNL     1       1.488  -0.655  -8.354  0.00  0.00    +0.044 C 
ENDBRANCH   4   8
BRANCH   6  15
ATOM     15  C   UNL     1      -4.543   0.882  -3.995  0.00  0.00    +0.257 C 
ATOM     16  O   UNL     1      -4.893   1.217  -2.878  0.00  0.00    -0.269 OA
ATOM     17  N   UNL     1      -5.449   0.801  -4.989  0.00  0.00    -0.307 N 
ATOM     18  H   UNL     1      -5.170   0.534  -5.879  0.00  0.00    +0.149 HD
BRANCH  17  19
ATOM     19  C   UNL     1      -6.855   1.115  -4.726  0.00  0.00    +0.139 C 
BRANCH  19  20
ATOM     20  C   UNL     1      -7.653   0.948  -5.994  0.00  0.00    -0.030 A 
ATOM     21  C   UNL     1      -7.820   2.018  -6.852  0.00  0.00    +0.005 A 
ATOM     22  C   UNL     1      -8.548   1.864  -8.017  0.00  0.00    +0.000 A 
ATOM     23  C   UNL     1      -9.117   0.641  -8.318  0.00  0.00    +0.000 A 
ATOM     24  C   UNL     1      -8.955  -0.429  -7.458  0.00  0.00    +0.000 A 
ATOM     25  C   UNL     1      -8.223  -0.275  -6.295  0.00  0.00    +0.005 A 
ENDBRANCH  19  20
ENDBRANCH  17  19
ENDBRANCH   6  15
BRANCH   6  26
ATOM     26  C   UNL     1      -2.727   0.175  -5.571  0.00  0.00    +0.107 C 
ATOM     27  N   UNL     1      -2.400  -0.137  -6.614  0.00  0.00    -0.191 NA
ENDBRANCH   6  26
BRANCH   1  28
ATOM     28  C   UNL     1      -0.541  -0.222   0.077  0.00  0.00    +0.059 C 
BRANCH  28  33
ATOM     29  C   UNL     1      -3.444   0.994   4.923  0.00  0.00    +0.044 C 
ATOM     30  C   UNL     1      -2.687   0.676   3.660  0.00  0.00    -0.050 A 
ATOM     31  C   UNL     1      -3.302  -0.031   2.644  0.00  0.00    +0.003 A 
ATOM     32  C   UNL     1      -2.608  -0.322   1.485  0.00  0.00    +0.004 A 
ATOM     33  C   UNL     1      -1.298   0.095   1.341  0.00  0.00    -0.046 A 
ATOM     34  C   UNL     1      -0.680   0.798   2.358  0.00  0.00    +0.004 A 
ATOM     35  C   UNL     1      -1.376   1.092   3.516  0.00  0.00    +0.003 A 
ENDBRANCH  28  33
ENDBRANCH   1  28
TORSDOF 7
