REMARK  Name = ZINC54624328
REMARK  14 active torsions:
REMARK  status: ('A' for Active; 'I' for Inactive)
REMARK    1  A    between atoms: C_1  and  C_2
REMARK    2  A    between atoms: C_2  and  O_3
REMARK    3  A    between atoms: O_3  and  C_4
REMARK    4  A    between atoms: C_6  and  C_14
REMARK    5  A    between atoms: C_9  and  O_10
REMARK    6  A    between atoms: O_10  and  C_11
REMARK    7  A    between atoms: C_11  and  C_12
REMARK    8  A    between atoms: C_11  and  C_13
REMARK    9  A    between atoms: C_16  and  C_34
REMARK   10  A    between atoms: C_17  and  C_33
REMARK   11  A    between atoms: C_22  and  S_24
REMARK   12  A    between atoms: S_24  and  C_25
REMARK   13  A    between atoms: C_25  and  C_26
REMARK   14  A    between atoms: C_34  and  C_36
REMARK                            x       y       z     vdW  Elec       q    Type
REMARK                         _______ _______ _______ _____ _____    ______ ____
ROOT
ATOM      1  C   UNL     1       1.095  -5.114   0.689  0.00  0.00    +0.176 C 
ATOM      2  C   UNL     1       1.183  -6.169  -0.382  0.00  0.00    +0.040 C 
ATOM      3  C   UNL     1       1.177  -7.489  -0.113  0.00  0.00    +0.016 C 
ATOM      4  N   UNL     1       1.102  -7.972   1.166  0.00  0.00    -0.287 N 
ATOM      5  C   UNL     1       1.298  -7.070   2.204  0.00  0.00    +0.219 A 
ATOM      6  N   UNL     1       1.302  -5.730   1.996  0.00  0.00    -0.220 N 
ATOM      7  N   UNL     1       1.531  -5.135   3.236  0.00  0.00    -0.141 NA
ATOM      8  C   UNL     1       1.645  -6.112   4.110  0.00  0.00    +0.211 A 
ATOM      9  N   UNL     1       1.502  -7.285   3.475  0.00  0.00    -0.187 NA
ATOM     10  C   UNL     1       1.255  -8.466  -1.257  0.00  0.00    +0.061 C 
ATOM     11  H   UNL     1       0.919  -8.908   1.341  0.00  0.00    +0.155 HD
ENDROOT
BRANCH   1  14
ATOM     12  C   UNL     1      -1.626  -2.512   0.379  0.00  0.00    +0.162 A 
ATOM     13  C   UNL     1      -0.376  -3.108   0.417  0.00  0.00    +0.055 A 
ATOM     14  C   UNL     1      -0.265  -4.467   0.647  0.00  0.00    -0.015 A 
ATOM     15  C   UNL     1      -1.399  -5.234   0.839  0.00  0.00    +0.010 A 
ATOM     16  C   UNL     1      -2.650  -4.645   0.801  0.00  0.00    +0.050 A 
ATOM     17  C   UNL     1      -2.768  -3.283   0.578  0.00  0.00    +0.162 A 
BRANCH  12  18
ATOM     18  O   UNL     1      -1.737  -1.175   0.153  0.00  0.00    -0.489 OA
BRANCH  18  20
ATOM     19  C   UNL     1      -0.847   1.029  -0.280  0.00  0.00    +0.048 C 
ATOM     20  C   UNL     1      -0.523  -0.448  -0.042  0.00  0.00    +0.226 C 
ENDBRANCH  18  20
ENDBRANCH  12  18
BRANCH  17  21
ATOM     21  O   UNL     1      -3.997  -2.701   0.546  0.00  0.00    -0.486 OA
BRANCH  21  22
ATOM     22  C   UNL     1      -5.128  -3.570   0.631  0.00  0.00    +0.167 C 
ATOM     23  C   UNL     1      -5.441  -3.859   2.100  0.00  0.00    +0.051 C 
ATOM     24  C   UNL     1      -6.336  -2.900  -0.026  0.00  0.00    +0.051 C 
ENDBRANCH  21  22
ENDBRANCH  17  21
ENDBRANCH   1  14
BRANCH   2  25
ATOM     25  C   UNL     1       1.274  -5.759  -1.720  0.00  0.00    +0.160 C 
ATOM     26  O   UNL     1       0.358  -5.983  -2.488  0.00  0.00    -0.293 OA
ATOM     27  C   UNL     1       2.506  -5.041  -2.206  0.00  0.00    +0.091 C 
ENDBRANCH   2  25
BRANCH   8  28
ATOM     28  S   UNL     1       1.941  -5.911   5.835  0.00  0.00    -0.080 S 
BRANCH  28  29
ATOM     29  C   UNL     1       1.992  -7.609   6.472  0.00  0.00    +0.114 C 
BRANCH  29  30
ATOM     30  C   UNL     1       2.242  -7.582   7.958  0.00  0.00    -0.019 A 
ATOM     31  C   UNL     1       3.537  -7.602   8.441  0.00  0.00    +0.006 A 
ATOM     32  C   UNL     1       3.766  -7.577   9.804  0.00  0.00    +0.000 A 
ATOM     33  C   UNL     1       2.701  -7.531  10.684  0.00  0.00    +0.001 A 
ATOM     34  C   UNL     1       1.406  -7.511  10.202  0.00  0.00    +0.020 A 
ATOM     35  C   UNL     1       1.176  -7.530   8.838  0.00  0.00    +0.045 A 
ATOM     36 CL   UNL     1      -0.450  -7.498   8.231  0.00  0.00    -0.083 Cl
ENDBRANCH  29  30
ENDBRANCH  28  29
ENDBRANCH   8  28
TORSDOF 9
