REMARK  Name = ZINC36346272
REMARK  16 active torsions:
REMARK  status: ('A' for Active; 'I' for Inactive)
REMARK    1  A    between atoms: C_1  and  C_2
REMARK    2  A    between atoms: C_3  and  C_21
REMARK    3  A    between atoms: C_4  and  O_13
REMARK    4  A    between atoms: N_5  and  C_7
REMARK    5  A    between atoms: O_13  and  C_14
REMARK    6  A    between atoms: C_21  and  N_22
REMARK    7  A    between atoms: N_22  and  C_23
REMARK    8  A    between atoms: N_22  and  C_29
REMARK    9  A    between atoms: C_23  and  C_24
REMARK   10  A    between atoms: C_29  and  C_30
REMARK   11  A    between atoms: C_30  and  C_32
REMARK   12  A    between atoms: C_30  and  O_37
REMARK   13  A    between atoms: C_32  and  O_33
REMARK   14  A    between atoms: O_33  and  C_34
REMARK   15  A    between atoms: C_34  and  C_35
REMARK   16  A    between atoms: C_34  and  C_36
REMARK                            x       y       z     vdW  Elec       q    Type
REMARK                         _______ _______ _______ _____ _____    ______ ____
ROOT
ATOM      1  C   UNL     1       0.836   1.339   0.007  0.00  0.00    +0.068 C 
ATOM      2  C   UNL     1       0.502  -0.131   0.020  0.00  0.00    +0.065 A 
ATOM      3  C   UNL     1       0.060  -0.878  -1.075  0.00  0.00    +0.021 A 
ATOM      4  C   UNL     1      -0.131  -2.158  -0.658  0.00  0.00    +0.225 A 
ATOM      5  N   UNL     1       0.184  -2.208   0.664  0.00  0.00    -0.200 N 
ATOM      6  N   UNL     1       0.582  -0.924   1.058  0.00  0.00    -0.168 NA
ENDROOT
BRANCH   5   7
ATOM      7  C   UNL     1       0.126  -3.343   1.484  0.00  0.00    +0.069 A 
ATOM      8  C   UNL     1      -0.959  -4.205   1.404  0.00  0.00    +0.028 A 
ATOM      9  C   UNL     1      -1.013  -5.323   2.213  0.00  0.00    +0.002 A 
ATOM     10  C   UNL     1       0.012  -5.584   3.104  0.00  0.00    +0.000 A 
ATOM     11  C   UNL     1       1.094  -4.727   3.187  0.00  0.00    +0.002 A 
ATOM     12  C   UNL     1       1.157  -3.611   2.375  0.00  0.00    +0.028 A 
ENDBRANCH   5   7
BRANCH   4  13
ATOM     13  O   UNL     1      -0.558  -3.196  -1.422  0.00  0.00    -0.438 OA
BRANCH  13  14
ATOM     14  C   UNL     1      -1.898  -3.381  -1.555  0.00  0.00    +0.133 A 
ATOM     15  C   UNL     1      -2.784  -2.461  -1.011  0.00  0.00    +0.046 A 
ATOM     16  C   UNL     1      -4.145  -2.650  -1.147  0.00  0.00    +0.006 A 
ATOM     17  C   UNL     1      -4.627  -3.755  -1.824  0.00  0.00    +0.038 A 
ATOM     18  C   UNL     1      -3.746  -4.675  -2.368  0.00  0.00    +0.127 A 
ATOM     19  C   UNL     1      -2.381  -4.486  -2.239  0.00  0.00    +0.084 A 
ATOM     20  F   UNL     1      -4.220  -5.754  -3.028  0.00  0.00    -0.205 F 
ENDBRANCH  13  14
ENDBRANCH   4  13
BRANCH   3  21
ATOM     21  C   UNL     1      -0.166  -0.357  -2.471  0.00  0.00    -0.035 C 
BRANCH  21  22
ATOM     22  N   UNL     1       1.110  -0.341  -3.200  0.00  0.00    +0.389 N 
ATOM     23  H   UNL     1       1.793   0.180  -2.671  0.00  0.00    -0.081 HD
BRANCH  22  24
ATOM     24  C   UNL     1       0.917   0.295  -4.510  0.00  0.00    -0.003 C 
BRANCH  24  25
ATOM     25  C   UNL     1       0.562   1.747  -4.317  0.00  0.00    +0.089 A 
ATOM     26  C   UNL     1       1.430   2.774  -4.302  0.00  0.00    +0.042 A 
ATOM     27  C   UNL     1       0.671   3.949  -4.094  0.00  0.00    +0.041 A 
ATOM     28  C   UNL     1      -0.615   3.569  -3.994  0.00  0.00    +0.195 A 
ATOM     29  O   UNL     1      -0.676   2.235  -4.136  0.00  0.00    -0.470 OA
ENDBRANCH  24  25
ENDBRANCH  22  24
BRANCH  22  30
ATOM     30  C   UNL     1       1.584  -1.718  -3.389  0.00  0.00    -0.044 C 
BRANCH  30  31
ATOM     31  C   UNL     1       2.970  -1.696  -4.036  0.00  0.00    +0.124 C 
BRANCH  31  32
ATOM     32  O   UNL     1       3.905  -1.095  -3.139  0.00  0.00    -0.391 OA
ATOM     33  H   UNL     1       3.992  -1.557  -2.294  0.00  0.00    +0.210 HD
ENDBRANCH  31  32
BRANCH  31  34
ATOM     34  C   UNL     1       3.410  -3.128  -4.347  0.00  0.00    +0.189 C 
BRANCH  34  35
ATOM     35  O   UNL     1       4.651  -3.102  -5.056  0.00  0.00    -0.375 OA
BRANCH  35  36
ATOM     36  C   UNL     1       5.153  -4.396  -5.396  0.00  0.00    +0.112 C 
ATOM     37  C   UNL     1       5.966  -4.303  -6.689  0.00  0.00    +0.037 C 
ATOM     38  C   UNL     1       6.048  -4.909  -4.267  0.00  0.00    +0.037 C 
ENDBRANCH  35  36
ENDBRANCH  34  35
ENDBRANCH  31  34
ENDBRANCH  30  31
ENDBRANCH  22  30
ENDBRANCH  21  22
ENDBRANCH   3  21
TORSDOF 13
