REMARK  Name = ZINC38478738
REMARK  6 active torsions:
REMARK  status: ('A' for Active; 'I' for Inactive)
REMARK    1  A    between atoms: C_1  and  C_2
REMARK    2  A    between atoms: C_4  and  C_10
REMARK    3  A    between atoms: C_5  and  C_9
REMARK    4  A    between atoms: N_7  and  C_8
REMARK    5  A    between atoms: C_10  and  N_11
REMARK    6  A    between atoms: N_11  and  C_12
REMARK                            x       y       z     vdW  Elec       q    Type
REMARK                         _______ _______ _______ _____ _____    ______ ____
ROOT
ATOM      1  C   UNL     1      -2.382  -0.635  -1.078  0.00  0.00    +0.135 C 
ENDROOT
BRANCH   1   4
ATOM      2  C   UNL     1      -0.019   1.526   0.010  0.00  0.00    +0.030 C 
ATOM      3  C   UNL     1       0.002  -0.004   0.002  0.00  0.00    +0.100 C 
ATOM      4  C   UNL     1      -1.407  -0.558   0.069  0.00  0.00    -0.018 C 
ATOM      5  C   UNL     1      -1.631  -0.959   1.295  0.00  0.00    -0.000 C 
ATOM      6  N   UNL     1      -0.522  -0.741   2.117  0.00  0.00    -0.354 NA
ATOM      7  N   UNL     1       0.637  -0.526   1.239  0.00  0.00    -0.242 NA
ATOM      8  C   UNL     1       1.341  -1.789   0.977  0.00  0.00    +0.126 C 
ATOM      9  C   UNL     1      -2.923  -1.579   1.761  0.00  0.00    +0.060 C 
ATOM     10  H   UNL     1      -0.675   0.076   2.689  0.00  0.00    +0.141 HD
ATOM     11  H   UNL     1      -0.364  -1.547   2.702  0.00  0.00    +0.141 HD
ENDBRANCH   1   4
BRANCH   1  12
ATOM     12  N   UNL     1      -3.092   0.640  -1.201  0.00  0.00    -0.340 N 
ATOM     13  H   UNL     1      -2.895   1.366  -0.589  0.00  0.00    +0.146 HD
BRANCH  12  14
ATOM     14  C   UNL     1      -4.043   0.808  -2.189  0.00  0.00    +0.027 C 
ATOM     15  C   UNL     1      -4.713   2.016  -2.312  0.00  0.00    +0.029 C 
ATOM     16  C   UNL     1      -5.521   2.166  -3.437  0.00  0.00    -0.016 C 
ATOM     17  C   UNL     1      -6.554   2.989  -3.722  0.00  0.00    +0.025 C 
ATOM     18  C   UNL     1      -7.249   2.493  -4.842  0.00  0.00    +0.106 C 
ATOM     19  N   UNL     1      -6.651   1.457  -5.374  0.00  0.00    -0.279 NA
ATOM     20  C   UNL     1      -5.405   1.276  -4.658  0.00  0.00    +0.158 C 
ATOM     21  C   UNL     1      -5.020  -0.101  -4.252  0.00  0.00    +0.006 C 
ATOM     22  C   UNL     1      -4.343  -0.288  -3.116  0.00  0.00    +0.021 C 
ENDBRANCH  12  14
ENDBRANCH   1  12
TORSDOF 3
