REMARK  Name = ZINC39666385
REMARK  8 active torsions:
REMARK  status: ('A' for Active; 'I' for Inactive)
REMARK    1  A    between atoms: C_1  and  C_2
REMARK    2  A    between atoms: C_2  and  C_4
REMARK    3  A    between atoms: C_2  and  O_31
REMARK    4  A    between atoms: C_4  and  N_5
REMARK    5  A    between atoms: C_6  and  C_8
REMARK    6  A    between atoms: C_19  and  C_21
REMARK    7  A    between atoms: C_24  and  C_27
REMARK    8  A    between atoms: O_31  and  C_32
REMARK                            x       y       z     vdW  Elec       q    Type
REMARK                         _______ _______ _______ _____ _____    ______ ____
ROOT
ATOM      1  C   UNL     1       0.913  -3.873  -2.330  0.00  0.00    +0.100 C 
ATOM      2  C   UNL     1       1.529  -4.496  -1.058  0.00  0.00    +0.121 C 
ATOM      3  N   UNL     1       2.191  -5.735  -1.531  0.00  0.00    -0.296 N 
ATOM      4  C   UNL     1       2.795  -5.357  -2.830  0.00  0.00    +0.115 C 
ATOM      5  C   UNL     1       1.748  -4.439  -3.491  0.00  0.00    -0.004 C 
ATOM      6  C   UNL     1       2.439  -3.308  -4.246  0.00  0.00    -0.010 C 
ATOM      7  C   UNL     1       3.215  -3.891  -5.431  0.00  0.00    -0.082 C 
ATOM      8  N   UNL     1       2.291  -4.606  -6.319  0.00  0.00    +0.379 N 
ATOM      9  C   UNL     1       1.701  -5.749  -5.613  0.00  0.00    -0.082 C 
ATOM     10  C   UNL     1       0.860  -5.245  -4.436  0.00  0.00    -0.010 C 
ATOM     11  C   UNL     1       2.233  -6.934  -0.918  0.00  0.00    +0.247 C 
ATOM     12  O   UNL     1       1.593  -7.120   0.099  0.00  0.00    -0.270 OA
ATOM     13  H   UNL     1       1.558  -3.979  -6.615  0.00  0.00    -0.086 HD
ATOM     14  H   UNL     1       2.794  -4.936  -7.130  0.00  0.00    -0.086 HD
ENDROOT
BRANCH  11  15
ATOM     15  C   UNL     1       3.058  -8.024  -1.482  0.00  0.00    +0.037 A 
ATOM     16  C   UNL     1       4.156  -7.726  -2.290  0.00  0.00    +0.013 A 
ATOM     17  C   UNL     1       4.922  -8.747  -2.813  0.00  0.00    +0.013 A 
ATOM     18  C   UNL     1       4.603 -10.065  -2.538  0.00  0.00    +0.055 A 
ATOM     19  C   UNL     1       3.515 -10.368  -1.738  0.00  0.00    +0.013 A 
ATOM     20  C   UNL     1       2.745  -9.356  -1.204  0.00  0.00    +0.013 A 
BRANCH  18  21
ATOM     21  C   UNL     1       5.443 -11.176  -3.113  0.00  0.00    +0.417 C 
ATOM     22  F   UNL     1       6.478 -11.485  -2.225  0.00  0.00    -0.166 F 
ATOM     23  F   UNL     1       4.646 -12.308  -3.313  0.00  0.00    -0.166 F 
ATOM     24  F   UNL     1       5.985 -10.765  -4.336  0.00  0.00    -0.166 F 
ENDBRANCH  18  21
ENDBRANCH  11  15
BRANCH   1  26
ATOM     25  N   UNL     1       0.097  -1.606  -2.893  0.00  0.00    -0.312 N 
ATOM     26  C   UNL     1       1.027  -2.370  -2.287  0.00  0.00    +0.218 C 
ATOM     27  O   UNL     1       1.956  -1.849  -1.706  0.00  0.00    -0.275 OA
ATOM     28  H   UNL     1      -0.646  -2.023  -3.357  0.00  0.00    +0.149 HD
BRANCH  25  29
ATOM     29  C   UNL     1       0.207  -0.146  -2.850  0.00  0.00    +0.148 C 
BRANCH  29  31
ATOM     30  C   UNL     1      -0.785   1.995  -3.671  0.00  0.00    +0.053 C 
ATOM     31  C   UNL     1      -0.966   0.477  -3.608  0.00  0.00    +0.187 C 
BRANCH  31  32
ATOM     32  O   UNL     1      -2.187   0.171  -2.931  0.00  0.00    -0.486 OA
BRANCH  32  33
ATOM     33  C   UNL     1      -3.324   0.174  -3.676  0.00  0.00    +0.139 A 
ATOM     34  C   UNL     1      -3.254   0.368  -5.048  0.00  0.00    +0.047 A 
ATOM     35  C   UNL     1      -4.411   0.372  -5.804  0.00  0.00    +0.004 A 
ATOM     36  C   UNL     1      -5.638   0.182  -5.194  0.00  0.00    +0.002 A 
ATOM     37  C   UNL     1      -5.710  -0.011  -3.827  0.00  0.00    +0.023 A 
ATOM     38  C   UNL     1      -4.555  -0.021  -3.067  0.00  0.00    +0.083 A 
ATOM     39 CL   UNL     1      -4.646  -0.271  -1.351  0.00  0.00    -0.080 Cl
ENDBRANCH  32  33
ENDBRANCH  31  32
ENDBRANCH  29  31
ENDBRANCH  25  29
ENDBRANCH   1  26
TORSDOF 7
