REMARK  Name = ZINC36344157
REMARK  11 active torsions:
REMARK  status: ('A' for Active; 'I' for Inactive)
REMARK    1  A    between atoms: C_1  and  C_2
REMARK    2  A    between atoms: C_2  and  O_3
REMARK    3  A    between atoms: O_3  and  C_4
REMARK    4  A    between atoms: C_7  and  C_10
REMARK    5  A    between atoms: C_13  and  C_27
REMARK    6  A    between atoms: C_16  and  C_18
REMARK    7  A    between atoms: C_18  and  N_19
REMARK    8  A    between atoms: N_19  and  C_20
REMARK    9  A    between atoms: N_19  and  C_21
REMARK   10  A    between atoms: C_29  and  C_34
REMARK   11  A    between atoms: C_32  and  C_33
REMARK                            x       y       z     vdW  Elec       q    Type
REMARK                         _______ _______ _______ _____ _____    ______ ____
ROOT
ATOM      1  C   UNL     1       1.183  -6.916  -1.517  0.00  0.00    +0.137 C 
ATOM      2  C   UNL     1       0.132  -7.234  -2.599  0.00  0.00    +0.087 C 
ATOM      3  C   UNL     1       0.958  -7.595  -3.813  0.00  0.00    +0.069 C 
ATOM      4  N   UNL     1       2.210  -7.510  -3.523  0.00  0.00    -0.181 NA
ATOM      5  N   UNL     1       2.466  -7.123  -2.206  0.00  0.00    -0.187 N 
ATOM      6  C   UNL     1       3.686  -6.964  -1.655  0.00  0.00    +0.219 C 
ATOM      7  O   UNL     1       3.788  -6.622  -0.496  0.00  0.00    -0.276 OA
ENDROOT
BRANCH   3   8
ATOM      8  C   UNL     1       0.413  -7.983  -5.128  0.00  0.00    +0.001 A 
ATOM      9  C   UNL     1      -0.963  -8.153  -5.295  0.00  0.00    +0.013 A 
ATOM     10  C   UNL     1      -1.465  -8.517  -6.527  0.00  0.00    -0.050 A 
ATOM     11  C   UNL     1      -0.609  -8.713  -7.596  0.00  0.00    +0.003 A 
ATOM     12  C   UNL     1       0.755  -8.546  -7.438  0.00  0.00    +0.004 A 
ATOM     13  C   UNL     1       1.271  -8.177  -6.213  0.00  0.00    -0.042 A 
ATOM     14  C   UNL     1       2.757  -7.990  -6.044  0.00  0.00    +0.044 C 
ATOM     15  C   UNL     1      -2.950  -8.701  -6.709  0.00  0.00    +0.044 C 
ENDBRANCH   3   8
BRANCH   1  19
ATOM     16  C   UNL     1       0.815  -2.864  -0.210  0.00  0.00    +0.121 A 
ATOM     17  C   UNL     1       0.311  -3.894   0.571  0.00  0.00    +0.046 A 
ATOM     18  C   UNL     1       0.431  -5.203   0.146  0.00  0.00    +0.009 A 
ATOM     19  C   UNL     1       1.053  -5.487  -1.056  0.00  0.00    -0.024 A 
ATOM     20  C   UNL     1       1.556  -4.462  -1.836  0.00  0.00    +0.009 A 
ATOM     21  C   UNL     1       1.433  -3.151  -1.418  0.00  0.00    +0.046 A 
BRANCH  16  22
ATOM     22  O   UNL     1       0.697  -1.575   0.205  0.00  0.00    -0.492 OA
BRANCH  22  24
ATOM     23  C   UNL     1       0.012   0.146   1.757  0.00  0.00    +0.048 C 
ATOM     24  C   UNL     1       0.050  -1.354   1.460  0.00  0.00    +0.225 C 
ENDBRANCH  22  24
ENDBRANCH  16  22
ENDBRANCH   1  19
BRANCH   6  25
ATOM     25  C   UNL     1       4.923  -7.211  -2.479  0.00  0.00    +0.021 C 
BRANCH  25  26
ATOM     26  N   UNL     1       6.116  -6.972  -1.657  0.00  0.00    +0.385 N 
ATOM     27  C   UNL     1       6.168  -7.960  -0.571  0.00  0.00    -0.095 C 
ATOM     28  H   UNL     1       6.073  -6.043  -1.264  0.00  0.00    -0.081 HD
BRANCH  26  29
ATOM     29  C   UNL     1       7.319  -7.096  -2.490  0.00  0.00    -0.068 C 
ATOM     30  C   UNL     1       8.562  -6.847  -1.633  0.00  0.00    -0.015 C 
ATOM     31  C   UNL     1       9.815  -6.976  -2.502  0.00  0.00    -0.002 C 
ATOM     32  C   UNL     1       9.760  -5.947  -3.632  0.00  0.00    -0.000 C 
ATOM     33  C   UNL     1       8.517  -6.196  -4.489  0.00  0.00    -0.002 C 
ATOM     34  C   UNL     1       7.264  -6.067  -3.621  0.00  0.00    -0.015 C 
ENDBRANCH  26  29
ENDBRANCH  25  26
ENDBRANCH   6  25
TORSDOF 7
