REMARK  Name = ZINC31169915
REMARK  15 active torsions:
REMARK  status: ('A' for Active; 'I' for Inactive)
REMARK    1  A    between atoms: C_1  and  O_2
REMARK    2  A    between atoms: O_2  and  C_3
REMARK    3  A    between atoms: C_5  and  C_10
REMARK    4  A    between atoms: C_8  and  O_9
REMARK    5  A    between atoms: C_12  and  C_38
REMARK    6  A    between atoms: C_16  and  C_23
REMARK    7  A    between atoms: C_18  and  O_21
REMARK    8  A    between atoms: O_21  and  C_22
REMARK    9  A    between atoms: C_24  and  C_25
REMARK   10  A    between atoms: N_27  and  CA_28
REMARK   11  A    between atoms: CA_28  and  CB_30
REMARK   12  A    between atoms: CA_28  and  C_35
REMARK   13  A    between atoms: CB_30  and  CG_31
REMARK   14  A    between atoms: CG_31  and  CD_32
REMARK   15  A    between atoms: C_38  and  O_39
REMARK                            x       y       z     vdW  Elec       q    Type
REMARK                         _______ _______ _______ _____ _____    ______ ____
ROOT
ATOM      1  C   UNK A   0      -0.817   2.061   1.223  0.00  0.00    +0.214 C 
ATOM      2  C   UNK A   0      -0.019   1.526   0.010  0.00  0.00    +0.093 C 
ATOM      3  C   UNK A   0      -0.824   2.064  -1.157  0.00  0.00    +0.008 A 
ATOM      4  C   UNK A   0      -0.529   2.199  -2.493  0.00  0.00    +0.016 A 
ATOM      5  C   UNK A   0      -1.477   2.745  -3.366  0.00  0.00    -0.021 A 
ATOM      6  C   UNK A   0      -2.721   3.150  -2.866  0.00  0.00    +0.057 A 
ATOM      7  C   UNK A   0      -3.007   3.007  -1.525  0.00  0.00    +0.162 A 
ATOM      8  C   UNK A   0      -2.058   2.457  -0.653  0.00  0.00    +0.166 A 
ATOM      9  O   UNK A   0      -2.141   2.223   0.685  0.00  0.00    -0.480 OA
ENDROOT
BRANCH   1  12
ATOM     10  C   UNK A   0       1.172   4.641   3.136  0.00  0.00    +0.162 A 
ATOM     11  C   UNK A   0       0.662   3.425   2.711  0.00  0.00    +0.056 A 
ATOM     12  C   UNK A   0      -0.263   3.385   1.684  0.00  0.00    -0.003 A 
ATOM     13  C   UNK A   0      -0.676   4.555   1.075  0.00  0.00    +0.011 A 
ATOM     14  C   UNK A   0      -0.174   5.772   1.498  0.00  0.00    +0.049 A 
ATOM     15  C   UNK A   0       0.752   5.820   2.527  0.00  0.00    +0.158 A 
BRANCH  10  17
ATOM     16  C   UNK A   0       2.467   3.434   4.724  0.00  0.00    +0.277 C 
ATOM     17  O   UNK A   0       2.082   4.683   4.146  0.00  0.00    -0.491 OA
ENDBRANCH  10  17
BRANCH  15  18
ATOM     18  O   UNK A   0       1.250   7.016   2.940  0.00  0.00    -0.503 OA
ATOM     19  H   UNK A   0       0.918   7.947   2.458  0.00  0.00    +0.292 HD
ENDBRANCH  15  18
ENDBRANCH   1  12
BRANCH   7  20
ATOM     20  O   UNK A   0      -4.216   3.402  -1.046  0.00  0.00    -0.491 OA
ATOM     21  C   UNK A   0      -5.138   3.955  -1.988  0.00  0.00    +0.277 C 
ENDBRANCH   7  20
BRANCH   5  22
ATOM     22  C   UNK A   0      -1.169   2.893  -4.795  0.00  0.00    +0.013 C 
ATOM     23  C   UNK A   0      -2.088   3.420  -5.633  0.00  0.00    +0.068 C 
BRANCH  23  24
ATOM     24  C   UNK A   0      -1.782   3.567  -7.055  0.00  0.00    +0.238 C 
ATOM     25  O   UNK A   0      -0.699   3.214  -7.484  0.00  0.00    -0.271 OA
ATOM     26  N   GLU A   1      -2.699   4.093  -7.891  0.00  0.00    -0.299 N 
ATOM     27  H   GLU A   1      -3.677   4.412  -7.503  0.00  0.00    +0.150 HD
BRANCH  26  28
ATOM     28  CA  GLU A   1      -2.392   4.240  -9.316  0.00  0.00    +0.187 C 
BRANCH  28  29
ATOM     29  C   GLU A   1      -1.656   5.536  -9.540  0.00  0.00    +0.376 C 
ATOM     30  O   GLU A   1      -1.412   6.262  -8.605  0.00  0.00    -0.244 OA
ATOM     31  OXT GLU A   1      -1.271   5.883 -10.778  0.00  0.00    -0.244 OA
ENDBRANCH  28  29
BRANCH  28  32
ATOM     32  CB  GLU A   1      -3.694   4.248 -10.119  0.00  0.00    +0.045 C 
BRANCH  32  33
ATOM     33  CG  GLU A   1      -4.380   2.886  -9.992  0.00  0.00    +0.127 C 
BRANCH  33  34
ATOM     34  CD  GLU A   1      -5.663   2.894 -10.783  0.00  0.00    +0.356 C 
ATOM     35  OE1 GLU A   1      -5.994   3.886 -11.387  0.00  0.00    -0.246 OA
ATOM     36  OE2 GLU A   1      -6.437   1.798 -10.817  0.00  0.00    -0.246 OA
ENDBRANCH  33  34
ENDBRANCH  32  33
ENDBRANCH  28  32
ENDBRANCH  26  28
ENDBRANCH  23  24
ENDBRANCH   5  22
BRANCH   2  37
ATOM     37  C   UNK A   0       0.002  -0.004   0.002  0.00  0.00    +0.168 C 
BRANCH  37  38
ATOM     38  O   UNK A   0       0.784  -0.464  -1.102  0.00  0.00    -0.394 OA
ATOM     39  H   UNK A   0       0.915  -1.543  -1.272  0.00  0.00    +0.209 HD
ENDBRANCH  37  38
ENDBRANCH   2  37
TORSDOF 13
