REMARK  Name = ZINC58890821
REMARK  13 active torsions:
REMARK  status: ('A' for Active; 'I' for Inactive)
REMARK    1  A    between atoms: C_1  and  C_2
REMARK    2  A    between atoms: C_4  and  C_24
REMARK    3  A    between atoms: C_5  and  C_23
REMARK    4  A    between atoms: N_6  and  C_7
REMARK    5  A    between atoms: C_10  and  O_13
REMARK    6  A    between atoms: O_13  and  C_14
REMARK    7  A    between atoms: C_17  and  N_20
REMARK    8  A    between atoms: N_25  and  N_26
REMARK    9  A    between atoms: C_27  and  C_29
REMARK   10  A    between atoms: C_29  and  C_30
REMARK   11  A    between atoms: C_30  and  C_31
REMARK   12  A    between atoms: C_31  and  C_33
REMARK   13  A    between atoms: C_31  and  O_39
REMARK                            x       y       z     vdW  Elec       q    Type
REMARK                         _______ _______ _______ _____ _____    ______ ____
ROOT
ATOM      1  C   UNL     1       0.490   1.468   0.023  0.00  0.00    +0.064 C 
ATOM      2  C   UNL     1       0.221  -0.015   0.006  0.00  0.00    +0.022 A 
ATOM      3  C   UNL     1       0.150  -0.784  -1.096  0.00  0.00    +0.032 A 
ATOM      4  C   UNL     1      -0.126  -2.149  -0.636  0.00  0.00    +0.016 A 
ATOM      5  C   UNL     1      -0.199  -2.086   0.727  0.00  0.00    +0.030 A 
ATOM      6  N   UNL     1       0.017  -0.797   1.106  0.00  0.00    -0.317 N 
ATOM      7  C   UNL     1      -0.467  -3.245   1.651  0.00  0.00    +0.064 C 
ENDROOT
BRANCH   6   8
ATOM      8  C   UNL     1       0.024  -0.339   2.432  0.00  0.00    +0.047 A 
ATOM      9  C   UNL     1       1.007  -0.773   3.311  0.00  0.00    +0.030 A 
ATOM     10  C   UNL     1       1.014  -0.322   4.616  0.00  0.00    +0.048 A 
ATOM     11  C   UNL     1       0.039   0.565   5.049  0.00  0.00    +0.130 A 
ATOM     12  C   UNL     1      -0.944   0.999   4.170  0.00  0.00    +0.048 A 
ATOM     13  C   UNL     1      -0.948   0.553   2.864  0.00  0.00    +0.030 A 
BRANCH  11  14
ATOM     14  O   UNL     1       0.046   1.008   6.334  0.00  0.00    -0.438 OA
BRANCH  14  15
ATOM     15  C   UNL     1       0.950   1.961   6.673  0.00  0.00    +0.221 A 
ATOM     16  C   UNL     1       1.061   2.363   7.999  0.00  0.00    +0.070 A 
ATOM     17  C   UNL     1       1.986   3.336   8.332  0.00  0.00    +0.039 A 
ATOM     18  C   UNL     1       2.772   3.876   7.323  0.00  0.00    +0.144 A 
ATOM     19  C   UNL     1       2.608   3.429   6.027  0.00  0.00    +0.147 A 
ATOM     20  N   UNL     1       1.720   2.496   5.741  0.00  0.00    -0.219 NA
BRANCH  18  21
ATOM     21  N   UNL     1       3.775   4.920   7.633  0.00  0.00    +0.058 N 
ATOM     22  O   UNL     1       3.913   5.306   8.771  0.00  0.00    -0.126 OA
ATOM     23  O   UNL     1       4.456   5.385   6.750  0.00  0.00    -0.126 OA
ENDBRANCH  18  21
ENDBRANCH  14  15
ENDBRANCH  11  14
ENDBRANCH   6   8
BRANCH   4  24
ATOM     24  C   UNL     1      -0.292  -3.349  -1.476  0.00  0.00    +0.140 C 
ATOM     25  N   UNL     1      -0.535  -4.498  -0.924  0.00  0.00    -0.188 NA
BRANCH  25  26
ATOM     26  N   UNL     1      -0.693  -5.639  -1.722  0.00  0.00    -0.207 N 
ATOM     27  C   UNL     1      -0.945  -6.832  -1.150  0.00  0.00    +0.232 C 
ATOM     28  O   UNL     1      -1.036  -6.919   0.057  0.00  0.00    -0.274 OA
ATOM     29  H   UNL     1      -0.620  -5.569  -2.687  0.00  0.00    +0.177 HD
BRANCH  27  30
ATOM     30  C   UNL     1      -1.115  -8.059  -2.009  0.00  0.00    +0.100 C 
BRANCH  30  31
ATOM     31  C   UNL     1      -1.391  -9.271  -1.117  0.00  0.00    +0.045 C 
BRANCH  31  32
ATOM     32  C   UNL     1      -1.563 -10.517  -1.989  0.00  0.00    +0.145 C 
BRANCH  32  33
ATOM     33  C   UNL     1      -1.712 -11.730  -1.108  0.00  0.00    -0.019 A 
ATOM     34  C   UNL     1      -2.955 -12.075  -0.611  0.00  0.00    +0.006 A 
ATOM     35  C   UNL     1      -3.091 -13.188   0.198  0.00  0.00    +0.000 A 
ATOM     36  C   UNL     1      -1.985 -13.957   0.509  0.00  0.00    +0.000 A 
ATOM     37  C   UNL     1      -0.743 -13.612   0.011  0.00  0.00    +0.000 A 
ATOM     38  C   UNL     1      -0.607 -12.502  -0.801  0.00  0.00    +0.006 A 
ENDBRANCH  32  33
BRANCH  32  39
ATOM     39  O   UNL     1      -2.729 -10.372  -2.801  0.00  0.00    -0.387 OA
ATOM     40  H   UNL     1      -3.548 -10.261  -2.298  0.00  0.00    +0.210 HD
ENDBRANCH  32  39
ENDBRANCH  31  32
ENDBRANCH  30  31
ENDBRANCH  27  30
ENDBRANCH  25  26
ENDBRANCH   4  24
TORSDOF 11
