REMARK  Name = ZINC44097842
REMARK  6 active torsions:
REMARK  status: ('A' for Active; 'I' for Inactive)
REMARK    1  A    between atoms: C_1  and  C_2
REMARK    2  A    between atoms: C_2  and  C_3
REMARK    3  A    between atoms: C_2  and  C_4
REMARK    4  A    between atoms: C_6  and  C_9
REMARK    5  A    between atoms: N_23  and  C_24
REMARK    6  A    between atoms: C_24  and  C_25
REMARK                            x       y       z     vdW  Elec       q    Type
REMARK                         _______ _______ _______ _____ _____    ______ ____
ROOT
ATOM      1  C   UNL     1      -4.108  -2.434  -1.383  0.00  0.00    +0.038 A 
ATOM      2  C   UNL     1      -5.396  -2.573  -0.854  0.00  0.00    +0.016 A 
ATOM      3  C   UNL     1      -6.314  -3.332  -1.551  0.00  0.00    +0.042 A 
ATOM      4  C   UNL     1      -5.932  -3.931  -2.749  0.00  0.00    +0.099 A 
ATOM      5  N   UNL     1      -4.704  -3.779  -3.222  0.00  0.00    -0.349 N 
ATOM      6  C   UNL     1      -3.801  -3.058  -2.589  0.00  0.00    +0.095 A 
ATOM      7  N   UNL     1      -6.849  -4.696  -3.455  0.00  0.00    -0.314 N 
ATOM      8  C   UNL     1      -6.510  -5.237  -4.779  0.00  0.00    +0.125 C 
ATOM      9  C   UNL     1      -6.716  -6.756  -4.756  0.00  0.00    +0.128 C 
ATOM     10  N   UNL     1      -8.043  -7.041  -4.194  0.00  0.00    -0.283 N 
ATOM     11  C   UNL     1      -8.382  -6.501  -2.870  0.00  0.00    +0.128 C 
ATOM     12  C   UNL     1      -8.174  -4.986  -2.890  0.00  0.00    +0.125 C 
ATOM     13  C   UNL     1      -8.934  -7.785  -4.880  0.00  0.00    +0.303 C 
ATOM     14  O   UNL     1      -8.609  -8.308  -5.928  0.00  0.00    -0.253 OA
ATOM     15  N   UNL     1     -10.184  -7.948  -4.404  0.00  0.00    -0.295 N 
ATOM     16  H   UNL     1     -10.467  -7.469  -3.610  0.00  0.00    +0.151 HD
ATOM     17  H   UNL     1      -4.464  -4.208  -4.059  0.00  0.00    +0.167 HD
ENDROOT
BRANCH   1  20
ATOM     18  C   UNL     1      -2.170  -0.373   0.842  0.00  0.00    +0.230 A 
ATOM     19  N   UNL     1      -3.267  -0.983   0.495  0.00  0.00    -0.191 NA
ATOM     20  C   UNL     1      -3.085  -1.629  -0.672  0.00  0.00    +0.203 A 
ATOM     21  N   UNL     1      -1.855  -1.427  -1.075  0.00  0.00    -0.056 NA
ATOM     22  O   UNL     1      -1.242  -0.601  -0.096  0.00  0.00    -0.337 OA
BRANCH  18  24
ATOM     23  C   UNL     1      -0.857  -0.148   2.933  0.00  0.00    +0.017 C 
ATOM     24  C   UNL     1      -1.979   0.455   2.086  0.00  0.00    +0.072 C 
ATOM     25  C   UNL     1      -1.609   1.887   1.694  0.00  0.00    +0.017 C 
ENDBRANCH  18  24
ENDBRANCH   1  20
BRANCH  15  26
ATOM     26  C   UNL     1     -11.116  -8.848  -5.087  0.00  0.00    +0.141 C 
BRANCH  26  27
ATOM     27  C   UNL     1     -12.436  -8.851  -4.360  0.00  0.00    -0.023 A 
ATOM     28  C   UNL     1     -12.742  -9.862  -3.502  0.00  0.00    +0.006 A 
ATOM     29  C   UNL     1     -13.957  -9.882  -2.820  0.00  0.00    +0.001 A 
ATOM     30  C   UNL     1     -14.874  -8.890  -2.994  0.00  0.00    +0.008 A 
ATOM     31  C   UNL     1     -14.594  -7.830  -3.872  0.00  0.00    -0.018 A 
ATOM     32  C   UNL     1     -13.355  -7.807  -4.561  0.00  0.00    -0.013 A 
ATOM     33  C   UNL     1     -13.072  -6.743  -5.435  0.00  0.00    +0.009 A 
ATOM     34  C   UNL     1     -13.987  -5.750  -5.604  0.00  0.00    +0.001 A 
ATOM     35  C   UNL     1     -15.202  -5.769  -4.922  0.00  0.00    +0.001 A 
ATOM     36  C   UNL     1     -15.516  -6.790  -4.078  0.00  0.00    +0.008 A 
ENDBRANCH  26  27
ENDBRANCH  15  26
TORSDOF 4
