REMARK  Name = ZINC39359956
REMARK  6 active torsions:
REMARK  status: ('A' for Active; 'I' for Inactive)
REMARK    1  A    between atoms: C_1  and  C_2
REMARK    2  A    between atoms: N_5  and  C_14
REMARK    3  A    between atoms: C_14  and  C_15
REMARK    4  A    between atoms: N_17  and  C_18
REMARK    5  A    between atoms: C_18  and  C_19
REMARK    6  A    between atoms: C_21  and  C_25
REMARK                            x       y       z     vdW  Elec       q    Type
REMARK                         _______ _______ _______ _____ _____    ______ ____
ROOT
ATOM      1  C   UNL     1       0.972  -3.736  -3.035  0.00  0.00    +0.197 C 
ATOM      2  O   UNL     1       0.502  -4.447  -2.173  0.00  0.00    -0.278 OA
ATOM      3  N   UNL     1       1.352  -4.267  -4.215  0.00  0.00    -0.311 N 
ATOM      4  H   UNL     1       1.728  -3.698  -4.904  0.00  0.00    +0.149 HD
ENDROOT
BRANCH   1   5
ATOM      5  C   UNL     1       1.133  -2.258  -2.788  0.00  0.00    +0.019 C 
BRANCH   5   9
ATOM      6  C   UNL     1      -0.019   1.526   0.010  0.00  0.00    +0.050 C 
ATOM      7  C   UNL     1       0.002  -0.004   0.002  0.00  0.00    +0.154 C 
ATOM      8  C   UNL     1       0.697  -0.485  -1.252  0.00  0.00    -0.033 C 
ATOM      9  N   UNL     1       0.649  -1.931  -1.440  0.00  0.00    +0.391 N 
ATOM     10  C   UNL     1       1.482  -2.623  -0.450  0.00  0.00    -0.038 C 
ATOM     11  C   UNL     1       0.673  -2.820   0.817  0.00  0.00    -0.022 A 
ATOM     12  C   UNL     1       0.282  -4.088   1.198  0.00  0.00    +0.005 A 
ATOM     13  C   UNL     1      -0.443  -4.259   2.364  0.00  0.00    +0.000 A 
ATOM     14  C   UNL     1      -0.773  -3.165   3.143  0.00  0.00    +0.004 A 
ATOM     15  C   UNL     1      -0.387  -1.895   2.758  0.00  0.00    +0.046 A 
ATOM     16  C   UNL     1       0.334  -1.723   1.585  0.00  0.00    +0.122 A 
ATOM     17  O   UNL     1       0.683  -0.473   1.173  0.00  0.00    -0.491 OA
ATOM     18  H   UNL     1      -0.305  -2.246  -1.347  0.00  0.00    -0.081 HD
ENDBRANCH   5   9
ENDBRANCH   1   5
BRANCH   3  19
ATOM     19  C   UNL     1       1.196  -5.703  -4.455  0.00  0.00    +0.161 C 
BRANCH  19  20
ATOM     20  C   UNL     1       1.692  -6.038  -5.838  0.00  0.00    +0.076 C 
ATOM     21  C   UNL     1       2.744  -6.817  -6.098  0.00  0.00    +0.030 C 
ATOM     22  C   UNL     1       2.820  -6.835  -7.614  0.00  0.00    +0.153 C 
ATOM     23  N   UNL     1       1.688  -5.979  -8.012  0.00  0.00    -0.297 N 
ATOM     24  N   UNL     1       1.128  -5.594  -6.983  0.00  0.00    -0.181 NA
ATOM     25  H   UNL     1       1.428  -5.761  -8.921  0.00  0.00    +0.183 HD
BRANCH  22  26
ATOM     26  C   UNL     1       4.126  -6.253  -8.089  0.00  0.00    -0.020 A 
ATOM     27  C   UNL     1       4.293  -4.881  -8.142  0.00  0.00    +0.006 A 
ATOM     28  C   UNL     1       5.492  -4.348  -8.577  0.00  0.00    +0.000 A 
ATOM     29  C   UNL     1       6.523  -5.185  -8.960  0.00  0.00    +0.000 A 
ATOM     30  C   UNL     1       6.356  -6.556  -8.907  0.00  0.00    +0.000 A 
ATOM     31  C   UNL     1       5.159  -7.090  -8.467  0.00  0.00    +0.006 A 
ENDBRANCH  22  26
ENDBRANCH  19  20
ENDBRANCH   3  19
TORSDOF 5
