REMARK  Name = ZINC24911438
REMARK  10 active torsions:
REMARK  status: ('A' for Active; 'I' for Inactive)
REMARK    1  A    between atoms: C_1  and  C_2
REMARK    2  A    between atoms: C_2  and  C_3
REMARK    3  A    between atoms: C_10  and  C_12
REMARK    4  A    between atoms: C_15  and  S_18
REMARK    5  A    between atoms: N_16  and  C_17
REMARK    6  A    between atoms: S_18  and  C_19
REMARK    7  A    between atoms: C_19  and  C_21
REMARK    8  A    between atoms: C_19  and  C_22
REMARK    9  A    between atoms: N_28  and  C_29
REMARK   10  A    between atoms: N_28  and  C_30
REMARK                            x       y       z     vdW  Elec       q    Type
REMARK                         _______ _______ _______ _____ _____    ______ ____
ROOT
ATOM      1  C   UNL     1       1.993   8.018   1.442  0.00  0.00    +0.171 A 
ATOM      2  N   UNL     1       1.075   7.707   0.553  0.00  0.00    -0.128 NA
ATOM      3  N   UNL     1       1.058   6.435   0.368  0.00  0.00    -0.122 NA
ATOM      4  C   UNL     1       1.961   5.855   1.125  0.00  0.00    +0.192 A 
ATOM      5  N   UNL     1       2.584   6.840   1.840  0.00  0.00    -0.305 N 
ATOM      6  C   UNL     1       3.660   6.676   2.821  0.00  0.00    +0.153 C 
ENDROOT
BRANCH   1  13
ATOM      7  C   UNL     1       2.366  14.175   2.494  0.00  0.00    -0.007 C 
ATOM      8  C   UNL     1       3.101  13.932   3.815  0.00  0.00    +0.009 C 
ATOM      9  C   UNL     1       4.056  12.742   3.635  0.00  0.00    +0.043 C 
ATOM     10  C   UNL     1       3.305  11.633   2.973  0.00  0.00    -0.006 A 
ATOM     11  C   UNL     1       2.103  11.710   2.334  0.00  0.00    -0.036 A 
ATOM     12  C   UNL     1       1.608  10.531   1.791  0.00  0.00    +0.023 A 
ATOM     13  C   UNL     1       2.320   9.370   1.925  0.00  0.00    +0.057 A 
ATOM     14  S   UNL     1       3.756   9.924   2.833  0.00  0.00    -0.090 S 
ATOM     15  C   UNL     1       1.370  13.045   2.233  0.00  0.00    +0.039 C 
BRANCH   7  17
ATOM     16  C   UNL     1       0.995  15.819   1.204  0.00  0.00    +0.004 C 
ATOM     17  C   UNL     1       1.616  15.507   2.568  0.00  0.00    +0.000 C 
ENDBRANCH   7  17
ENDBRANCH   1  13
BRANCH   4  18
ATOM     18  S   UNL     1       2.301   4.129   1.209  0.00  0.00    -0.075 S 
BRANCH  18  19
ATOM     19  C   UNL     1       1.093   3.512   0.011  0.00  0.00    +0.119 C 
ATOM     20  C   UNL     1       1.445   4.035  -1.383  0.00  0.00    +0.028 C 
BRANCH  19  21
ATOM     21  C   UNL     1       1.118   2.005   0.002  0.00  0.00    +0.149 A 
ATOM     22  N   UNL     1       2.275   1.365  -0.012  0.00  0.00    -0.198 NA
ATOM     23  C   UNL     1       2.301   0.034  -0.020  0.00  0.00    +0.217 A 
ATOM     24  N   UNL     1       1.162  -0.651  -0.013  0.00  0.00    -0.181 NA
ATOM     25  C   UNL     1       0.002  -0.004   0.002  0.00  0.00    +0.222 A 
ATOM     26  N   UNL     1      -0.016   1.327   0.009  0.00  0.00    -0.198 NA
ATOM     27  N   UNL     1      -1.183  -0.711   0.010  0.00  0.00    -0.306 N 
ATOM     28  C   UNL     1      -2.462   0.003   0.026  0.00  0.00    +0.132 C 
ATOM     29  C   UNL     1      -1.162  -2.176   0.002  0.00  0.00    +0.132 C 
ATOM     30  N   UNL     1       3.509  -0.633  -0.034  0.00  0.00    -0.327 N 
ATOM     31  H   UNL     1       3.529  -1.733  -0.041  0.00  0.00    +0.145 HD
ATOM     32  H   UNL     1       4.451  -0.065  -0.040  0.00  0.00    +0.145 HD
ENDBRANCH  19  21
ENDBRANCH  18  19
ENDBRANCH   4  18
TORSDOF 5
