REMARK  Name = ZINC28292294
REMARK  11 active torsions:
REMARK  status: ('A' for Active; 'I' for Inactive)
REMARK    1  A    between atoms: C_1  and  C_2
REMARK    2  A    between atoms: C_9  and  C_14
REMARK    3  A    between atoms: C_12  and  C_13
REMARK    4  A    between atoms: N_16  and  C_17
REMARK    5  A    between atoms: C_17  and  C_18
REMARK    6  A    between atoms: C_18  and  C_20
REMARK    7  A    between atoms: C_18  and  N_30
REMARK    8  A    between atoms: C_23  and  C_26
REMARK    9  A    between atoms: C_26  and  C_27
REMARK   10  A    between atoms: C_26  and  C_28
REMARK   11  A    between atoms: C_26  and  C_29
REMARK                            x       y       z     vdW  Elec       q    Type
REMARK                         _______ _______ _______ _____ _____    ______ ____
ROOT
ATOM      1  C   UNL     1       0.071   1.317   0.130  0.00  0.00    +0.128 C 
ENDROOT
BRANCH   1   4
ATOM      2  C   UNL     1       2.309   1.463  -0.821  0.00  0.00    +0.280 C 
ATOM      3  O   UNL     1       2.034   0.523  -1.539  0.00  0.00    -0.267 OA
ATOM      4  N   UNL     1       1.396   1.937   0.050  0.00  0.00    -0.307 N 
ATOM      5  H   UNL     1       1.646   2.788   0.700  0.00  0.00    +0.149 HD
BRANCH   2  14
ATOM      6  C   UNL     1       6.811   6.631   1.679  0.00  0.00    +0.044 C 
ATOM      7  C   UNL     1       6.566   5.472   0.748  0.00  0.00    -0.044 A 
ATOM      8  C   UNL     1       7.574   5.059  -0.113  0.00  0.00    +0.004 A 
ATOM      9  C   UNL     1       7.369   4.010  -0.965  0.00  0.00    +0.015 A 
ATOM     10  C   UNL     1       6.140   3.351  -0.966  0.00  0.00    +0.064 A 
ATOM     11  C   UNL     1       5.879   2.214  -1.870  0.00  0.00    +0.193 A 
ATOM     12  O   UNL     1       6.725   1.808  -2.646  0.00  0.00    -0.287 OA
ATOM     13  C   UNL     1       4.548   1.593  -1.787  0.00  0.00    +0.103 A 
ATOM     14  C   UNL     1       3.650   2.090  -0.903  0.00  0.00    +0.193 A 
ATOM     15  O   UNL     1       3.925   3.130  -0.102  0.00  0.00    -0.450 OA
ATOM     16  C   UNL     1       5.114   3.762  -0.097  0.00  0.00    +0.143 A 
ATOM     17  C   UNL     1       5.345   4.833   0.761  0.00  0.00    -0.005 A 
ATOM     18  C   UNL     1       4.262   5.294   1.702  0.00  0.00    +0.048 C 
ENDBRANCH   2  14
ENDBRANCH   1   4
BRANCH   1  19
ATOM     19  C   UNL     1      -0.809   2.119   1.092  0.00  0.00    +0.104 C 
BRANCH  19  20
ATOM     20  C   UNL     1      -1.022   3.505   0.541  0.00  0.00    -0.029 A 
ATOM     21  C   UNL     1      -1.962   3.718  -0.450  0.00  0.00    +0.005 A 
ATOM     22  C   UNL     1      -2.160   4.991  -0.953  0.00  0.00    +0.004 A 
ATOM     23  C   UNL     1      -1.412   6.048  -0.471  0.00  0.00    -0.042 A 
ATOM     24  C   UNL     1      -0.469   5.835   0.516  0.00  0.00    +0.004 A 
ATOM     25  C   UNL     1      -0.273   4.563   1.022  0.00  0.00    +0.005 A 
BRANCH  23  26
ATOM     26  C   UNL     1      -1.625   7.434  -1.023  0.00  0.00    -0.013 C 
ATOM     27  C   UNL     1      -0.321   7.942  -1.642  0.00  0.00    +0.015 C 
ATOM     28  C   UNL     1      -2.716   7.395  -2.094  0.00  0.00    +0.015 C 
ATOM     29  C   UNL     1      -2.053   8.373   0.107  0.00  0.00    +0.015 C 
ENDBRANCH  23  26
ENDBRANCH  19  20
BRANCH  19  30
ATOM     30  N   UNL     1      -2.106   1.448   1.244  0.00  0.00    -0.290 NA
ATOM     31  C   UNL     1      -2.986   2.200   2.149  0.00  0.00    +0.113 C 
ATOM     32  C   UNL     1      -4.345   1.499   2.231  0.00  0.00    +0.175 C 
ATOM     33  O   UNL     1      -4.153   0.149   2.661  0.00  0.00    -0.377 OA
ATOM     34  C   UNL     1      -3.302  -0.614   1.802  0.00  0.00    +0.175 C 
ATOM     35  C   UNL     1      -1.933   0.066   1.715  0.00  0.00    +0.113 C 
ENDBRANCH  19  30
ENDBRANCH   1  19
TORSDOF 6
