REMARK  Name = ZINC09436133
REMARK  9 active torsions:
REMARK  status: ('A' for Active; 'I' for Inactive)
REMARK    1  A    between atoms: C_1  and  C_2
REMARK    2  A    between atoms: C_3  and  C_15
REMARK    3  A    between atoms: N_5  and  C_7
REMARK    4  A    between atoms: C_16  and  C_17
REMARK    5  A    between atoms: C_17  and  O_19
REMARK    6  A    between atoms: O_19  and  C_20
REMARK    7  A    between atoms: C_20  and  C_21
REMARK    8  A    between atoms: N_23  and  C_24
REMARK    9  A    between atoms: C_26  and  N_31
REMARK                            x       y       z     vdW  Elec       q    Type
REMARK                         _______ _______ _______ _____ _____    ______ ____
ROOT
ATOM      1  C   UNL     1      -0.014   1.215   0.046  0.00  0.00    +0.332 C 
ATOM      2  O   UNL     1       0.002  -0.002   0.044  0.00  0.00    -0.246 OA
ENDROOT
BRANCH   1   4
ATOM      3  C   UNL     1      -2.411   1.214   0.075  0.00  0.00    +0.020 C 
ATOM      4  C   UNL     1      -1.248   1.906   0.062  0.00  0.00    +0.092 C 
BRANCH   3   7
ATOM      5  C   UNL     1      -4.856   0.688  -1.877  0.00  0.00    +0.068 C 
ATOM      6  C   UNL     1      -4.791   1.709  -0.770  0.00  0.00    +0.069 A 
ATOM      7  C   UNL     1      -3.691   1.931   0.092  0.00  0.00    +0.035 A 
ATOM      8  C   UNL     1      -4.049   2.958   0.952  0.00  0.00    +0.140 A 
ATOM      9  N   UNL     1      -5.302   3.332   0.628  0.00  0.00    -0.221 N 
ATOM     10  N   UNL     1      -5.740   2.540  -0.439  0.00  0.00    -0.170 NA
ATOM     11 CL   UNL     1      -3.065   3.636   2.211  0.00  0.00    -0.061 Cl
BRANCH   9  12
ATOM     12  C   UNL     1      -6.043   4.343   1.255  0.00  0.00    +0.067 A 
ATOM     13  C   UNL     1      -5.913   4.555   2.621  0.00  0.00    +0.030 A 
ATOM     14  C   UNL     1      -6.639   5.556   3.236  0.00  0.00    +0.040 A 
ATOM     15  C   UNL     1      -7.505   6.341   2.493  0.00  0.00    +0.124 A 
ATOM     16  C   UNL     1      -7.640   6.128   1.131  0.00  0.00    +0.040 A 
ATOM     17  C   UNL     1      -6.911   5.131   0.512  0.00  0.00    +0.030 A 
ATOM     18  F   UNL     1      -8.219   7.316   3.098  0.00  0.00    -0.205 F 
ENDBRANCH   9  12
ENDBRANCH   3   7
ENDBRANCH   1   4
BRANCH   1  19
ATOM     19  O   UNL     1       1.146   1.905   0.027  0.00  0.00    -0.452 OA
BRANCH  19  20
ATOM     20  C   UNL     1       2.354   1.142   0.006  0.00  0.00    +0.328 C 
BRANCH  20  21
ATOM     21  C   UNL     1       3.537   2.076  -0.013  0.00  0.00    +0.255 C 
ATOM     22  O   UNL     1       3.362   3.276  -0.008  0.00  0.00    -0.272 OA
ATOM     23  N   UNL     1       4.789   1.577  -0.035  0.00  0.00    -0.280 N 
ATOM     24  H   UNL     1       4.930   0.620   0.026  0.00  0.00    +0.155 HD
BRANCH  23  25
ATOM     25  C   UNL     1       5.885   2.442  -0.147  0.00  0.00    +0.071 A 
ATOM     26  C   UNL     1       5.847   3.694   0.451  0.00  0.00    +0.059 A 
ATOM     27  C   UNL     1       6.932   4.542   0.345  0.00  0.00    +0.128 A 
ATOM     28  C   UNL     1       8.052   4.151  -0.367  0.00  0.00    +0.035 A 
ATOM     29  C   UNL     1       8.092   2.907  -0.969  0.00  0.00    +0.042 A 
ATOM     30  C   UNL     1       7.011   2.050  -0.862  0.00  0.00    +0.145 A 
ATOM     31  F   UNL     1       7.051   0.835  -1.450  0.00  0.00    -0.204 F 
BRANCH  27  32
ATOM     32  N   UNL     1       6.894   5.875   0.987  0.00  0.00    +0.056 N 
ATOM     33  O   UNL     1       7.848   6.626   0.889  0.00  0.00    -0.126 OA
ATOM     34  O   UNL     1       5.909   6.221   1.614  0.00  0.00    -0.126 OA
ENDBRANCH  27  32
ENDBRANCH  23  25
ENDBRANCH  20  21
ENDBRANCH  19  20
ENDBRANCH   1  19
TORSDOF 8
