REMARK  Name = ZINC09310195
REMARK  4 active torsions:
REMARK  status: ('A' for Active; 'I' for Inactive)
REMARK    1  A    between atoms: C_4  and  S_7
REMARK    2  A    between atoms: S_7  and  N_10
REMARK    3  A    between atoms: C_21  and  N_22
REMARK    4  A    between atoms: N_25  and  C_28
REMARK                            x       y       z     vdW  Elec       q    Type
REMARK                         _______ _______ _______ _____ _____    ______ ____
ROOT
ATOM      1  N   UNL     1       4.385  -1.077   1.538  0.00  0.00    -0.123 NA
ATOM      2  C   UNL     1       5.492  -1.708   1.817  0.00  0.00    +0.157 C 
ATOM      3  C   UNL     1       6.408  -2.216   0.739  0.00  0.00    +0.215 C 
ATOM      4  O   UNL     1       6.567  -1.624  -0.310  0.00  0.00    -0.285 OA
ATOM      5  C   UNL     1       7.104  -3.485   1.041  0.00  0.00    +0.035 A 
ATOM      6  C   UNL     1       7.590  -4.303   0.025  0.00  0.00    +0.012 A 
ATOM      7  C   UNL     1       8.232  -5.483   0.348  0.00  0.00    +0.001 A 
ATOM      8  C   UNL     1       8.393  -5.854   1.673  0.00  0.00    +0.001 A 
ATOM      9  C   UNL     1       7.918  -5.055   2.694  0.00  0.00    +0.012 A 
ATOM     10  C   UNL     1       7.268  -3.857   2.393  0.00  0.00    +0.034 A 
ATOM     11  C   UNL     1       6.762  -2.992   3.468  0.00  0.00    +0.210 C 
ATOM     12  C   UNL     1       5.918  -1.958   3.209  0.00  0.00    +0.109 C 
ATOM     13  O   UNL     1       7.149  -3.228   4.748  0.00  0.00    -0.285 OA
ENDROOT
BRANCH  12  14
ATOM     14  N   UNL     1       5.455  -1.142   4.248  0.00  0.00    -0.322 N 
ATOM     15  C   UNL     1       5.735   0.301   4.249  0.00  0.00    +0.124 C 
ATOM     16  C   UNL     1       4.406   1.059   4.357  0.00  0.00    +0.124 C 
ATOM     17  N   UNL     1       3.630   0.488   5.467  0.00  0.00    -0.327 N 
ATOM     18  C   UNL     1       3.349  -0.955   5.467  0.00  0.00    +0.124 C 
ATOM     19  C   UNL     1       4.673  -1.712   5.355  0.00  0.00    +0.124 C 
BRANCH  17  20
ATOM     20  C   UNL     1       3.167   1.303   6.505  0.00  0.00    +0.030 A 
ATOM     21  C   UNL     1       2.546   0.736   7.610  0.00  0.00    +0.026 A 
ATOM     22  C   UNL     1       2.090   1.542   8.634  0.00  0.00    +0.040 A 
ATOM     23  C   UNL     1       2.251   2.916   8.559  0.00  0.00    +0.124 A 
ATOM     24  C   UNL     1       2.870   3.483   7.458  0.00  0.00    +0.040 A 
ATOM     25  C   UNL     1       3.332   2.680   6.434  0.00  0.00    +0.026 A 
ATOM     26  F   UNL     1       1.804   3.703   9.562  0.00  0.00    -0.205 F 
ENDBRANCH  17  20
ENDBRANCH  12  14
BRANCH   1  27
ATOM     27  S   UNL     1       3.951  -0.823  -0.040  0.00  0.00    +0.099 S 
ATOM     28  O   UNL     1       3.686  -2.102  -0.600  0.00  0.00    -0.146 OA
ATOM     29  O   UNL     1       4.917   0.064  -0.588  0.00  0.00    -0.146 OA
BRANCH  27  33
ATOM     30  C   UNL     1       0.016   1.414  -0.004  0.00  0.00    +0.000 A 
ATOM     31  C   UNL     1       1.209   2.113  -0.003  0.00  0.00    +0.002 A 
ATOM     32  C   UNL     1       2.410   1.430  -0.014  0.00  0.00    +0.029 A 
ATOM     33  C   UNL     1       2.420   0.048  -0.025  0.00  0.00    +0.112 A 
ATOM     34  C   UNL     1       1.227  -0.651  -0.025  0.00  0.00    +0.029 A 
ATOM     35  C   UNL     1       0.025   0.032  -0.016  0.00  0.00    +0.002 A 
ENDBRANCH  27  33
ENDBRANCH   1  27
TORSDOF 4
