REMARK  Name = ZINC39526193
REMARK  4 active torsions:
REMARK  status: ('A' for Active; 'I' for Inactive)
REMARK    1  A    between atoms: C_1  and  C_2
REMARK    2  A    between atoms: C_2  and  C_3
REMARK    3  A    between atoms: C_2  and  S_4
REMARK    4  A    between atoms: S_4  and  C_7
REMARK                            x       y       z     vdW  Elec       q    Type
REMARK                         _______ _______ _______ _____ _____    ______ ____
ROOT
ATOM      1  C   UNL     1      -1.464  -2.431   0.158  0.00  0.00    +0.132 C 
ATOM      2  C   UNL     1      -0.520  -2.892  -0.953  0.00  0.00    +0.026 C 
ATOM      3  C   UNL     1      -0.339  -4.406  -0.846  0.00  0.00    +0.004 C 
ATOM      4  C   UNL     1      -1.679  -5.088  -1.088  0.00  0.00    +0.023 C 
ATOM      5  C   UNL     1      -2.757  -4.633  -0.117  0.00  0.00    +0.034 C 
ATOM      6  C   UNL     1      -2.812  -3.121   0.050  0.00  0.00    +0.049 C 
ATOM      7  C   UNL     1      -4.119  -5.039  -0.743  0.00  0.00    +0.023 C 
ATOM      8  C   UNL     1      -4.144  -6.553  -0.943  0.00  0.00    +0.004 C 
ATOM      9  C   UNL     1      -3.978  -7.245   0.412  0.00  0.00    +0.030 C 
ATOM     10  C   UNL     1      -2.675  -6.775   1.064  0.00  0.00    +0.130 C 
ATOM     11  N   UNL     1      -2.665  -5.315   1.168  0.00  0.00    -0.228 NA
ATOM     12  I   UNL     1      -1.123  -4.660   2.339  0.00  0.00    +0.022 I 
ATOM     13  I   UNL     1      -2.519  -7.636   3.043  0.00  0.00    -0.064 I 
ENDROOT
BRANCH   1  14
ATOM     14  S   UNL     1      -1.700  -0.632   0.015  0.00  0.00    -0.026 S 
ATOM     15  O   UNL     1      -2.341  -0.168   1.195  0.00  0.00    -0.174 OA
ATOM     16  O   UNL     1      -2.291  -0.355  -1.247  0.00  0.00    -0.174 OA
BRANCH  14  18
ATOM     17  C   UNL     1      -0.019   1.526   0.010  0.00  0.00    +0.031 C 
ATOM     18  C   UNL     1       0.002  -0.004   0.002  0.00  0.00    +0.125 C 
ATOM     19  C   UNL     1       0.742  -0.511   1.242  0.00  0.00    +0.031 C 
ENDBRANCH  14  18
ENDBRANCH   1  14
TORSDOF 2
