REMARK  Name = ZINC20240614
REMARK  8 active torsions:
REMARK  status: ('A' for Active; 'I' for Inactive)
REMARK    1  A    between atoms: C_4  and  C_7
REMARK    2  A    between atoms: C_7  and  C_8
REMARK    3  A    between atoms: N_11  and  C_14
REMARK    4  A    between atoms: C_14  and  C_15
REMARK    5  A    between atoms: C_18  and  C_21
REMARK    6  A    between atoms: N_23  and  N_24
REMARK    7  A    between atoms: C_25  and  C_26
REMARK    8  A    between atoms: C_31  and  N_32
REMARK                            x       y       z     vdW  Elec       q    Type
REMARK                         _______ _______ _______ _____ _____    ______ ____
ROOT
ATOM      1  C   UNL     1       6.769  -3.982   4.458  0.00  0.00    -0.064 A 
ATOM      2  C   UNL     1       6.760  -5.357   4.310  0.00  0.00    +0.002 A 
ATOM      3  C   UNL     1       7.949  -6.055   4.245  0.00  0.00    +0.013 A 
ATOM      4  C   UNL     1       9.162  -5.370   4.329  0.00  0.00    +0.038 A 
ATOM      5  C   UNL     1       9.164  -3.982   4.478  0.00  0.00    +0.013 A 
ATOM      6  C   UNL     1       7.968  -3.296   4.536  0.00  0.00    +0.002 A 
ENDROOT
BRANCH   4   7
ATOM      7  C   UNL     1      10.439  -6.111   4.261  0.00  0.00    +0.263 C 
ATOM      8  O   UNL     1      10.434  -7.320   4.131  0.00  0.00    -0.268 OA
ATOM      9  N   UNL     1      11.609  -5.446   4.342  0.00  0.00    -0.203 N 
ATOM     10  H   UNL     1      11.613  -4.482   4.445  0.00  0.00    +0.178 HD
BRANCH   9  11
ATOM     11  N   UNL     1      12.819  -6.148   4.277  0.00  0.00    -0.187 NA
ATOM     12  C   UNL     1      13.946  -5.508   4.356  0.00  0.00    +0.140 C 
BRANCH  12  13
ATOM     13  C   UNL     1      15.220  -6.248   4.287  0.00  0.00    +0.025 A 
ATOM     14  C   UNL     1      15.221  -7.644   4.262  0.00  0.00    +0.012 A 
ATOM     15  C   UNL     1      16.416  -8.329   4.198  0.00  0.00    +0.001 A 
ATOM     16  C   UNL     1      17.613  -7.636   4.159  0.00  0.00    +0.002 A 
ATOM     17  C   UNL     1      17.620  -6.253   4.184  0.00  0.00    +0.033 A 
ATOM     18  C   UNL     1      16.432  -5.554   4.243  0.00  0.00    +0.135 A 
BRANCH  18  19
ATOM     19  N   UNL     1      16.441  -4.074   4.263  0.00  0.00    +0.057 N 
ATOM     20  O   UNL     1      17.480  -3.474   4.114  0.00  0.00    -0.126 OA
ATOM     21  O   UNL     1      15.410  -3.466   4.429  0.00  0.00    -0.126 OA
ENDBRANCH  18  19
ENDBRANCH  12  13
ENDBRANCH   9  11
ENDBRANCH   4   7
BRANCH   1  22
ATOM     22  C   UNL     1       5.467  -3.227   4.528  0.00  0.00    -0.043 C 
BRANCH  22  26
ATOM     23  C   UNL     1       4.253  -0.914   1.161  0.00  0.00    -0.010 C 
ATOM     24  C   UNL     1       3.256  -1.877   1.813  0.00  0.00    -0.015 C 
ATOM     25  C   UNL     1       3.728  -2.209   3.230  0.00  0.00    -0.078 C 
ATOM     26  N   UNL     1       5.053  -2.839   3.173  0.00  0.00    +0.382 N 
ATOM     27  C   UNL     1       6.029  -1.895   2.616  0.00  0.00    -0.078 C 
ATOM     28  C   UNL     1       5.646  -1.550   1.175  0.00  0.00    -0.015 C 
ATOM     29  H   UNL     1       5.009  -3.660   2.589  0.00  0.00    -0.081 HD
BRANCH  23  30
ATOM     30  C   UNL     1       3.830  -0.639  -0.283  0.00  0.00    +0.038 C 
BRANCH  30  34
ATOM     31  C   UNL     1       0.104   1.450  -0.305  0.00  0.00    +0.000 A 
ATOM     32  C   UNL     1       1.292   2.156  -0.274  0.00  0.00    +0.000 A 
ATOM     33  C   UNL     1       2.498   1.480  -0.266  0.00  0.00    +0.003 A 
ATOM     34  C   UNL     1       2.515   0.098  -0.290  0.00  0.00    -0.047 A 
ATOM     35  C   UNL     1       1.327  -0.608  -0.321  0.00  0.00    +0.003 A 
ATOM     36  C   UNL     1       0.122   0.068  -0.330  0.00  0.00    +0.000 A 
ENDBRANCH  30  34
ENDBRANCH  23  30
ENDBRANCH  22  26
ENDBRANCH   1  22
TORSDOF 8
