REMARK  Name = ZINC35987746
REMARK  9 active torsions:
REMARK  status: ('A' for Active; 'I' for Inactive)
REMARK    1  A    between atoms: C_1  and  C_2
REMARK    2  A    between atoms: C_5  and  C_8
REMARK    3  A    between atoms: C_11  and  C_30
REMARK    4  A    between atoms: C_21  and  C_23
REMARK    5  A    between atoms: N_32  and  C_33
REMARK    6  A    between atoms: C_33  and  C_34
REMARK    7  A    between atoms: C_34  and  N_35
REMARK    8  A    between atoms: N_35  and  C_36
REMARK    9  A    between atoms: N_35  and  C_37
REMARK                            x       y       z     vdW  Elec       q    Type
REMARK                         _______ _______ _______ _____ _____    ______ ____
ROOT
ATOM      1  C   UNL     1      -0.866  -3.529   0.232  0.00  0.00    +0.249 C 
ATOM      2  O   UNL     1      -1.167  -3.893  -0.887  0.00  0.00    -0.270 OA
ATOM      3  N   UNL     1      -0.368  -4.414   1.118  0.00  0.00    -0.255 N 
ATOM      4  C   UNL     1       0.072  -4.135   2.503  0.00  0.00    +0.190 C 
ATOM      5  C   UNL     1       1.016  -5.325   2.809  0.00  0.00    +0.194 C 
ATOM      6  O   UNL     1       0.369  -6.419   2.117  0.00  0.00    -0.353 OA
ATOM      7  C   UNL     1      -0.157  -5.854   0.906  0.00  0.00    +0.142 C 
ATOM      8  C   UNL     1       0.845  -6.065  -0.230  0.00  0.00    +0.074 C 
ATOM      9  C   UNL     1       0.298  -5.433  -1.514  0.00  0.00    +0.112 C 
ATOM     10  N   UNL     1      -1.042  -5.977  -1.775  0.00  0.00    -0.297 N 
ATOM     11  C   UNL     1      -2.057  -5.895  -0.716  0.00  0.00    +0.112 C 
ATOM     12  C   UNL     1      -1.488  -6.523   0.561  0.00  0.00    +0.074 C 
ATOM     13  C   UNL     1      -1.334  -6.541  -2.964  0.00  0.00    +0.249 C 
ATOM     14  O   UNL     1      -2.413  -7.074  -3.135  0.00  0.00    -0.270 OA
ENDROOT
BRANCH   1  19
ATOM     15  C   UNL     1      -1.568   1.977   1.752  0.00  0.00    +0.044 C 
ATOM     16  C   UNL     1      -1.384   0.535   1.354  0.00  0.00    -0.050 A 
ATOM     17  C   UNL     1      -1.325   0.193   0.015  0.00  0.00    +0.004 A 
ATOM     18  C   UNL     1      -1.156  -1.125  -0.356  0.00  0.00    +0.013 A 
ATOM     19  C   UNL     1      -1.046  -2.114   0.623  0.00  0.00    +0.037 A 
ATOM     20  C   UNL     1      -1.107  -1.762   1.972  0.00  0.00    +0.013 A 
ATOM     21  C   UNL     1      -1.270  -0.439   2.329  0.00  0.00    +0.004 A 
ENDBRANCH   1  19
BRANCH  13  22
ATOM     22  C   UNL     1      -0.343  -6.511  -4.059  0.00  0.00    +0.072 A 
ATOM     23  C   UNL     1       0.235  -5.302  -4.450  0.00  0.00    +0.016 A 
ATOM     24  C   UNL     1       1.160  -5.281  -5.472  0.00  0.00    +0.001 A 
ATOM     25  C   UNL     1       1.517  -6.456  -6.112  0.00  0.00    +0.003 A 
ATOM     26  C   UNL     1       0.950  -7.658  -5.733  0.00  0.00    +0.039 A 
ATOM     27  C   UNL     1       0.025  -7.695  -4.705  0.00  0.00    +0.135 A 
ATOM     28  F   UNL     1      -0.524  -8.871  -4.330  0.00  0.00    -0.205 F 
ENDBRANCH  13  22
BRANCH   4  29
ATOM     29  C   UNL     1       0.817  -2.827   2.574  0.00  0.00    +0.236 C 
ATOM     30  O   UNL     1       1.273  -2.333   1.565  0.00  0.00    -0.274 OA
ATOM     31  N   UNL     1       0.975  -2.205   3.760  0.00  0.00    -0.315 N 
ATOM     32  H   UNL     1       0.610  -2.600   4.567  0.00  0.00    +0.149 HD
BRANCH  31  33
ATOM     33  C   UNL     1       1.698  -0.933   3.829  0.00  0.00    +0.085 C 
BRANCH  33  34
ATOM     34  C   UNL     1       1.735  -0.445   5.278  0.00  0.00    -0.061 C 
BRANCH  34  35
ATOM     35  N   UNL     1       2.460   0.831   5.347  0.00  0.00    +0.377 N 
ATOM     36  C   UNL     1       2.393   1.359   6.716  0.00  0.00    -0.097 C 
ATOM     37  C   UNL     1       3.865   0.616   4.974  0.00  0.00    -0.097 C 
ATOM     38  H   UNL     1       2.041   1.491   4.710  0.00  0.00    -0.083 HD
ENDBRANCH  34  35
ENDBRANCH  33  34
ENDBRANCH  31  33
ENDBRANCH   4  29
TORSDOF 6
