REMARK  Name = ZINC35954288
REMARK  16 active torsions:
REMARK  status: ('A' for Active; 'I' for Inactive)
REMARK    1  A    between atoms: C_1  and  C_2
REMARK    2  A    between atoms: C_2  and  C_3
REMARK    3  A    between atoms: C_3  and  N_4
REMARK    4  A    between atoms: N_4  and  C_5
REMARK    5  A    between atoms: C_5  and  C_6
REMARK    6  A    between atoms: C_7  and  C_27
REMARK    7  A    between atoms: N_9  and  C_20
REMARK    8  A    between atoms: C_10  and  N_11
REMARK    9  A    between atoms: N_14  and  C_17
REMARK   10  A    between atoms: C_17  and  C_18
REMARK   11  A    between atoms: C_17  and  C_19
REMARK   12  A    between atoms: C_27  and  C_28
REMARK   13  A    between atoms: C_29  and  C_31
REMARK   14  A    between atoms: C_31  and  C_33
REMARK   15  A    between atoms: C_31  and  C_35
REMARK   16  A    between atoms: C_33  and  C_34
REMARK                            x       y       z     vdW  Elec       q    Type
REMARK                         _______ _______ _______ _____ _____    ______ ____
ROOT
ATOM      1  C   UNL     1      -3.615  -2.303   1.972  0.00  0.00    +0.033 A 
ATOM      2  C   UNL     1      -3.763  -0.988   2.423  0.00  0.00    +0.070 A 
ATOM      3  N   UNL     1      -4.994  -0.826   2.836  0.00  0.00    -0.169 NA
ATOM      4  N   UNL     1      -5.681  -2.035   2.664  0.00  0.00    -0.218 N 
ATOM      5  C   UNL     1      -4.813  -2.933   2.123  0.00  0.00    +0.130 A 
ENDROOT
BRANCH   5   6
ATOM      6  N   UNL     1      -5.096  -4.254   1.790  0.00  0.00    -0.318 N 
ATOM      7  C   UNL     1      -5.448  -4.628   0.411  0.00  0.00    +0.088 C 
ATOM      8  C   UNL     1      -4.568  -5.809  -0.011  0.00  0.00    -0.059 C 
ATOM      9  N   UNL     1      -4.708  -6.896   0.965  0.00  0.00    +0.383 N 
ATOM     10  C   UNL     1      -4.191  -6.466   2.271  0.00  0.00    -0.059 C 
ATOM     11  C   UNL     1      -5.047  -5.318   2.805  0.00  0.00    +0.088 C 
ATOM     12  H   UNL     1      -5.683  -7.142   1.056  0.00  0.00    -0.081 HD
BRANCH   9  13
ATOM     13  C   UNL     1      -3.952  -8.068   0.503  0.00  0.00    -0.075 C 
ATOM     14  C   UNL     1      -4.097  -9.202   1.520  0.00  0.00    -0.014 C 
ATOM     15  C   UNL     1      -4.497  -8.524  -0.852  0.00  0.00    -0.014 C 
ENDBRANCH   9  13
ENDBRANCH   5   6
BRANCH   4  16
ATOM     16  C   UNL     1      -7.025  -2.275   2.985  0.00  0.00    +0.068 A 
ATOM     17  C   UNL     1      -7.830  -2.997   2.114  0.00  0.00    +0.030 A 
ATOM     18  C   UNL     1      -9.153  -3.232   2.433  0.00  0.00    +0.040 A 
ATOM     19  C   UNL     1      -9.677  -2.748   3.619  0.00  0.00    +0.124 A 
ATOM     20  C   UNL     1      -8.876  -2.027   4.489  0.00  0.00    +0.040 A 
ATOM     21  C   UNL     1      -7.551  -1.795   4.177  0.00  0.00    +0.030 A 
ATOM     22  F   UNL     1     -10.972  -2.979   3.929  0.00  0.00    -0.205 F 
ENDBRANCH   4  16
BRANCH   2  23
ATOM     23  C   UNL     1      -2.685   0.066   2.433  0.00  0.00    +0.054 C 
ATOM     24  C   UNL     1      -2.877   1.003   1.239  0.00  0.00    +0.010 C 
ENDBRANCH   2  23
BRANCH   1  25
ATOM     25  C   UNL     1      -2.356  -2.912   1.412  0.00  0.00    +0.148 C 
BRANCH  25  26
ATOM     26  N   UNL     1      -1.384  -1.853   1.131  0.00  0.00    -0.296 N 
ATOM     27  C   UNL     1      -1.458  -1.159  -0.022  0.00  0.00    +0.223 C 
ATOM     28  O   UNL     1      -0.760  -0.180  -0.186  0.00  0.00    -0.275 OA
BRANCH  26  29
ATOM     29  C   UNL     1      -0.331  -1.549   2.103  0.00  0.00    +0.108 C 
BRANCH  29  31
ATOM     30  C   UNL     1       2.025  -2.042   2.771  0.00  0.00    +0.005 C 
ATOM     31  C   UNL     1       0.882  -2.444   1.837  0.00  0.00    +0.016 C 
ENDBRANCH  29  31
ENDBRANCH  26  29
BRANCH  27  32
ATOM     32  C   UNL     1      -2.408  -1.598  -1.107  0.00  0.00    +0.105 C 
BRANCH  32  33
ATOM     33  C   UNL     1      -1.994  -0.981  -2.417  0.00  0.00    -0.036 A 
ATOM     34  C   UNL     1      -2.065   0.389  -2.589  0.00  0.00    +0.004 A 
ATOM     35  C   UNL     1      -1.685   0.955  -3.792  0.00  0.00    +0.000 A 
ATOM     36  C   UNL     1      -1.233   0.152  -4.822  0.00  0.00    +0.000 A 
ATOM     37  C   UNL     1      -1.161  -1.218  -4.650  0.00  0.00    +0.000 A 
ATOM     38  C   UNL     1      -1.537  -1.784  -3.446  0.00  0.00    +0.004 A 
ENDBRANCH  32  33
BRANCH  32  39
ATOM     39  C   UNL     1      -3.827  -1.146  -0.756  0.00  0.00    +0.014 C 
ATOM     40  C   UNL     1      -4.804  -1.669  -1.810  0.00  0.00    +0.005 C 
ENDBRANCH  32  39
ENDBRANCH  27  32
ENDBRANCH  25  26
ENDBRANCH   1  25
TORSDOF 11
