REMARK  Name = ZINC58848485
REMARK  10 active torsions:
REMARK  status: ('A' for Active; 'I' for Inactive)
REMARK    1  A    between atoms: C_1  and  O_2
REMARK    2  A    between atoms: O_2  and  C_3
REMARK    3  A    between atoms: C_6  and  N_9
REMARK    4  A    between atoms: N_9  and  S_10
REMARK    5  A    between atoms: S_10  and  C_13
REMARK    6  A    between atoms: C_26  and  C_29
REMARK    7  A    between atoms: C_32  and  O_37
REMARK    8  A    between atoms: C_34  and  O_35
REMARK    9  A    between atoms: O_35  and  C_36
REMARK   10  A    between atoms: O_37  and  C_38
REMARK                            x       y       z     vdW  Elec       q    Type
REMARK                         _______ _______ _______ _____ _____    ______ ____
ROOT
ATOM      1  C   UNL     1      -4.611  -5.317   0.113  0.00  0.00    +0.109 A 
ATOM      2  C   UNL     1      -3.348  -5.177  -0.433  0.00  0.00    +0.030 A 
ATOM      3  C   UNL     1      -2.357  -6.079  -0.105  0.00  0.00    +0.025 A 
ATOM      4  C   UNL     1      -2.626  -7.125   0.772  0.00  0.00    +0.031 A 
ATOM      5  C   UNL     1      -3.888  -7.259   1.330  0.00  0.00    -0.018 A 
ATOM      6  C   UNL     1      -4.878  -6.347   0.991  0.00  0.00    +0.034 A 
ATOM      7  C   UNL     1      -4.203  -8.343   2.304  0.00  0.00    +0.049 C 
ATOM      8  C   UNL     1      -5.008  -9.453   1.678  0.00  0.00    -0.023 C 
ATOM      9  C   UNL     1      -4.650 -10.609   2.178  0.00  0.00    -0.030 C 
ATOM     10  C   UNL     1      -3.551 -10.438   3.204  0.00  0.00    +0.033 C 
ATOM     11  C   UNL     1      -2.979  -9.034   2.902  0.00  0.00    +0.029 C 
ATOM     12  C   UNL     1      -1.831  -9.191   1.927  0.00  0.00    +0.108 C 
ATOM     13  N   UNL     1      -1.622  -8.037   1.078  0.00  0.00    -0.336 N 
ATOM     14  H   UNL     1      -0.745  -7.905   0.684  0.00  0.00    +0.147 HD
ENDROOT
BRANCH  12  15
ATOM     15  C   UNL     1      -2.090 -10.407   1.074  0.00  0.00    +0.015 A 
ATOM     16  C   UNL     1      -1.535 -11.624   1.420  0.00  0.00    +0.012 A 
ATOM     17  C   UNL     1      -1.771 -12.740   0.641  0.00  0.00    +0.046 A 
ATOM     18  C   UNL     1      -2.566 -12.641  -0.492  0.00  0.00    +0.124 A 
ATOM     19  C   UNL     1      -3.124 -11.421  -0.841  0.00  0.00    +0.091 A 
ATOM     20  C   UNL     1      -2.891 -10.304  -0.054  0.00  0.00    +0.128 A 
BRANCH  20  21
ATOM     21  O   UNL     1      -3.441  -9.108  -0.391  0.00  0.00    -0.495 OA
ATOM     22  C   UNL     1      -4.255  -9.076  -1.565  0.00  0.00    +0.277 C 
ENDBRANCH  20  21
BRANCH  18  23
ATOM     23  O   UNL     1      -2.798 -13.739  -1.258  0.00  0.00    -0.495 OA
ATOM     24  C   UNL     1      -2.191 -14.963  -0.839  0.00  0.00    +0.277 C 
ENDBRANCH  18  23
ENDBRANCH  12  15
BRANCH   1  25
ATOM     25  S   UNL     1      -5.882  -4.172  -0.310  0.00  0.00    +0.072 S 
ATOM     26  O   UNL     1      -7.116  -4.793   0.026  0.00  0.00    -0.150 OA
ATOM     27  O   UNL     1      -5.593  -3.711  -1.622  0.00  0.00    -0.150 OA
BRANCH  25  28
ATOM     28  N   UNL     1      -5.720  -2.867   0.697  0.00  0.00    -0.216 N 
ATOM     29  H   UNL     1      -5.543  -1.988   0.327  0.00  0.00    +0.174 HD
BRANCH  28  33
ATOM     30  C   UNL     1      -6.074  -3.359   4.821  0.00  0.00    +0.120 A 
ATOM     31  C   UNL     1      -5.029  -2.610   4.299  0.00  0.00    +0.047 A 
ATOM     32  C   UNL     1      -4.911  -2.446   2.933  0.00  0.00    +0.028 A 
ATOM     33  C   UNL     1      -5.839  -3.033   2.082  0.00  0.00    +0.048 A 
ATOM     34  C   UNL     1      -6.884  -3.782   2.605  0.00  0.00    +0.028 A 
ATOM     35  C   UNL     1      -6.997  -3.949   3.971  0.00  0.00    +0.047 A 
BRANCH  30  37
ATOM     36  C   UNL     1      -5.203  -2.884   6.983  0.00  0.00    +0.277 C 
ATOM     37  O   UNL     1      -6.189  -3.519   6.167  0.00  0.00    -0.495 OA
ENDBRANCH  30  37
ENDBRANCH  28  33
ENDBRANCH  25  28
ENDBRANCH   1  25
TORSDOF 7
