REMARK  Name = ZINC24216491
REMARK  11 active torsions:
REMARK  status: ('A' for Active; 'I' for Inactive)
REMARK    1  A    between atoms: C_1  and  C_2
REMARK    2  A    between atoms: C_2  and  N_3
REMARK    3  A    between atoms: N_3  and  C_4
REMARK    4  A    between atoms: N_3  and  C_11
REMARK    5  A    between atoms: C_4  and  C_5
REMARK    6  A    between atoms: C_11  and  C_12
REMARK    7  A    between atoms: N_14  and  C_15
REMARK    8  A    between atoms: C_17  and  C_20
REMARK    9  A    between atoms: C_20  and  C_21
REMARK   10  A    between atoms: C_20  and  C_22
REMARK   11  A    between atoms: C_20  and  C_23
REMARK                            x       y       z     vdW  Elec       q    Type
REMARK                         _______ _______ _______ _____ _____    ______ ____
ROOT
ATOM      1  C   UNL     1       3.412  -1.737  -1.014  0.00  0.00    +0.203 C 
ATOM      2  O   UNL     1       4.143  -0.775  -0.910  0.00  0.00    -0.277 OA
ATOM      3  N   UNL     1       2.142  -1.575  -1.438  0.00  0.00    -0.256 N 
ATOM      4  H   UNL     1       1.479  -2.448  -1.532  0.00  0.00    +0.158 HD
ENDROOT
BRANCH   3   5
ATOM      5  C   UNL     1       1.672  -0.309  -1.754  0.00  0.00    +0.224 A 
ATOM      6  C   UNL     1       0.421   0.014  -2.194  0.00  0.00    +0.092 A 
ATOM      7  C   UNL     1       0.472   1.413  -2.364  0.00  0.00    +0.091 A 
ATOM      8  N   UNL     1       1.677   1.783  -2.032  0.00  0.00    -0.081 NA
ATOM      9  O   UNL     1       2.358   0.844  -1.692  0.00  0.00    -0.339 OA
BRANCH   7  10
ATOM     10  C   UNL     1      -0.645   2.304  -2.842  0.00  0.00    +0.008 C 
ATOM     11  C   UNL     1      -1.670   2.484  -1.720  0.00  0.00    +0.017 C 
ATOM     12  C   UNL     1      -0.076   3.668  -3.237  0.00  0.00    +0.017 C 
ATOM     13  C   UNL     1      -1.324   1.664  -4.055  0.00  0.00    +0.017 C 
ENDBRANCH   7  10
ENDBRANCH   3   5
BRANCH   1  14
ATOM     14  C   UNL     1       3.922  -3.112  -0.670  0.00  0.00    +0.019 C 
BRANCH  14  15
ATOM     15  N   UNL     1       5.323  -3.021  -0.239  0.00  0.00    +0.388 N 
ATOM     16  H   UNL     1       5.878  -2.465  -1.008  0.00  0.00    -0.081 HD
BRANCH  15  18
ATOM     17  C   UNL     1       4.650  -3.006   2.116  0.00  0.00    -0.017 C 
ATOM     18  C   UNL     1       5.438  -2.279   1.024  0.00  0.00    -0.081 C 
ENDBRANCH  15  18
BRANCH  15  19
ATOM     19  C   UNL     1       5.926  -4.355  -0.122  0.00  0.00    -0.035 C 
BRANCH  19  20
ATOM     20  C   UNL     1       7.426  -4.225  -0.065  0.00  0.00    -0.026 A 
ATOM     21  C   UNL     1       8.235  -4.141   1.019  0.00  0.00    +0.010 A 
ATOM     22  C   UNL     1       9.600  -4.026   0.831  0.00  0.00    +0.023 A 
ATOM     23  C   UNL     1      10.089  -4.001  -0.434  0.00  0.00    +0.055 A 
ATOM     24  S   UNL     1       8.600  -4.151  -1.408  0.00  0.00    -0.088 S 
ATOM     25 BR   UNL     1      11.882  -3.855  -1.015  0.00  0.00    -0.043 Br
ENDBRANCH  19  20
ENDBRANCH  15  19
ENDBRANCH  14  15
ENDBRANCH   1  14
TORSDOF 7
