REMARK  Name = ZINC19526388
REMARK  10 active torsions:
REMARK  status: ('A' for Active; 'I' for Inactive)
REMARK    1  A    between atoms: C_1  and  C_2
REMARK    2  A    between atoms: C_2  and  N_3
REMARK    3  A    between atoms: N_3  and  C_4
REMARK    4  A    between atoms: N_3  and  C_6
REMARK    5  A    between atoms: C_4  and  C_5
REMARK    6  A    between atoms: C_6  and  C_7
REMARK    7  A    between atoms: C_7  and  N_8
REMARK    8  A    between atoms: C_18  and  C_34
REMARK    9  A    between atoms: C_26  and  C_28
REMARK   10  A    between atoms: C_31  and  C_33
REMARK                            x       y       z     vdW  Elec       q    Type
REMARK                         _______ _______ _______ _____ _____    ______ ____
ROOT
ATOM      1  N   UNL     1      -5.120  -0.711   5.343  0.00  0.00    -0.272 N 
ATOM      2  C   UNL     1      -3.948  -0.198   5.890  0.00  0.00    +0.048 A 
ATOM      3  C   UNL     1      -2.730  -0.828   5.683  0.00  0.00    +0.024 A 
ATOM      4  C   UNL     1      -1.591  -0.337   6.289  0.00  0.00    +0.002 A 
ATOM      5  C   UNL     1      -1.656   0.790   7.093  0.00  0.00    +0.001 A 
ATOM      6  C   UNL     1      -2.855   1.442   7.285  0.00  0.00    +0.015 A 
ATOM      7  C   UNL     1      -4.018   0.956   6.680  0.00  0.00    +0.058 A 
ATOM      8  C   UNL     1      -5.294   1.660   6.854  0.00  0.00    +0.246 C 
ATOM      9  O   UNL     1      -5.700   1.927   7.968  0.00  0.00    -0.270 OA
ATOM     10  N   UNL     1      -6.008   2.099   5.805  0.00  0.00    -0.304 N 
ATOM     11  C   UNL     1      -5.464   2.365   4.487  0.00  0.00    +0.060 C 
ATOM     12  C   UNL     1      -4.041   2.940   4.601  0.00  0.00    +0.134 C 
ATOM     13  N   UNL     1      -3.116   2.061   3.870  0.00  0.00    -0.298 N 
ATOM     14  C   UNL     1      -3.885   1.011   3.180  0.00  0.00    +0.122 C 
ATOM     15  C   UNL     1      -5.349   1.114   3.617  0.00  0.00    +0.117 C 
ATOM     16  C   UNL     1      -5.777  -0.125   4.340  0.00  0.00    +0.226 C 
ATOM     17  O   UNL     1      -6.825  -0.644   3.978  0.00  0.00    -0.275 OA
ATOM     18  C   UNL     1      -1.761   2.202   3.826  0.00  0.00    +0.219 C 
ATOM     19  O   UNL     1      -1.227   3.113   4.422  0.00  0.00    -0.275 OA
ATOM     20  C   UNL     1      -6.364   3.387   3.775  0.00  0.00    +0.034 C 
ATOM     21  H   UNL     1      -7.080   2.255   6.000  0.00  0.00    +0.150 HD
ENDROOT
BRANCH  18  22
ATOM     22  C   UNL     1      -0.927   1.227   3.036  0.00  0.00    +0.078 C 
ATOM     23  C   UNL     1      -0.015   0.280   3.820  0.00  0.00    +0.017 C 
ATOM     24  C   UNL     1       0.588   1.440   3.026  0.00  0.00    -0.002 C 
ATOM     25  C   UNL     1       1.341   1.098   1.738  0.00  0.00    +0.008 C 
ENDBRANCH  18  22
BRANCH   1  26
ATOM     26  C   UNL     1      -5.659  -1.964   5.902  0.00  0.00    +0.095 C 
BRANCH  26  27
ATOM     27  C   UNL     1      -5.071  -3.156   5.144  0.00  0.00    -0.059 C 
BRANCH  27  28
ATOM     28  N   UNL     1      -5.608  -4.404   5.701  0.00  0.00    +0.380 N 
ATOM     29  H   UNL     1      -5.452  -4.383   6.790  0.00  0.00    -0.082 HD
BRANCH  28  31
ATOM     30  C   UNL     1      -7.313  -4.525   3.947  0.00  0.00    -0.017 C 
ATOM     31  C   UNL     1      -7.052  -4.512   5.455  0.00  0.00    -0.082 C 
ENDBRANCH  28  31
BRANCH  28  32
ATOM     32  C   UNL     1      -4.894  -5.570   5.165  0.00  0.00    -0.082 C 
ATOM     33  C   UNL     1      -5.195  -6.795   6.032  0.00  0.00    -0.017 C 
ENDBRANCH  28  32
ENDBRANCH  27  28
ENDBRANCH  26  27
ENDBRANCH   1  26
TORSDOF 6
