REMARK  Name = ZINC08695964
REMARK  9 active torsions:
REMARK  status: ('A' for Active; 'I' for Inactive)
REMARK    1  A    between atoms: C_4  and  C_7
REMARK    2  A    between atoms: N_10  and  C_14
REMARK    3  A    between atoms: C_14  and  C_15
REMARK    4  A    between atoms: N_17  and  C_18
REMARK    5  A    between atoms: N_17  and  C_24
REMARK    6  A    between atoms: C_18  and  C_19
REMARK    7  A    between atoms: C_24  and  C_30
REMARK    8  A    between atoms: N_32  and  C_33
REMARK    9  A    between atoms: C_36  and  N_39
REMARK                            x       y       z     vdW  Elec       q    Type
REMARK                         _______ _______ _______ _____ _____    ______ ____
ROOT
ATOM      1  C   UNL     1      -3.920   1.894   2.156  0.00  0.00    +0.234 C 
ATOM      2  O   UNL     1      -3.990   1.120   3.087  0.00  0.00    -0.274 OA
ATOM      3  N   UNL     1      -5.016   2.568   1.754  0.00  0.00    -0.279 N 
ENDROOT
BRANCH   3   4
ATOM      4  C   UNL     1      -6.325   2.245   2.329  0.00  0.00    +0.116 C 
ATOM      5  C   UNL     1      -6.312   2.567   3.820  0.00  0.00    +0.046 C 
ATOM      6  C   UNL     1      -5.069   1.958   4.475  0.00  0.00    +0.071 C 
ATOM      7  S   UNL     1      -5.147   0.150   4.303  0.00  0.00    -0.161 S 
ATOM      8  C   UNL     1      -5.423  -0.082   2.521  0.00  0.00    +0.071 C 
ATOM      9  C   UNL     1      -6.625   0.767   2.096  0.00  0.00    +0.046 C 
BRANCH   4  10
ATOM     10  C   UNL     1      -7.382   3.078   1.651  0.00  0.00    +0.241 C 
ATOM     11  O   UNL     1      -8.307   2.538   1.081  0.00  0.00    -0.273 OA
ATOM     12  N   UNL     1      -7.300   4.423   1.678  0.00  0.00    -0.284 N 
ATOM     13  H   UNL     1      -6.522   4.854   2.065  0.00  0.00    +0.155 HD
BRANCH  12  14
ATOM     14  C   UNL     1      -8.339   5.199   1.146  0.00  0.00    +0.034 A 
ATOM     15  C   UNL     1      -9.541   4.601   0.792  0.00  0.00    +0.025 A 
ATOM     16  C   UNL     1     -10.566   5.366   0.273  0.00  0.00    +0.025 A 
ATOM     17  C   UNL     1     -10.392   6.733   0.096  0.00  0.00    +0.030 A 
ATOM     18  C   UNL     1      -9.188   7.330   0.446  0.00  0.00    +0.025 A 
ATOM     19  C   UNL     1      -8.164   6.566   0.970  0.00  0.00    +0.025 A 
BRANCH  17  20
ATOM     20  N   UNL     1     -11.429   7.508  -0.435  0.00  0.00    -0.326 N 
ATOM     21  C   UNL     1     -11.783   8.607   0.474  0.00  0.00    +0.133 C 
ATOM     22  C   UNL     1     -12.877   9.463  -0.171  0.00  0.00    +0.178 C 
ATOM     23  O   UNL     1     -14.001   8.634  -0.483  0.00  0.00    -0.377 OA
ATOM     24  C   UNL     1     -13.691   7.553  -1.366  0.00  0.00    +0.178 C 
ATOM     25  C   UNL     1     -12.606   6.679  -0.734  0.00  0.00    +0.133 C 
ENDBRANCH  17  20
ENDBRANCH  12  14
ENDBRANCH   4  10
ENDBRANCH   3   4
BRANCH   1  26
ATOM     26  C   UNL     1      -2.606   2.103   1.448  0.00  0.00    +0.202 C 
BRANCH  26  29
ATOM     27  C   UNL     1       0.167   0.422   3.435  0.00  0.00    +0.119 C 
ATOM     28  C   UNL     1      -0.709   1.666   3.188  0.00  0.00    +0.134 C 
ATOM     29  N   UNL     1      -1.578   1.263   2.068  0.00  0.00    -0.302 N 
ATOM     30  C   UNL     1      -1.278   0.009   1.706  0.00  0.00    +0.134 C 
ATOM     31  S   UNL     1      -2.076  -0.811   0.432  0.00  0.00    -0.019 S 
ATOM     32  N   UNL     1      -0.297  -0.545   2.430  0.00  0.00    -0.318 N 
ATOM     33  H   UNL     1       0.052  -1.442   2.311  0.00  0.00    +0.148 HD
BRANCH  27  37
ATOM     34  C   UNL     1      -0.462  -1.094   7.379  0.00  0.00    +0.000 A 
ATOM     35  C   UNL     1       0.665  -0.344   7.098  0.00  0.00    +0.000 A 
ATOM     36  C   UNL     1       0.869   0.146   5.822  0.00  0.00    +0.005 A 
ATOM     37  C   UNL     1      -0.055  -0.113   4.827  0.00  0.00    -0.026 A 
ATOM     38  C   UNL     1      -1.184  -0.858   5.109  0.00  0.00    +0.005 A 
ATOM     39  C   UNL     1      -1.385  -1.353   6.383  0.00  0.00    +0.000 A 
ENDBRANCH  27  37
ENDBRANCH  26  29
ENDBRANCH   1  26
BRANCH   3  40
ATOM     40  C   UNL     1      -4.899   3.622   0.744  0.00  0.00    +0.183 C 
BRANCH  40  41
ATOM     41  C   UNL     1      -4.895   3.003  -0.630  0.00  0.00    +0.122 A 
ATOM     42  C   UNL     1      -5.983   2.699  -1.359  0.00  0.00    +0.046 A 
ATOM     43  C   UNL     1      -5.521   2.144  -2.574  0.00  0.00    +0.041 A 
ATOM     44  C   UNL     1      -4.177   2.134  -2.511  0.00  0.00    +0.195 A 
ATOM     45  O   UNL     1      -3.803   2.656  -1.331  0.00  0.00    -0.466 OA
ENDBRANCH  40  41
ENDBRANCH   3  40
TORSDOF 9
