REMARK  Name = ZINC35887073
REMARK  10 active torsions:
REMARK  status: ('A' for Active; 'I' for Inactive)
REMARK    1  A    between atoms: C_1  and  C_2
REMARK    2  A    between atoms: C_2  and  C_3
REMARK    3  A    between atoms: N_7  and  C_27
REMARK    4  A    between atoms: C_11  and  N_16
REMARK    5  A    between atoms: N_16  and  S_17
REMARK    6  A    between atoms: S_17  and  C_20
REMARK    7  A    between atoms: C_27  and  C_28
REMARK    8  A    between atoms: C_28  and  C_29
REMARK    9  A    between atoms: C_34  and  O_35
REMARK   10  A    between atoms: O_35  and  C_36
REMARK                            x       y       z     vdW  Elec       q    Type
REMARK                         _______ _______ _______ _____ _____    ______ ____
ROOT
ATOM      1  C   UNL     1       0.671  -0.340   1.145  0.00  0.00    +0.258 C 
ATOM      2  C   UNL     1       0.811  -1.822   0.983  0.00  0.00    +0.257 C 
ATOM      3  O   UNL     1       1.921  -2.170   0.638  0.00  0.00    -0.272 OA
ATOM      4  N   UNL     1       0.001  -2.789   1.134  0.00  0.00    -0.294 N 
ATOM      5  C   UNL     1      -1.285  -2.893   1.738  0.00  0.00    +0.146 C 
ATOM      6  C   UNL     1      -1.871  -1.690   2.412  0.00  0.00    +0.013 A 
ATOM      7  C   UNL     1      -3.167  -1.917   2.902  0.00  0.00    +0.033 A 
ATOM      8  C   UNL     1      -3.894  -0.911   3.506  0.00  0.00    +0.049 A 
ATOM      9  C   UNL     1      -3.325   0.352   3.618  0.00  0.00    +0.028 A 
ATOM     10  C   UNL     1      -2.053   0.557   3.154  0.00  0.00    +0.048 A 
ATOM     11  C   UNL     1      -1.293  -0.484   2.567  0.00  0.00    +0.126 A 
ATOM     12  O   UNL     1      -0.024  -0.034   2.337  0.00  0.00    -0.479 OA
ENDROOT
BRANCH   1  14
ATOM     13  C   UNL     1      -0.126   1.755   0.040  0.00  0.00    +0.008 C 
ATOM     14  C   UNL     1      -0.099   0.228  -0.049  0.00  0.00    +0.051 C 
ENDBRANCH   1  14
BRANCH   8  15
ATOM     15  N   UNL     1      -5.181  -1.159   3.997  0.00  0.00    -0.216 N 
ATOM     16  H   UNL     1      -5.822  -1.645   3.455  0.00  0.00    +0.174 HD
BRANCH  15  17
ATOM     17  S   UNL     1      -5.610  -0.621   5.503  0.00  0.00    +0.072 S 
ATOM     18  O   UNL     1      -5.291   0.763   5.546  0.00  0.00    -0.150 OA
ATOM     19  O   UNL     1      -6.922  -1.108   5.750  0.00  0.00    -0.150 OA
BRANCH  17  20
ATOM     20  C   UNL     1      -4.550  -1.418   6.663  0.00  0.00    +0.109 A 
ATOM     21  C   UNL     1      -4.864  -2.681   7.130  0.00  0.00    +0.031 A 
ATOM     22  C   UNL     1      -4.033  -3.308   8.040  0.00  0.00    +0.040 A 
ATOM     23  C   UNL     1      -2.886  -2.671   8.483  0.00  0.00    +0.124 A 
ATOM     24  C   UNL     1      -2.573  -1.406   8.014  0.00  0.00    +0.040 A 
ATOM     25  C   UNL     1      -3.403  -0.783   7.101  0.00  0.00    +0.031 A 
ATOM     26  F   UNL     1      -2.074  -3.282   9.372  0.00  0.00    -0.205 F 
ENDBRANCH  17  20
ENDBRANCH  15  17
ENDBRANCH   8  15
BRANCH   4  27
ATOM     27  C   UNL     1       0.486  -4.052   0.573  0.00  0.00    +0.113 C 
BRANCH  27  28
ATOM     28  C   UNL     1       1.275  -4.814   1.640  0.00  0.00    +0.058 C 
BRANCH  28  29
ATOM     29  C   UNL     1       1.775  -6.113   1.063  0.00  0.00    -0.004 A 
ATOM     30  C   UNL     1       1.045  -7.274   1.238  0.00  0.00    +0.007 A 
ATOM     31  C   UNL     1       1.503  -8.466   0.709  0.00  0.00    +0.000 A 
ATOM     32  C   UNL     1       2.692  -8.501   0.004  0.00  0.00    +0.004 A 
ATOM     33  C   UNL     1       3.425  -7.344  -0.174  0.00  0.00    +0.046 A 
ATOM     34  C   UNL     1       2.965  -6.145   0.351  0.00  0.00    +0.123 A 
BRANCH  34  35
ATOM     35  O   UNL     1       3.681  -5.004   0.172  0.00  0.00    -0.495 OA
ATOM     36  C   UNL     1       4.897  -5.111  -0.571  0.00  0.00    +0.277 C 
ENDBRANCH  34  35
ENDBRANCH  28  29
ENDBRANCH  27  28
ENDBRANCH   4  27
TORSDOF 8
