REMARK  Name = ZINC20532303
REMARK  8 active torsions:
REMARK  status: ('A' for Active; 'I' for Inactive)
REMARK    1  A    between atoms: C_1  and  C_2
REMARK    2  A    between atoms: C_5  and  C_7
REMARK    3  A    between atoms: C_7  and  N_8
REMARK    4  A    between atoms: N_8  and  C_9
REMARK    5  A    between atoms: N_12  and  C_15
REMARK    6  A    between atoms: C_15  and  C_16
REMARK    7  A    between atoms: N_24  and  C_25
REMARK    8  A    between atoms: C_29  and  C_31
REMARK                            x       y       z     vdW  Elec       q    Type
REMARK                         _______ _______ _______ _____ _____    ______ ____
ROOT
ATOM      1  N   UNL     1      -1.956   4.922   1.389  0.00  0.00    -0.275 N 
ATOM      2  C   UNL     1      -3.039   4.425   2.017  0.00  0.00    +0.307 C 
ATOM      3  O   UNL     1      -3.361   4.856   3.108  0.00  0.00    -0.252 OA
ATOM      4  N   UNL     1      -3.767   3.450   1.437  0.00  0.00    -0.269 N 
ATOM      5  H   UNL     1      -3.530   3.121   0.414  0.00  0.00    +0.156 HD
ENDROOT
BRANCH   4   6
ATOM      6  C   UNL     1      -4.825   2.856   2.135  0.00  0.00    +0.035 A 
ATOM      7  C   UNL     1      -4.748   2.699   3.513  0.00  0.00    +0.024 A 
ATOM      8  C   UNL     1      -5.796   2.118   4.199  0.00  0.00    +0.017 A 
ATOM      9  C   UNL     1      -6.917   1.683   3.515  0.00  0.00    +0.021 A 
ATOM     10  C   UNL     1      -6.994   1.834   2.142  0.00  0.00    -0.035 A 
ATOM     11  C   UNL     1      -5.952   2.419   1.451  0.00  0.00    +0.027 A 
ATOM     12  C   UNL     1      -8.217   1.359   1.400  0.00  0.00    +0.045 C 
ATOM     13 BR   UNL     1      -8.347   0.881   4.458  0.00  0.00    -0.050 Br
ENDBRANCH   4   6
BRANCH   1  14
ATOM     14  C   UNL     1      -1.165   5.981   2.020  0.00  0.00    +0.075 C 
ATOM     15  C   UNL     1      -0.624   5.485   3.364  0.00  0.00    +0.004 C 
ATOM     16  C   UNL     1       0.150   6.615   4.046  0.00  0.00    -0.077 C 
ATOM     17  N   UNL     1      -0.740   7.765   4.250  0.00  0.00    +0.382 N 
ATOM     18  C   UNL     1      -1.234   8.289   2.971  0.00  0.00    -0.077 C 
ATOM     19  C   UNL     1      -2.050   7.208   2.257  0.00  0.00    +0.004 C 
ATOM     20  H   UNL     1      -1.609   7.418   4.828  0.00  0.00    -0.081 HD
BRANCH  17  21
ATOM     21  C   UNL     1      -0.070   8.818   5.027  0.00  0.00    -0.043 C 
BRANCH  21  22
ATOM     22  C   UNL     1       0.203   8.316   6.421  0.00  0.00    -0.064 A 
ATOM     23  C   UNL     1      -0.733   8.505   7.420  0.00  0.00    +0.002 A 
ATOM     24  C   UNL     1      -0.485   8.041   8.698  0.00  0.00    +0.000 A 
ATOM     25  C   UNL     1       0.706   7.397   8.979  0.00  0.00    +0.000 A 
ATOM     26  C   UNL     1       1.645   7.213   7.982  0.00  0.00    +0.000 A 
ATOM     27  C   UNL     1       1.394   7.672   6.703  0.00  0.00    +0.002 A 
ENDBRANCH  21  22
ENDBRANCH  17  21
ENDBRANCH   1  14
BRANCH   1  28
ATOM     28  C   UNL     1      -1.569   4.403   0.075  0.00  0.00    +0.183 C 
BRANCH  28  33
ATOM     29  C   UNL     1       2.699   1.766   0.597  0.00  0.00    +0.086 C 
ATOM     30  C   UNL     1       1.233   2.097   0.478  0.00  0.00    +0.102 A 
ATOM     31  C   UNL     1       0.221   1.211   0.512  0.00  0.00    +0.045 A 
ATOM     32  C   UNL     1      -0.975   1.950   0.359  0.00  0.00    +0.046 A 
ATOM     33  C   UNL     1      -0.622   3.244   0.251  0.00  0.00    +0.122 A 
ATOM     34  O   UNL     1       0.716   3.326   0.320  0.00  0.00    -0.463 OA
ENDBRANCH  28  33
ENDBRANCH   1  28
TORSDOF 6
