REMARK  Name = ZINC36319059
REMARK  6 active torsions:
REMARK  status: ('A' for Active; 'I' for Inactive)
REMARK    1  A    between atoms: C_1  and  C_2
REMARK    2  A    between atoms: C_4  and  C_39
REMARK    3  A    between atoms: C_9  and  C_28
REMARK    4  A    between atoms: C_11  and  C_19
REMARK    5  A    between atoms: C_23  and  N_25
REMARK    6  A    between atoms: C_28  and  C_30
REMARK                            x       y       z     vdW  Elec       q    Type
REMARK                         _______ _______ _______ _____ _____    ______ ____
ROOT
ATOM      1  C   UNL     1       0.388   1.730   0.290  0.00  0.00    +0.044 C 
ATOM      2  C   UNL     1       0.097   0.260   0.129  0.00  0.00    -0.050 A 
ATOM      3  C   UNL     1      -0.158  -0.262  -1.127  0.00  0.00    +0.008 A 
ATOM      4  C   UNL     1      -0.424  -1.607  -1.280  0.00  0.00    -0.029 A 
ATOM      5  C   UNL     1      -0.439  -2.450  -0.171  0.00  0.00    +0.042 A 
ATOM      6  C   UNL     1      -0.181  -1.913   1.087  0.00  0.00    +0.004 A 
ATOM      7  C   UNL     1       0.090  -0.571   1.234  0.00  0.00    +0.011 A 
ATOM      8  C   UNL     1      -0.269  -3.063   2.049  0.00  0.00    +0.137 C 
ATOM      9  C   UNL     1      -1.357  -2.821   3.111  0.00  0.00    +0.103 C 
ATOM     10  C   UNL     1      -0.576  -2.003   4.176  0.00  0.00    +0.050 C 
ATOM     11  C   UNL     1       0.848  -2.594   4.096  0.00  0.00    +0.077 C 
ATOM     12  N   UNL     1       0.984  -3.253   2.794  0.00  0.00    -0.271 NA
ATOM     13  C   UNL     1       1.333  -4.695   2.826  0.00  0.00    +0.155 C 
ATOM     14  S   UNL     1       2.076  -4.856   4.509  0.00  0.00    -0.144 S 
ATOM     15  C   UNL     1       1.068  -3.539   5.299  0.00  0.00    +0.090 C 
ATOM     16  C   UNL     1      -0.598  -4.260   1.200  0.00  0.00    +0.243 C 
ATOM     17  O   UNL     1      -0.760  -5.399   1.585  0.00  0.00    -0.273 OA
ATOM     18  N   UNL     1      -0.678  -3.822  -0.072  0.00  0.00    -0.283 N 
ATOM     19  C   UNL     1      -0.701  -2.166  -2.652  0.00  0.00    +0.045 C 
ATOM     20  H   UNL     1      -0.880  -4.393  -0.830  0.00  0.00    +0.155 HD
ENDROOT
BRANCH  10  21
ATOM     21  C   UNL     1      -1.166  -2.211   5.546  0.00  0.00    -0.040 A 
ATOM     22  C   UNL     1      -1.479  -3.487   5.978  0.00  0.00    +0.004 A 
ATOM     23  C   UNL     1      -2.021  -3.678   7.235  0.00  0.00    +0.002 A 
ATOM     24  C   UNL     1      -2.249  -2.593   8.061  0.00  0.00    +0.033 A 
ATOM     25  C   UNL     1      -1.935  -1.318   7.630  0.00  0.00    +0.126 A 
ATOM     26  C   UNL     1      -1.390  -1.127   6.375  0.00  0.00    +0.036 A 
BRANCH  25  27
ATOM     27  N   UNL     1      -2.180  -0.157   8.515  0.00  0.00    +0.056 N 
ATOM     28  O   UNL     1      -2.655  -0.323   9.614  0.00  0.00    -0.126 OA
ATOM     29  O   UNL     1      -1.906   0.959   8.138  0.00  0.00    -0.126 OA
ENDBRANCH  25  27
ENDBRANCH  10  21
BRANCH   9  30
ATOM     30  C   UNL     1      -1.850  -4.124   3.686  0.00  0.00    +0.169 C 
ATOM     31  O   UNL     1      -1.102  -5.076   3.759  0.00  0.00    -0.292 OA
BRANCH  30  32
ATOM     32  C   UNL     1      -3.239  -4.242   4.157  0.00  0.00    +0.018 A 
ATOM     33  C   UNL     1      -4.106  -3.148   4.069  0.00  0.00    +0.011 A 
ATOM     34  C   UNL     1      -5.406  -3.266   4.513  0.00  0.00    +0.001 A 
ATOM     35  C   UNL     1      -5.854  -4.463   5.045  0.00  0.00    +0.000 A 
ATOM     36  C   UNL     1      -5.002  -5.550   5.136  0.00  0.00    +0.001 A 
ATOM     37  C   UNL     1      -3.700  -5.449   4.691  0.00  0.00    +0.011 A 
ENDBRANCH  30  32
ENDBRANCH   9  30
TORSDOF 4
