REMARK  Name = ZINC37245946
REMARK  13 active torsions:
REMARK  status: ('A' for Active; 'I' for Inactive)
REMARK    1  A    between atoms: C_1  and  C_2
REMARK    2  A    between atoms: C_2  and  C_4
REMARK    3  A    between atoms: C_2  and  C_9
REMARK    4  A    between atoms: C_4  and  C_5
REMARK    5  A    between atoms: C_5  and  C_6
REMARK    6  A    between atoms: C_15  and  C_43
REMARK    7  A    between atoms: C_16  and  O_42
REMARK    8  A    between atoms: C_27  and  C_41
REMARK    9  A    between atoms: C_30  and  O_33
REMARK   10  A    between atoms: O_33  and  C_34
REMARK   11  A    between atoms: C_34  and  C_36
REMARK   12  A    between atoms: C_36  and  C_37
REMARK   13  A    between atoms: C_37  and  C_38
REMARK                            x       y       z     vdW  Elec       q    Type
REMARK                         _______ _______ _______ _____ _____    ______ ____
ROOT
ATOM      1  C   UNL     1       0.678  -0.598  -1.146  0.00  0.00    +0.001 C 
ATOM      2  C   UNL     1      -0.096  -0.054  -2.377  0.00  0.00    +0.005 C 
ATOM      3  C   UNL     1      -0.909  -1.252  -2.950  0.00  0.00    +0.005 C 
ATOM      4  C   UNL     1      -0.939  -2.222  -1.757  0.00  0.00    +0.001 C 
ATOM      5  C   UNL     1       0.519  -2.127  -1.260  0.00  0.00    +0.000 C 
ATOM      6  C   UNL     1       0.710  -2.929  -0.004  0.00  0.00    +0.121 C 
ATOM      7  C   UNL     1       0.146  -4.351  -0.144  0.00  0.00    +0.036 C 
ATOM      8  C   UNL     1      -0.382  -4.663  -1.528  0.00  0.00    +0.001 C 
ATOM      9  C   UNL     1      -1.383  -3.626  -2.027  0.00  0.00    -0.004 C 
ATOM     10  C   UNL     1      -1.679  -3.893  -3.503  0.00  0.00    +0.004 C 
ATOM     11  C   UNL     1      -2.301  -5.290  -3.632  0.00  0.00    +0.004 C 
ATOM     12  C   UNL     1      -2.401  -5.943  -2.257  0.00  0.00    -0.001 C 
ATOM     13  C   UNL     1      -1.033  -6.053  -1.590  0.00  0.00    -0.026 C 
ATOM     14  C   UNL     1      -1.201  -6.629  -0.186  0.00  0.00    +0.011 C 
ATOM     15  C   UNL     1      -1.873  -8.000  -0.248  0.00  0.00    +0.045 C 
ATOM     16  C   UNL     1      -3.219  -7.915  -0.963  0.00  0.00    +0.177 C 
ATOM     17  C   UNL     1      -3.049  -7.324  -2.364  0.00  0.00    +0.048 C 
ATOM     18  C   UNL     1      -0.108  -6.963  -2.406  0.00  0.00    +0.012 C 
ATOM     19  C   UNL     1       1.529  -2.562  -2.331  0.00  0.00    +0.014 C 
ENDROOT
BRANCH   1  21
ATOM     20  C   UNL     1      -1.445  -0.205   0.099  0.00  0.00    +0.008 C 
ATOM     21  C   UNL     1       0.077  -0.050   0.141  0.00  0.00    -0.010 C 
BRANCH  21  22
ATOM     22  C   UNL     1       0.435   1.431   0.281  0.00  0.00    +0.015 C 
BRANCH  22  23
ATOM     23  C   UNL     1      -0.134   1.971   1.595  0.00  0.00    +0.125 C 
BRANCH  23  24
ATOM     24  C   UNL     1       0.219   3.429   1.733  0.00  0.00    +0.356 C 
ATOM     25  O   UNL     1       0.865   3.986   0.862  0.00  0.00    -0.246 OA
ATOM     26  O   UNL     1      -0.141   4.053   2.717  0.00  0.00    -0.246 OA
ENDBRANCH  23  24
ENDBRANCH  22  23
ENDBRANCH  21  22
ENDBRANCH   1  21
BRANCH   6  27
ATOM     27  O   UNL     1       2.111  -3.006   0.310  0.00  0.00    -0.391 OA
ATOM     28  H   UNL     1       2.307  -3.512   1.111  0.00  0.00    +0.210 HD
ENDBRANCH   6  27
BRANCH  16  29
ATOM     29  O   UNL     1      -4.116  -7.099  -0.205  0.00  0.00    -0.461 OA
BRANCH  29  30
ATOM     30  C   UNL     1      -4.875  -7.719   0.712  0.00  0.00    +0.308 C 
ATOM     31  O   UNL     1      -4.782  -8.913   0.866  0.00  0.00    -0.251 OA
BRANCH  30  32
ATOM     32  C   UNL     1      -5.844  -6.924   1.549  0.00  0.00    +0.132 C 
BRANCH  32  33
ATOM     33  C   UNL     1      -6.579  -7.863   2.508  0.00  0.00    +0.136 C 
BRANCH  33  34
ATOM     34  C   UNL     1      -7.548  -7.068   3.345  0.00  0.00    +0.357 C 
ATOM     35  O   UNL     1      -7.642  -5.863   3.189  0.00  0.00    -0.246 OA
ATOM     36  O   UNL     1      -8.237  -7.631   4.178  0.00  0.00    -0.246 OA
ENDBRANCH  33  34
ENDBRANCH  32  33
ENDBRANCH  30  32
ENDBRANCH  29  30
ENDBRANCH  16  29
TORSDOF 10
