REMARK  Name = ZINC21325002
REMARK  8 active torsions:
REMARK  status: ('A' for Active; 'I' for Inactive)
REMARK    1  A    between atoms: C_1  and  N_2
REMARK    2  A    between atoms: N_2  and  C_3
REMARK    3  A    between atoms: N_2  and  C_14
REMARK    4  A    between atoms: C_3  and  C_4
REMARK    5  A    between atoms: C_14  and  C_15
REMARK    6  A    between atoms: N_17  and  C_18
REMARK    7  A    between atoms: C_23  and  C_24
REMARK    8  A    between atoms: C_24  and  C_26
REMARK                            x       y       z     vdW  Elec       q    Type
REMARK                         _______ _______ _______ _____ _____    ______ ____
ROOT
ATOM      1  C   UNL     1       5.283  -2.391  -2.969  0.00  0.00    +0.201 C 
ATOM      2  O   UNL     1       4.591  -1.973  -3.872  0.00  0.00    -0.278 OA
ATOM      3  N   UNL     1       6.337  -3.186  -3.240  0.00  0.00    -0.286 N 
ATOM      4  H   UNL     1       7.012  -3.500  -2.429  0.00  0.00    +0.155 HD
ENDROOT
BRANCH   3   5
ATOM      5  C   UNL     1       6.572  -3.609  -4.545  0.00  0.00    +0.044 A 
ATOM      6  C   UNL     1       6.275  -2.774  -5.614  0.00  0.00    +0.024 A 
ATOM      7  C   UNL     1       6.509  -3.196  -6.907  0.00  0.00    +0.002 A 
ATOM      8  C   UNL     1       7.042  -4.452  -7.150  0.00  0.00    +0.001 A 
ATOM      9  C   UNL     1       7.344  -5.295  -6.103  0.00  0.00    +0.013 A 
ATOM     10  C   UNL     1       7.117  -4.880  -4.787  0.00  0.00    +0.043 A 
BRANCH  10  11
ATOM     11  C   UNL     1       7.444  -5.774  -3.662  0.00  0.00    +0.195 C 
ATOM     12  O   UNL     1       8.602  -5.931  -3.326  0.00  0.00    -0.287 OA
BRANCH  11  13
ATOM     13  C   UNL     1       6.363  -6.480  -2.941  0.00  0.00    +0.022 A 
ATOM     14  C   UNL     1       5.027  -6.221  -3.252  0.00  0.00    +0.012 A 
ATOM     15  C   UNL     1       4.024  -6.888  -2.580  0.00  0.00    +0.001 A 
ATOM     16  C   UNL     1       4.339  -7.803  -1.591  0.00  0.00    +0.000 A 
ATOM     17  C   UNL     1       5.661  -8.060  -1.273  0.00  0.00    +0.001 A 
ATOM     18  C   UNL     1       6.674  -7.405  -1.942  0.00  0.00    +0.012 A 
ENDBRANCH  11  13
ENDBRANCH  10  11
ENDBRANCH   3   5
BRANCH   1  19
ATOM     19  C   UNL     1       4.965  -2.021  -1.543  0.00  0.00    +0.019 C 
BRANCH  19  21
ATOM     20  C   UNL     1       4.057   0.138  -2.157  0.00  0.00    -0.095 C 
ATOM     21  N   UNL     1       3.780  -1.153  -1.514  0.00  0.00    +0.386 N 
ATOM     22  H   UNL     1       2.983  -1.651  -2.086  0.00  0.00    -0.081 HD
BRANCH  21  23
ATOM     23  C   UNL     1       3.299  -0.965  -0.140  0.00  0.00    -0.043 C 
BRANCH  23  24
ATOM     24  C   UNL     1       1.955  -0.282  -0.167  0.00  0.00    -0.060 A 
ATOM     25  C   UNL     1       0.799  -1.038  -0.223  0.00  0.00    +0.005 A 
ATOM     26  C   UNL     1      -0.435  -0.415  -0.249  0.00  0.00    +0.049 A 
ATOM     27  C   UNL     1      -0.516   0.969  -0.220  0.00  0.00    +0.162 A 
ATOM     28  C   UNL     1       0.647   1.728  -0.161  0.00  0.00    +0.162 A 
ATOM     29  C   UNL     1       1.882   1.097  -0.136  0.00  0.00    +0.051 A 
ATOM     30  O   UNL     1       0.590   3.087  -0.123  0.00  0.00    -0.485 OA
ATOM     31  C   UNL     1      -0.644   3.692  -0.526  0.00  0.00    +0.270 C 
ATOM     32  C   UNL     1      -1.794   2.939   0.156  0.00  0.00    +0.270 C 
ATOM     33  O   UNL     1      -1.738   1.568  -0.256  0.00  0.00    -0.485 OA
ENDBRANCH  23  24
ENDBRANCH  21  23
ENDBRANCH  19  21
ENDBRANCH   1  19
TORSDOF 7
