REMARK  Name = ZINC30694617
REMARK  6 active torsions:
REMARK  status: ('A' for Active; 'I' for Inactive)
REMARK    1  A    between atoms: C_10  and  C_12
REMARK    2  A    between atoms: C_12  and  N_13
REMARK    3  A    between atoms: C_14  and  C_16
REMARK    4  A    between atoms: C_19  and  N_22
REMARK    5  A    between atoms: N_22  and  S_23
REMARK    6  A    between atoms: S_23  and  C_26
REMARK                            x       y       z     vdW  Elec       q    Type
REMARK                         _______ _______ _______ _____ _____    ______ ____
ROOT
ATOM      1  C   UNL     1       5.499   2.305  -3.572  0.00  0.00    +0.037 A 
ATOM      2  C   UNL     1       6.201   1.114  -3.779  0.00  0.00    +0.015 A 
ATOM      3  C   UNL     1       5.921   0.009  -3.008  0.00  0.00    +0.025 A 
ATOM      4  C   UNL     1       4.940   0.077  -2.022  0.00  0.00    +0.048 A 
ATOM      5  C   UNL     1       4.235   1.260  -1.818  0.00  0.00    +0.025 A 
ATOM      6  C   UNL     1       4.514   2.370  -2.582  0.00  0.00    +0.015 A 
ENDROOT
BRANCH   1   8
ATOM      7  N   UNL     1       5.120   4.639  -4.195  0.00  0.00    -0.311 N 
ATOM      8  C   UNL     1       5.797   3.492  -4.396  0.00  0.00    +0.244 C 
ATOM      9  O   UNL     1       6.654   3.434  -5.257  0.00  0.00    -0.270 OA
ATOM     10  H   UNL     1       4.344   4.691  -3.417  0.00  0.00    +0.149 HD
BRANCH   7  11
ATOM     11  C   UNL     1       5.416   5.817  -5.014  0.00  0.00    +0.112 C 
BRANCH  11  21
ATOM     12  C   UNL     1       5.633  10.453  -6.789  0.00  0.00    +0.000 A 
ATOM     13  C   UNL     1       6.568   9.639  -6.178  0.00  0.00    +0.000 A 
ATOM     14  C   UNL     1       6.156   8.508  -5.503  0.00  0.00    +0.004 A 
ATOM     15  C   UNL     1       4.808   8.181  -5.433  0.00  0.00    -0.040 A 
ATOM     16  C   UNL     1       3.877   8.989  -6.044  0.00  0.00    -0.044 A 
ATOM     17  C   UNL     1       4.294  10.128  -6.721  0.00  0.00    +0.004 A 
ATOM     18  C   UNL     1       2.400   8.692  -6.015  0.00  0.00    +0.035 C 
ATOM     19  C   UNL     1       2.075   7.693  -4.907  0.00  0.00    +0.005 C 
ATOM     20  C   UNL     1       3.015   6.490  -5.050  0.00  0.00    +0.010 C 
ATOM     21  C   UNL     1       4.428   6.935  -4.675  0.00  0.00    +0.036 C 
ENDBRANCH  11  21
ENDBRANCH   7  11
ENDBRANCH   1   8
BRANCH   4  22
ATOM     22  N   UNL     1       4.659  -1.041  -1.245  0.00  0.00    -0.216 N 
ATOM     23  H   UNL     1       5.360  -1.353  -0.457  0.00  0.00    +0.174 HD
BRANCH  22  24
ATOM     24  S   UNL     1       3.269  -1.904  -1.506  0.00  0.00    +0.072 S 
ATOM     25  O   UNL     1       2.203  -0.964  -1.512  0.00  0.00    -0.150 OA
ATOM     26  O   UNL     1       3.305  -3.010  -0.615  0.00  0.00    -0.150 OA
BRANCH  24  27
ATOM     27  C   UNL     1       3.366  -2.567  -3.136  0.00  0.00    +0.112 A 
ATOM     28  C   UNL     1       4.030  -3.759  -3.358  0.00  0.00    +0.032 A 
ATOM     29  C   UNL     1       4.110  -4.281  -4.635  0.00  0.00    +0.051 A 
ATOM     30  C   UNL     1       3.523  -3.609  -5.698  0.00  0.00    +0.162 A 
ATOM     31  C   UNL     1       2.854  -2.412  -5.474  0.00  0.00    +0.164 A 
ATOM     32  C   UNL     1       2.779  -1.893  -4.190  0.00  0.00    +0.078 A 
ATOM     33  O   UNL     1       2.264  -1.742  -6.502  0.00  0.00    -0.485 OA
ATOM     34  C   UNL     1       2.680  -2.097  -7.825  0.00  0.00    +0.270 C 
ATOM     35  C   UNL     1       2.698  -3.628  -7.928  0.00  0.00    +0.270 C 
ATOM     36  O   UNL     1       3.618  -4.131  -6.951  0.00  0.00    -0.485 OA
ENDBRANCH  24  27
ENDBRANCH  22  24
ENDBRANCH   4  22
TORSDOF 6
