REMARK  Name = ZINC19874626
REMARK  4 active torsions:
REMARK  status: ('A' for Active; 'I' for Inactive)
REMARK    1  A    between atoms: C_1  and  C_2
REMARK    2  A    between atoms: C_5  and  O_20
REMARK    3  A    between atoms: C_6  and  C_8
REMARK    4  A    between atoms: C_17  and  N_19
REMARK                            x       y       z     vdW  Elec       q    Type
REMARK                         _______ _______ _______ _____ _____    ______ ____
ROOT
ATOM      1  C   UNL     1      -2.909   4.921   0.056  0.00  0.00    +0.254 C 
ATOM      2  O   UNL     1      -2.053   5.774   0.192  0.00  0.00    -0.270 OA
ATOM      3  N   UNL     1      -2.561   3.621  -0.009  0.00  0.00    -0.267 N 
ATOM      4  C   UNL     1      -3.503   2.500  -0.056  0.00  0.00    +0.119 C 
ATOM      5  C   UNL     1      -2.628   1.239  -0.121  0.00  0.00    +0.056 C 
ATOM      6  C   UNL     1      -1.208   1.759  -0.110  0.00  0.00    -0.023 A 
ATOM      7  C   UNL     1      -1.245   3.143  -0.039  0.00  0.00    +0.040 A 
ATOM      8  C   UNL     1      -0.045   3.855  -0.012  0.00  0.00    +0.025 A 
ATOM      9  C   UNL     1       1.161   3.190  -0.050  0.00  0.00    +0.024 A 
ATOM     10  C   UNL     1       1.192   1.804  -0.116  0.00  0.00    +0.025 A 
ATOM     11  C   UNL     1       0.000   1.090  -0.143  0.00  0.00    +0.028 A 
ENDROOT
BRANCH   1  17
ATOM     12  C   UNL     1      -7.727   3.648  -0.121  0.00  0.00    +0.044 C 
ATOM     13  C   UNL     1      -6.651   4.703  -0.126  0.00  0.00    -0.050 A 
ATOM     14  C   UNL     1      -6.998   6.041  -0.220  0.00  0.00    +0.007 A 
ATOM     15  C   UNL     1      -6.022   7.017  -0.225  0.00  0.00    +0.046 A 
ATOM     16  C   UNL     1      -4.684   6.663  -0.130  0.00  0.00    +0.129 A 
ATOM     17  C   UNL     1      -4.329   5.311  -0.040  0.00  0.00    +0.079 A 
ATOM     18  C   UNL     1      -5.327   4.333  -0.036  0.00  0.00    +0.020 A 
BRANCH  16  19
ATOM     19  O   UNL     1      -3.724   7.622  -0.128  0.00  0.00    -0.506 OA
ATOM     20  H   UNL     1      -2.664   7.338  -0.052  0.00  0.00    +0.292 HD
ENDBRANCH  16  19
ENDBRANCH   1  17
BRANCH  10  21
ATOM     21  N   UNL     1       2.416   1.128  -0.154  0.00  0.00    -0.358 N 
ATOM     22  H   UNL     1       2.437   0.029  -0.206  0.00  0.00    +0.142 HD
ATOM     23  H   UNL     1       3.358   1.696  -0.132  0.00  0.00    +0.142 HD
ENDBRANCH  10  21
TORSDOF 3
