REMARK  Name = ZINC09015628
REMARK  7 active torsions:
REMARK  status: ('A' for Active; 'I' for Inactive)
REMARK    1  A    between atoms: C_1  and  C_2
REMARK    2  A    between atoms: N_5  and  C_7
REMARK    3  A    between atoms: C_10  and  N_13
REMARK    4  A    between atoms: C_18  and  O_37
REMARK    5  A    between atoms: C_27  and  C_29
REMARK    6  A    between atoms: C_32  and  S_35
REMARK    7  A    between atoms: S_35  and  C_36
REMARK                            x       y       z     vdW  Elec       q    Type
REMARK                         _______ _______ _______ _____ _____    ______ ____
ROOT
ATOM      1  C   UNL     1      -0.018   1.503   0.010  0.00  0.00    +0.068 C 
ATOM      2  C   UNL     1       0.002  -0.004   0.002  0.00  0.00    +0.068 A 
ATOM      3  C   UNL     1       0.008  -0.787  -1.102  0.00  0.00    +0.044 A 
ATOM      4  C   UNL     1       0.030  -2.172  -0.602  0.00  0.00    +0.164 A 
ATOM      5  N   UNL     1       0.035  -2.034   0.778  0.00  0.00    -0.214 N 
ATOM      6  N   UNL     1       0.023  -0.782   1.075  0.00  0.00    -0.169 NA
ATOM      7  N   UNL     1       0.039  -3.165  -1.445  0.00  0.00    -0.207 NA
ATOM      8  C   UNL     1       0.030  -3.039  -2.779  0.00  0.00    +0.191 C 
ATOM      9  C   UNL     1       0.043  -4.223  -3.565  0.00  0.00    +0.255 C 
ATOM     10  N   UNL     1       0.035  -4.183  -4.883  0.00  0.00    -0.209 NA
ATOM     11  C   UNL     1       0.016  -3.019  -5.526  0.00  0.00    +0.089 A 
ATOM     12  C   UNL     1       0.006  -2.944  -6.934  0.00  0.00    +0.030 A 
ATOM     13  C   UNL     1      -0.014  -1.726  -7.537  0.00  0.00    +0.002 A 
ATOM     14  C   UNL     1      -0.026  -0.543  -6.796  0.00  0.00    +0.002 A 
ATOM     15  C   UNL     1      -0.018  -0.552  -5.433  0.00  0.00    +0.025 A 
ATOM     16  C   UNL     1       0.002  -1.770  -4.751  0.00  0.00    +0.062 A 
ATOM     17  N   UNL     1       0.010  -1.836  -3.397  0.00  0.00    -0.267 N 
ATOM     18  C   UNL     1      -0.003  -0.599  -2.596  0.00  0.00    +0.146 C 
ENDROOT
BRANCH   5  19
ATOM     19  C   UNL     1       0.053  -3.085   1.698  0.00  0.00    +0.068 A 
ATOM     20  C   UNL     1      -0.618  -4.270   1.416  0.00  0.00    +0.030 A 
ATOM     21  C   UNL     1      -0.597  -5.307   2.327  0.00  0.00    +0.035 A 
ATOM     22  C   UNL     1       0.091  -5.168   3.520  0.00  0.00    +0.126 A 
ATOM     23  C   UNL     1       0.759  -3.990   3.804  0.00  0.00    +0.035 A 
ATOM     24  C   UNL     1       0.747  -2.951   2.895  0.00  0.00    +0.030 A 
BRANCH  22  25
ATOM     25  N   UNL     1       0.111  -6.282   4.494  0.00  0.00    +0.056 N 
ATOM     26  O   UNL     1      -0.525  -7.403   4.226  0.00  0.00    -0.126 OA
ATOM     27  O   UNL     1       0.765  -6.151   5.630  0.00  0.00    -0.126 OA
ENDBRANCH  22  25
ENDBRANCH   5  19
BRANCH  18  28
ATOM     28  C   UNL     1       1.203   0.221  -2.977  0.00  0.00    -0.022 A 
ATOM     29  C   UNL     1       2.442  -0.383  -3.085  0.00  0.00    +0.007 A 
ATOM     30  C   UNL     1       3.549   0.365  -3.433  0.00  0.00    +0.015 A 
ATOM     31  C   UNL     1       3.417   1.727  -3.675  0.00  0.00    +0.008 A 
ATOM     32  C   UNL     1       2.169   2.331  -3.567  0.00  0.00    +0.015 A 
ATOM     33  C   UNL     1       1.066   1.575  -3.223  0.00  0.00    +0.007 A 
BRANCH  31  34
ATOM     34  S   UNL     1       4.826   2.687  -4.119  0.00  0.00    -0.129 S 
ATOM     35  C   UNL     1       4.168   4.364  -4.328  0.00  0.00    +0.090 C 
ENDBRANCH  31  34
ENDBRANCH  18  28
BRANCH   9  36
ATOM     36  O   UNL     1       0.064  -5.423  -2.943  0.00  0.00    -0.490 OA
ATOM     37  H   UNL     1       0.071  -6.179  -3.547  0.00  0.00    +0.294 HD
ENDBRANCH   9  36
TORSDOF 5
