REMARK  Name = ZINC40168139
REMARK  11 active torsions:
REMARK  status: ('A' for Active; 'I' for Inactive)
REMARK    1  A    between atoms: C_1  and  C_2
REMARK    2  A    between atoms: C_3  and  C_35
REMARK    3  A    between atoms: C_8  and  C_10
REMARK    4  A    between atoms: C_10  and  C_12
REMARK    5  A    between atoms: C_10  and  O_13
REMARK    6  A    between atoms: O_13  and  C_14
REMARK    7  A    between atoms: C_24  and  C_25
REMARK    8  A    between atoms: C_28  and  C_31
REMARK    9  A    between atoms: C_31  and  C_32
REMARK   10  A    between atoms: C_31  and  C_33
REMARK   11  A    between atoms: C_31  and  C_34
REMARK                            x       y       z     vdW  Elec       q    Type
REMARK                         _______ _______ _______ _____ _____    ______ ____
ROOT
ATOM      1  C   UNL     1      -0.589  -2.971   7.156  0.00  0.00    +0.212 A 
ATOM      2  C   UNL     1      -0.712  -2.114   8.280  0.00  0.00    +0.235 A 
ATOM      3  O   UNL     1      -0.399  -0.936   8.217  0.00  0.00    -0.283 OA
ATOM      4  C   UNL     1      -1.234  -2.704   9.527  0.00  0.00    +0.068 A 
ATOM      5  C   UNL     1      -1.388  -1.937  10.682  0.00  0.00    +0.015 A 
ATOM      6  C   UNL     1      -1.879  -2.523  11.827  0.00  0.00    +0.001 A 
ATOM      7  C   UNL     1      -2.217  -3.869  11.834  0.00  0.00    +0.004 A 
ATOM      8  C   UNL     1      -2.069  -4.638  10.700  0.00  0.00    +0.047 A 
ATOM      9  C   UNL     1      -1.576  -4.065   9.533  0.00  0.00    +0.140 A 
ATOM     10  O   UNL     1      -1.424  -4.801   8.413  0.00  0.00    -0.451 OA
ATOM     11  C   UNL     1      -0.956  -4.279   7.267  0.00  0.00    +0.181 A 
ENDROOT
BRANCH  11  12
ATOM     12  C   UNL     1      -0.828  -5.155   6.087  0.00  0.00    +0.021 A 
ATOM     13  C   UNL     1       0.355  -5.163   5.344  0.00  0.00    +0.012 A 
ATOM     14  C   UNL     1       0.468  -5.985   4.242  0.00  0.00    +0.005 A 
ATOM     15  C   UNL     1      -0.588  -6.801   3.872  0.00  0.00    -0.042 A 
ATOM     16  C   UNL     1      -1.762  -6.798   4.604  0.00  0.00    +0.005 A 
ATOM     17  C   UNL     1      -1.887  -5.986   5.711  0.00  0.00    +0.012 A 
BRANCH  15  18
ATOM     18  C   UNL     1      -0.457  -7.695   2.666  0.00  0.00    -0.013 C 
ATOM     19  C   UNL     1       0.707  -8.666   2.875  0.00  0.00    +0.015 C 
ATOM     20  C   UNL     1      -1.753  -8.486   2.476  0.00  0.00    +0.015 C 
ATOM     21  C   UNL     1      -0.193  -6.842   1.424  0.00  0.00    +0.015 C 
ENDBRANCH  15  18
ENDBRANCH  11  12
BRANCH   1  22
ATOM     22  O   UNL     1      -0.115  -2.490   5.975  0.00  0.00    -0.473 OA
BRANCH  22  23
ATOM     23  C   UNL     1      -0.917  -1.518   5.301  0.00  0.00    +0.256 C 
ATOM     24  C   UNL     1      -1.812  -2.218   4.276  0.00  0.00    +0.062 C 
BRANCH  23  32
ATOM     25  C   UNL     1       3.743   2.551   2.741  0.00  0.00    +0.066 C 
ATOM     26  C   UNL     1       2.238   2.528   2.811  0.00  0.00    +0.050 A 
ATOM     27  C   UNL     1       1.490   3.528   2.284  0.00  0.00    +0.011 A 
ATOM     28  S   UNL     1      -0.156   2.950   2.667  0.00  0.00    -0.057 S 
ATOM     29  C   UNL     1       0.275   1.521   3.445  0.00  0.00    +0.165 A 
ATOM     30  N   UNL     1       1.589   1.531   3.384  0.00  0.00    -0.230 NA
ATOM     31  N   UNL     1      -0.556   0.561   4.010  0.00  0.00    -0.262 N 
ATOM     32  C   UNL     1      -0.024  -0.530   4.596  0.00  0.00    +0.259 C 
ATOM     33  O   UNL     1       1.174  -0.717   4.556  0.00  0.00    -0.271 OA
ATOM     34  C   UNL     1       1.926   4.782   1.571  0.00  0.00    +0.053 C 
ATOM     35  H   UNL     1      -1.519   0.676   3.983  0.00  0.00    +0.157 HD
ENDBRANCH  23  32
ENDBRANCH  22  23
ENDBRANCH   1  22
TORSDOF 5
