REMARK  Name = ZINC01111449
REMARK  9 active torsions:
REMARK  status: ('A' for Active; 'I' for Inactive)
REMARK    1  A    between atoms: C_1  and  C_2
REMARK    2  A    between atoms: C_4  and  C_25
REMARK    3  A    between atoms: C_5  and  S_9
REMARK    4  A    between atoms: C_6  and  C_8
REMARK    5  A    between atoms: S_9  and  N_12
REMARK    6  A    between atoms: N_12  and  C_13
REMARK    7  A    between atoms: N_12  and  C_14
REMARK    8  A    between atoms: C_14  and  C_15
REMARK    9  A    between atoms: N_17  and  C_18
REMARK                            x       y       z     vdW  Elec       q    Type
REMARK                         _______ _______ _______ _____ _____    ______ ____
ROOT
ATOM      1  N   UNL     1      -3.475   4.274  -1.401  0.00  0.00    -0.171 NA
ATOM      2  C   UNL     1      -4.111   3.410  -2.399  0.00  0.00    +0.132 C 
ENDROOT
BRANCH   1   3
ATOM      3  S   UNL     1      -3.110   3.676   0.100  0.00  0.00    +0.062 S 
ATOM      4  O   UNL     1      -4.007   2.600   0.338  0.00  0.00    -0.153 OA
ATOM      5  O   UNL     1      -3.014   4.795   0.970  0.00  0.00    -0.153 OA
BRANCH   3  10
ATOM      6  C   UNL     1       2.415   1.274  -0.230  0.00  0.00    +0.044 C 
ATOM      7  C   UNL     1       1.035   1.874  -0.148  0.00  0.00    -0.050 A 
ATOM      8  C   UNL     1       0.883   3.223   0.114  0.00  0.00    +0.008 A 
ATOM      9  C   UNL     1      -0.383   3.772   0.194  0.00  0.00    -0.024 A 
ATOM     10  C   UNL     1      -1.496   2.975   0.003  0.00  0.00    +0.111 A 
ATOM     11  C   UNL     1      -1.343   1.626  -0.260  0.00  0.00    -0.024 A 
ATOM     12  C   UNL     1      -0.078   1.076  -0.336  0.00  0.00    +0.008 A 
ATOM     13  C   UNL     1      -2.557   0.756  -0.464  0.00  0.00    +0.046 C 
ATOM     14  C   UNL     1      -0.550   5.241   0.486  0.00  0.00    +0.046 C 
ENDBRANCH   3  10
ENDBRANCH   1   3
BRANCH   1  15
ATOM     15  C   UNL     1      -3.162   5.667  -1.731  0.00  0.00    +0.205 C 
BRANCH  15  16
ATOM     16  C   UNL     1      -1.826   5.730  -2.426  0.00  0.00    +0.233 C 
ATOM     17  O   UNL     1      -1.198   4.712  -2.626  0.00  0.00    -0.274 OA
ATOM     18  N   UNL     1      -1.330   6.918  -2.825  0.00  0.00    -0.284 N 
ATOM     19  H   UNL     1      -1.800   7.738  -2.607  0.00  0.00    +0.155 HD
BRANCH  18  20
ATOM     20  C   UNL     1      -0.137   6.968  -3.556  0.00  0.00    +0.033 A 
ATOM     21  C   UNL     1       0.726   8.045  -3.404  0.00  0.00    +0.024 A 
ATOM     22  C   UNL     1       1.906   8.089  -4.121  0.00  0.00    +0.016 A 
ATOM     23  C   UNL     1       2.222   7.067  -4.999  0.00  0.00    +0.013 A 
ATOM     24  C   UNL     1       1.360   5.996  -5.157  0.00  0.00    +0.016 A 
ATOM     25  C   UNL     1       0.183   5.944  -4.437  0.00  0.00    +0.024 A 
ATOM     26  I   UNL     1       4.008   7.142  -6.092  0.00  0.00    -0.044 I 
ENDBRANCH  18  20
ENDBRANCH  15  16
ENDBRANCH   1  15
TORSDOF 5
