REMARK  Name = ZINC27532214
REMARK  6 active torsions:
REMARK  status: ('A' for Active; 'I' for Inactive)
REMARK    1  A    between atoms: N_15  and  C_16
REMARK    2  A    between atoms: C_16  and  C_17
REMARK    3  A    between atoms: N_19  and  C_20
REMARK    4  A    between atoms: C_22  and  N_35
REMARK    5  A    between atoms: C_24  and  O_26
REMARK    6  A    between atoms: O_26  and  C_27
REMARK                            x       y       z     vdW  Elec       q    Type
REMARK                         _______ _______ _______ _____ _____    ______ ____
ROOT
ATOM      1  C   UNL     1       1.694   6.185  -1.402  0.00  0.00    +0.237 C 
ATOM      2  O   UNL     1       1.002   5.798  -2.320  0.00  0.00    -0.274 OA
ATOM      3  N   UNL     1       2.848   6.833  -1.655  0.00  0.00    -0.284 N 
ATOM      4  H   UNL     1       3.438   7.250  -0.826  0.00  0.00    +0.155 HD
ENDROOT
BRANCH   3   5
ATOM      5  C   UNL     1       3.296   6.976  -2.973  0.00  0.00    +0.039 A 
ATOM      6  C   UNL     1       4.657   6.944  -3.252  0.00  0.00    +0.056 A 
ATOM      7  C   UNL     1       5.099   7.080  -4.554  0.00  0.00    +0.131 A 
ATOM      8  C   UNL     1       4.190   7.257  -5.580  0.00  0.00    +0.079 A 
ATOM      9  C   UNL     1       2.830   7.295  -5.306  0.00  0.00    +0.132 A 
ATOM     10  C   UNL     1       2.383   7.154  -4.002  0.00  0.00    +0.069 A 
BRANCH   7  11
ATOM     11  N   UNL     1       6.549   7.040  -4.850  0.00  0.00    +0.057 N 
ATOM     12  O   UNL     1       6.940   7.164  -5.996  0.00  0.00    -0.126 OA
ATOM     13  O   UNL     1       7.351   6.883  -3.946  0.00  0.00    -0.126 OA
ENDBRANCH   7  11
BRANCH   9  14
ATOM     14  O   UNL     1       1.938   7.471  -6.316  0.00  0.00    -0.453 OA
BRANCH  14  15
ATOM     15  C   UNL     1       2.413   7.498  -7.590  0.00  0.00    +0.164 A 
ATOM     16  C   UNL     1       2.608   8.711  -8.232  0.00  0.00    +0.052 A 
ATOM     17  C   UNL     1       3.091   8.737  -9.527  0.00  0.00    +0.042 A 
ATOM     18  C   UNL     1       3.380   7.553 -10.184  0.00  0.00    +0.126 A 
ATOM     19  C   UNL     1       3.185   6.340  -9.545  0.00  0.00    +0.080 A 
ATOM     20  C   UNL     1       2.708   6.310  -8.247  0.00  0.00    +0.168 A 
ATOM     21  F   UNL     1       2.524   5.127  -7.621  0.00  0.00    -0.202 F 
ATOM     22  F   UNL     1       3.851   7.581 -11.450  0.00  0.00    -0.205 F 
ENDBRANCH  14  15
ENDBRANCH   9  14
ENDBRANCH   3   5
BRANCH   1  23
ATOM     23  C   UNL     1       1.263   5.942   0.021  0.00  0.00    +0.218 C 
BRANCH  23  38
ATOM     24  C   UNL     1       0.032   1.066   0.037  0.00  0.00    +0.001 A 
ATOM     25  C   UNL     1       1.220   1.783   0.030  0.00  0.00    +0.002 A 
ATOM     26  C   UNL     1       1.211   3.160   0.027  0.00  0.00    +0.026 A 
ATOM     27  C   UNL     1      -0.001   3.847   0.032  0.00  0.00    +0.054 A 
ATOM     28  C   UNL     1      -1.200   3.115   0.039  0.00  0.00    +0.046 A 
ATOM     29  C   UNL     1      -1.169   1.719   0.036  0.00  0.00    +0.014 A 
ATOM     30  C   UNL     1      -2.484   3.840   0.044  0.00  0.00    +0.197 A 
ATOM     31  O   UNL     1      -3.546   3.244   0.052  0.00  0.00    -0.287 OA
ATOM     32  C   UNL     1      -2.434   5.313   0.041  0.00  0.00    +0.046 A 
ATOM     33  C   UNL     1      -3.609   6.067   0.046  0.00  0.00    +0.014 A 
ATOM     34  C   UNL     1      -3.540   7.432   0.042  0.00  0.00    +0.001 A 
ATOM     35  C   UNL     1      -2.310   8.073   0.034  0.00  0.00    +0.002 A 
ATOM     36  C   UNL     1      -1.139   7.348   0.030  0.00  0.00    +0.026 A 
ATOM     37  C   UNL     1      -1.184   5.955   0.033  0.00  0.00    +0.054 A 
ATOM     38  N   UNL     1      -0.015   5.225   0.029  0.00  0.00    -0.331 N 
ENDBRANCH  23  38
ENDBRANCH   1  23
TORSDOF 6
