REMARK  Name = ZINC11790525
REMARK  6 active torsions:
REMARK  status: ('A' for Active; 'I' for Inactive)
REMARK    1  A    between atoms: C_5  and  C_7
REMARK    2  A    between atoms: C_7  and  N_8
REMARK    3  A    between atoms: C_19  and  N_53
REMARK    4  A    between atoms: C_23  and  C_24
REMARK    5  A    between atoms: C_23  and  N_53
REMARK    6  A    between atoms: C_26  and  C_31
REMARK                            x       y       z     vdW  Elec       q    Type
REMARK                         _______ _______ _______ _____ _____    ______ ____
ROOT
ATOM      1  N   UNL     1       2.172  11.848   3.089  0.00  0.00    -0.293 N 
ATOM      2  C   UNL     1       3.224  12.244   2.332  0.00  0.00    +0.203 A 
ATOM      3  N   UNL     1       3.894  11.424   1.553  0.00  0.00    -0.230 NA
ATOM      4  C   UNL     1       3.504  10.153   1.524  0.00  0.00    +0.116 A 
ATOM      5  C   UNL     1       2.421   9.644   2.275  0.00  0.00    +0.076 A 
ATOM      6  C   UNL     1       1.716  10.573   3.113  0.00  0.00    +0.263 A 
ATOM      7  O   UNL     1       0.768  10.236   3.801  0.00  0.00    -0.267 OA
ATOM      8  C   UNL     1       2.139   8.229   2.115  0.00  0.00    -0.023 A 
ATOM      9  C   UNL     1       2.939   7.543   1.265  0.00  0.00    -0.006 A 
ATOM     10  S   UNL     1       4.094   8.741   0.646  0.00  0.00    -0.073 S 
ATOM     11  C   UNL     1       2.863   6.087   0.923  0.00  0.00    +0.027 C 
ATOM     12  C   UNL     1       1.505   5.548   1.394  0.00  0.00    -0.066 C 
ATOM     13  C   UNL     1       1.265   6.015   2.833  0.00  0.00    -0.011 C 
ATOM     14  C   UNL     1       1.006   7.522   2.853  0.00  0.00    +0.035 C 
ENDROOT
BRANCH  12  15
ATOM     15  N   UNL     1       1.517   4.073   1.356  0.00  0.00    +0.384 N 
ATOM     16  H   UNL     1       0.843   3.711   2.041  0.00  0.00    -0.085 HD
ATOM     17  H   UNL     1       2.458   3.736   1.591  0.00  0.00    -0.085 HD
BRANCH  15  18
ATOM     18  C   UNL     1       1.150   3.593   0.011  0.00  0.00    -0.043 C 
BRANCH  18  19
ATOM     19  C   UNL     1       1.171   2.086   0.002  0.00  0.00    -0.029 A 
ATOM     20  C   UNL     1      -0.017   1.378   0.010  0.00  0.00    +0.017 A 
ATOM     21  C   UNL     1       0.002  -0.004   0.002  0.00  0.00    +0.055 A 
ATOM     22  C   UNL     1       1.208  -0.680  -0.013  0.00  0.00    +0.015 A 
ATOM     23  C   UNL     1       2.396   0.025  -0.021  0.00  0.00    +0.039 A 
ATOM     24  C   UNL     1       2.379   1.410  -0.013  0.00  0.00    +0.125 A 
ATOM     25  F   UNL     1       3.540   2.101  -0.020  0.00  0.00    -0.205 F 
BRANCH  21  26
ATOM     26  C   UNL     1      -1.293  -0.775   0.011  0.00  0.00    +0.417 C 
ATOM     27  F   UNL     1      -1.707  -1.006  -1.306  0.00  0.00    -0.166 F 
ATOM     28  F   UNL     1      -1.103  -1.998   0.662  0.00  0.00    -0.166 F 
ATOM     29  F   UNL     1      -2.271  -0.035   0.684  0.00  0.00    -0.166 F 
ENDBRANCH  21  26
ENDBRANCH  18  19
ENDBRANCH  15  18
ENDBRANCH  12  15
BRANCH   1  30
ATOM     30  C   UNL     1       1.496  12.846   3.921  0.00  0.00    +0.181 C 
BRANCH  30  35
ATOM     31  C   UNL     1      -1.925  13.588   2.524  0.00  0.00    +0.003 A 
ATOM     32  C   UNL     1      -1.610  14.659   1.701  0.00  0.00    +0.020 A 
ATOM     33  C   UNL     1      -0.301  15.094   1.634  0.00  0.00    +0.111 A 
ATOM     34  N   UNL     1       0.643  14.508   2.345  0.00  0.00    -0.258 NA
ATOM     35  C   UNL     1       0.381  13.484   3.134  0.00  0.00    +0.061 A 
ATOM     36  C   UNL     1      -0.906  12.994   3.252  0.00  0.00    +0.025 A 
ENDBRANCH  30  35
ENDBRANCH   1  30
TORSDOF 6
