REMARK  Name = ZINC02397218
REMARK  4 active torsions:
REMARK  status: ('A' for Active; 'I' for Inactive)
REMARK    1  A    between atoms: C_1  and  O_2
REMARK    2  A    between atoms: O_2  and  C_3
REMARK    3  A    between atoms: C_8  and  C_9
REMARK    4  A    between atoms: C_12  and  C_21
REMARK                            x       y       z     vdW  Elec       q    Type
REMARK                         _______ _______ _______ _____ _____    ______ ____
ROOT
ATOM      1  C   UNL     1       0.018  -2.829  -0.013  0.00  0.00    +0.146 C 
ATOM      2  C   UNL     1       0.075  -3.726   1.230  0.00  0.00    +0.059 C 
ATOM      3  C   UNL     1       1.217  -4.738   1.086  0.00  0.00    +0.106 C 
ATOM      4  N   UNL     1       0.938  -5.600  -0.079  0.00  0.00    -0.307 N 
ATOM      5  C   UNL     1       0.477  -4.959  -1.221  0.00  0.00    +0.216 A 
ATOM      6  N   UNL     1       0.050  -3.671  -1.208  0.00  0.00    -0.224 N 
ATOM      7  N   UNL     1      -0.329  -3.361  -2.514  0.00  0.00    -0.132 NA
ATOM      8  C   UNL     1      -0.121  -4.440  -3.236  0.00  0.00    +0.233 A 
ATOM      9  N   UNL     1       0.365  -5.411  -2.441  0.00  0.00    -0.180 NA
ATOM     10  N   UNL     1      -0.372  -4.561  -4.604  0.00  0.00    -0.326 N 
ATOM     11  H   UNL     1       1.070  -6.561  -0.048  0.00  0.00    +0.149 HD
ATOM     12  H   UNL     1      -0.729  -3.807  -5.100  0.00  0.00    +0.145 HD
ATOM     13  H   UNL     1      -0.188  -5.398  -5.058  0.00  0.00    +0.145 HD
ENDROOT
BRANCH   3  14
ATOM     14  C   UNL     1       2.518  -4.007   0.878  0.00  0.00    -0.027 A 
ATOM     15  C   UNL     1       2.841  -3.511  -0.371  0.00  0.00    +0.006 A 
ATOM     16  C   UNL     1       4.034  -2.840  -0.562  0.00  0.00    +0.015 A 
ATOM     17  C   UNL     1       4.905  -2.664   0.498  0.00  0.00    +0.018 A 
ATOM     18  C   UNL     1       4.582  -3.159   1.748  0.00  0.00    +0.015 A 
ATOM     19  C   UNL     1       3.386  -3.826   1.939  0.00  0.00    +0.006 A 
ATOM     20 BR   UNL     1       6.538  -1.746   0.238  0.00  0.00    -0.050 Br
ENDBRANCH   3  14
BRANCH   1  26
ATOM     21  C   UNL     1      -1.200  -0.637   0.010  0.00  0.00    +0.125 A 
ATOM     22  C   UNL     1      -2.375   0.101   0.019  0.00  0.00    +0.046 A 
ATOM     23  C   UNL     1      -3.596  -0.545   0.027  0.00  0.00    +0.004 A 
ATOM     24  C   UNL     1      -3.648  -1.927   0.026  0.00  0.00    +0.001 A 
ATOM     25  C   UNL     1      -2.479  -2.665   0.017  0.00  0.00    +0.009 A 
ATOM     26  C   UNL     1      -1.255  -2.023   0.003  0.00  0.00    +0.019 A 
BRANCH  21  28
ATOM     27  C   UNL     1      -0.017   1.425   0.010  0.00  0.00    +0.277 C 
ATOM     28  O   UNL     1       0.002  -0.004   0.002  0.00  0.00    -0.495 OA
ENDBRANCH  21  28
ENDBRANCH   1  26
TORSDOF 3
