REMARK  Name = ZINC41514696
REMARK  11 active torsions:
REMARK  status: ('A' for Active; 'I' for Inactive)
REMARK    1  A    between atoms: C_1  and  C_2
REMARK    2  A    between atoms: C_2  and  C_3
REMARK    3  A    between atoms: C_2  and  C_4
REMARK    4  A    between atoms: C_2  and  C_5
REMARK    5  A    between atoms: C_8  and  C_11
REMARK    6  A    between atoms: C_18  and  O_32
REMARK    7  A    between atoms: C_19  and  C_22
REMARK    8  A    between atoms: C_22  and  N_23
REMARK    9  A    between atoms: N_23  and  C_24
REMARK   10  A    between atoms: N_23  and  C_25
REMARK   11  A    between atoms: C_25  and  C_26
REMARK                            x       y       z     vdW  Elec       q    Type
REMARK                         _______ _______ _______ _____ _____    ______ ____
ROOT
ATOM      1  C   UNL     1       2.692  -1.858  -4.726  0.00  0.00    +0.058 C 
ATOM      2  C   UNL     1       3.951  -1.435  -5.000  0.00  0.00    +0.176 C 
ATOM      3  C   UNL     1       4.723  -1.732  -6.218  0.00  0.00    +0.231 C 
ATOM      4  O   UNL     1       4.377  -2.399  -7.177  0.00  0.00    -0.283 OA
ATOM      5  C   UNL     1       6.011  -1.042  -6.016  0.00  0.00    +0.068 A 
ATOM      6  C   UNL     1       7.166  -0.932  -6.791  0.00  0.00    +0.019 A 
ATOM      7  C   UNL     1       8.228  -0.207  -6.330  0.00  0.00    +0.046 A 
ATOM      8  C   UNL     1       8.160   0.422  -5.090  0.00  0.00    +0.122 A 
ATOM      9  C   UNL     1       7.019   0.321  -4.310  0.00  0.00    +0.020 A 
ATOM     10  C   UNL     1       5.930  -0.413  -4.763  0.00  0.00    +0.144 A 
ATOM     11  O   UNL     1       4.724  -0.656  -4.207  0.00  0.00    -0.451 OA
ENDROOT
BRANCH   1  15
ATOM     12  C   UNL     1       0.702  -0.478  -1.246  0.00  0.00    -0.042 A 
ATOM     13  C   UNL     1       2.029  -0.146  -1.457  0.00  0.00    +0.005 A 
ATOM     14  C   UNL     1       2.683  -0.591  -2.586  0.00  0.00    +0.008 A 
ATOM     15  C   UNL     1       2.002  -1.380  -3.520  0.00  0.00    -0.021 A 
ATOM     16  C   UNL     1       0.661  -1.711  -3.298  0.00  0.00    +0.008 A 
ATOM     17  C   UNL     1       0.023  -1.263  -2.162  0.00  0.00    +0.005 A 
BRANCH  12  19
ATOM     18  C   UNL     1      -0.487  -1.186   0.812  0.00  0.00    +0.015 C 
ATOM     19  C   UNL     1      -0.005   0.012  -0.009  0.00  0.00    -0.013 C 
ATOM     20  C   UNL     1      -1.207   0.869  -0.414  0.00  0.00    +0.015 C 
ATOM     21  C   UNL     1       0.959   0.852   0.831  0.00  0.00    +0.015 C 
ENDBRANCH  12  19
ENDBRANCH   1  15
BRANCH   8  22
ATOM     22  O   UNL     1       9.221   1.140  -4.641  0.00  0.00    -0.506 OA
ATOM     23  H   UNL     1       9.201   2.073  -4.896  0.00  0.00    +0.292 HD
ENDBRANCH   8  22
BRANCH   9  24
ATOM     24  C   UNL     1       6.960   1.007  -2.969  0.00  0.00    -0.035 C 
BRANCH  24  25
ATOM     25  N   UNL     1       6.428   2.365  -3.137  0.00  0.00    +0.383 N 
ATOM     26  C   UNL     1       7.364   3.163  -3.940  0.00  0.00    -0.095 C 
ATOM     27  H   UNL     1       5.536   2.321  -3.606  0.00  0.00    -0.081 HD
BRANCH  25  28
ATOM     28  C   UNL     1       6.258   2.991  -1.819  0.00  0.00    -0.043 C 
BRANCH  28  29
ATOM     29  C   UNL     1       5.598   4.336  -1.983  0.00  0.00    -0.064 A 
ATOM     30  C   UNL     1       6.371   5.467  -2.169  0.00  0.00    +0.002 A 
ATOM     31  C   UNL     1       5.765   6.701  -2.319  0.00  0.00    +0.000 A 
ATOM     32  C   UNL     1       4.387   6.803  -2.283  0.00  0.00    +0.000 A 
ATOM     33  C   UNL     1       3.614   5.672  -2.098  0.00  0.00    +0.000 A 
ATOM     34  C   UNL     1       4.220   4.438  -1.952  0.00  0.00    +0.002 A 
ENDBRANCH  28  29
ENDBRANCH  25  28
ENDBRANCH  24  25
ENDBRANCH   9  24
TORSDOF 7
