REMARK  Name = ZINC13810955
REMARK  10 active torsions:
REMARK  status: ('A' for Active; 'I' for Inactive)
REMARK    1  A    between atoms: C_1  and  C_2
REMARK    2  A    between atoms: C_2  and  C_3
REMARK    3  A    between atoms: C_3  and  C_4
REMARK    4  A    between atoms: C_4  and  N_5
REMARK    5  A    between atoms: C_6  and  C_17
REMARK    6  A    between atoms: N_10  and  C_11
REMARK    7  A    between atoms: C_21  and  S_23
REMARK    8  A    between atoms: S_23  and  N_26
REMARK    9  A    between atoms: C_28  and  C_35
REMARK   10  A    between atoms: C_31  and  C_34
REMARK                            x       y       z     vdW  Elec       q    Type
REMARK                         _______ _______ _______ _____ _____    ______ ____
ROOT
ATOM      1  N   UNL     1      -1.369   2.265  -3.437  0.00  0.00    -0.321 N 
ATOM      2  C   UNL     1      -0.473   2.873  -4.274  0.00  0.00    +0.058 A 
ATOM      3  C   UNL     1      -0.529   2.630  -5.600  0.00  0.00    +0.075 A 
ATOM      4  S   UNL     1      -1.901   1.493  -5.715  0.00  0.00    -0.059 S 
ATOM      5  C   UNL     1      -2.304   1.415  -3.977  0.00  0.00    +0.152 A 
ATOM      6  N   UNL     1      -3.251   0.724  -3.371  0.00  0.00    -0.336 N 
ATOM      7  H   UNL     1      -3.422   0.853  -2.292  0.00  0.00    +0.168 HD
ENDROOT
BRANCH   6   8
ATOM      8  C   UNL     1      -4.021  -0.152  -4.084  0.00  0.00    +0.041 A 
ATOM      9  C   UNL     1      -5.259   0.252  -4.591  0.00  0.00    +0.025 A 
ATOM     10  C   UNL     1      -6.027  -0.636  -5.315  0.00  0.00    +0.002 A 
ATOM     11  C   UNL     1      -5.580  -1.928  -5.530  0.00  0.00    +0.000 A 
ATOM     12  C   UNL     1      -4.357  -2.337  -5.026  0.00  0.00    +0.002 A 
ATOM     13  C   UNL     1      -3.576  -1.458  -4.306  0.00  0.00    +0.025 A 
ENDBRANCH   6   8
BRANCH   2  14
ATOM     14  C   UNL     1       0.552   3.789  -3.728  0.00  0.00    +0.001 A 
ATOM     15  C   UNL     1       1.380   3.373  -2.685  0.00  0.00    +0.010 A 
ATOM     16  C   UNL     1       2.334   4.232  -2.180  0.00  0.00    +0.003 A 
ATOM     17  C   UNL     1       2.471   5.505  -2.707  0.00  0.00    +0.028 A 
ATOM     18  C   UNL     1       1.653   5.923  -3.742  0.00  0.00    +0.106 A 
ATOM     19  C   UNL     1       0.699   5.071  -4.259  0.00  0.00    +0.038 A 
BRANCH  18  20
ATOM     20  S   UNL     1       1.836   7.545  -4.406  0.00  0.00    +0.061 S 
ATOM     21  O   UNL     1       0.590   7.884  -4.998  0.00  0.00    -0.153 OA
ATOM     22  O   UNL     1       2.437   8.335  -3.389  0.00  0.00    -0.153 OA
BRANCH  20  23
ATOM     23  N   UNL     1       2.936   7.447  -5.640  0.00  0.00    -0.172 NA
ATOM     24  C   UNL     1       4.374   7.637  -5.391  0.00  0.00    +0.140 C 
ATOM     25  C   UNL     1       4.911   8.662  -6.390  0.00  0.00    +0.131 C 
ATOM     26  O   UNL     1       4.542   8.269  -7.714  0.00  0.00    -0.371 OA
ATOM     27  C   UNL     1       3.131   8.227  -7.941  0.00  0.00    +0.131 C 
ATOM     28  C   UNL     1       2.503   7.175  -7.020  0.00  0.00    +0.140 C 
ATOM     29  C   UNL     1       2.858   7.859  -9.400  0.00  0.00    +0.039 C 
ATOM     30  C   UNL     1       6.436   8.731  -6.283  0.00  0.00    +0.039 C 
ENDBRANCH  20  23
ENDBRANCH  18  20
ENDBRANCH   2  14
BRANCH   1  31
ATOM     31  C   UNL     1      -1.328   2.512  -1.993  0.00  0.00    +0.124 C 
BRANCH  31  32
ATOM     32  C   UNL     1      -2.102   3.792  -1.673  0.00  0.00    +0.021 C 
BRANCH  32  34
ATOM     33  C   UNL     1      -2.833   5.330   0.156  0.00  0.00    +0.004 C 
ATOM     34  C   UNL     1      -2.060   4.050  -0.165  0.00  0.00    -0.002 C 
ENDBRANCH  32  34
ENDBRANCH  31  32
ENDBRANCH   1  31
TORSDOF 7
