REMARK  Name = ZINC36660336
REMARK  11 active torsions:
REMARK  status: ('A' for Active; 'I' for Inactive)
REMARK    1  A    between atoms: C_1  and  C_2
REMARK    2  A    between atoms: C_2  and  N_3
REMARK    3  A    between atoms: N_3  and  C_4
REMARK    4  A    between atoms: N_3  and  C_6
REMARK    5  A    between atoms: C_4  and  C_5
REMARK    6  A    between atoms: C_6  and  C_7
REMARK    7  A    between atoms: C_7  and  N_8
REMARK    8  A    between atoms: C_14  and  C_18
REMARK    9  A    between atoms: C_19  and  C_21
REMARK   10  A    between atoms: N_26  and  S_27
REMARK   11  A    between atoms: S_27  and  C_30
REMARK                            x       y       z     vdW  Elec       q    Type
REMARK                         _______ _______ _______ _____ _____    ______ ____
ROOT
ATOM      1  N   UNL     1       2.637  -3.295  -0.502  0.00  0.00    -0.251 N 
ATOM      2  C   UNL     1       1.912  -4.097  -1.369  0.00  0.00    +0.168 A 
ATOM      3  N   UNL     1       0.858  -3.789  -2.089  0.00  0.00    -0.224 NA
ATOM      4  C   UNL     1       0.247  -4.680  -2.899  0.00  0.00    +0.080 A 
ATOM      5  C   UNL     1      -0.887  -4.479  -3.720  0.00  0.00    +0.029 A 
ATOM      6  C   UNL     1      -1.385  -5.500  -4.487  0.00  0.00    +0.005 A 
ATOM      7  C   UNL     1      -0.801  -6.758  -4.488  0.00  0.00    -0.049 A 
ATOM      8  C   UNL     1       0.309  -6.990  -3.697  0.00  0.00    +0.020 A 
ATOM      9  C   UNL     1       0.815  -5.974  -2.925  0.00  0.00    +0.041 A 
ATOM     10  S   UNL     1       2.179  -5.811  -1.798  0.00  0.00    -0.052 S 
ATOM     11  C   UNL     1      -1.371  -7.861  -5.342  0.00  0.00    +0.044 C 
ATOM     12  C   UNL     1       3.705  -3.799   0.147  0.00  0.00    +0.240 C 
ATOM     13  O   UNL     1       4.088  -4.923  -0.096  0.00  0.00    -0.273 OA
ENDROOT
BRANCH  12  14
ATOM     14  C   UNL     1       4.423  -2.964   1.176  0.00  0.00    +0.166 C 
ATOM     15  C   UNL     1       5.570  -2.178   0.506  0.00  0.00    +0.031 C 
ATOM     16  C   UNL     1       6.698  -2.235   1.571  0.00  0.00    +0.019 C 
ATOM     17  C   UNL     1       6.489  -3.648   2.170  0.00  0.00    +0.110 C 
ATOM     18  N   UNL     1       5.024  -3.835   2.196  0.00  0.00    -0.165 NA
BRANCH  18  19
ATOM     19  S   UNL     1       4.195  -4.855   3.204  0.00  0.00    +0.062 S 
ATOM     20  O   UNL     1       4.951  -4.943   4.404  0.00  0.00    -0.153 OA
ATOM     21  O   UNL     1       2.839  -4.429   3.187  0.00  0.00    -0.153 OA
BRANCH  19  22
ATOM     22  C   UNL     1       4.230  -6.456   2.469  0.00  0.00    +0.106 A 
ATOM     23  C   UNL     1       3.169  -6.881   1.690  0.00  0.00    +0.031 A 
ATOM     24  C   UNL     1       3.196  -8.137   1.113  0.00  0.00    +0.040 A 
ATOM     25  C   UNL     1       4.284  -8.968   1.314  0.00  0.00    +0.124 A 
ATOM     26  C   UNL     1       5.346  -8.541   2.094  0.00  0.00    +0.040 A 
ATOM     27  C   UNL     1       5.319  -7.283   2.667  0.00  0.00    +0.031 A 
ATOM     28  F   UNL     1       4.311 -10.196   0.751  0.00  0.00    -0.205 F 
ENDBRANCH  19  22
ENDBRANCH  18  19
ENDBRANCH  12  14
BRANCH   1  29
ATOM     29  C   UNL     1       2.242  -1.900  -0.292  0.00  0.00    +0.097 C 
BRANCH  29  30
ATOM     30  C   UNL     1       1.269  -1.817   0.885  0.00  0.00    -0.059 C 
BRANCH  30  31
ATOM     31  N   UNL     1       0.873  -0.418   1.096  0.00  0.00    +0.380 N 
ATOM     32  H   UNL     1       1.698   0.151   1.215  0.00  0.00    -0.082 HD
BRANCH  31  34
ATOM     33  C   UNL     1      -0.171   1.552   0.084  0.00  0.00    -0.017 C 
ATOM     34  C   UNL     1       0.115   0.057  -0.069  0.00  0.00    -0.082 C 
ENDBRANCH  31  34
BRANCH  31  35
ATOM     35  C   UNL     1       0.035  -0.322   2.298  0.00  0.00    -0.082 C 
ATOM     36  C   UNL     1       0.869  -0.675   3.531  0.00  0.00    -0.017 C 
ENDBRANCH  31  35
ENDBRANCH  30  31
ENDBRANCH  29  30
ENDBRANCH   1  29
TORSDOF 8
