REMARK  Name = ZINC35069325
REMARK  13 active torsions:
REMARK  status: ('A' for Active; 'I' for Inactive)
REMARK    1  A    between atoms: C_1  and  C_2
REMARK    2  A    between atoms: C_2  and  C_3
REMARK    3  A    between atoms: C_3  and  C_5
REMARK    4  A    between atoms: C_3  and  N_24
REMARK    5  A    between atoms: N_15  and  C_16
REMARK    6  A    between atoms: C_19  and  C_23
REMARK    7  A    between atoms: C_20  and  C_22
REMARK    8  A    between atoms: N_24  and  C_25
REMARK    9  A    between atoms: C_25  and  C_26
REMARK   10  A    between atoms: C_26  and  N_27
REMARK   11  A    between atoms: N_27  and  C_28
REMARK   12  A    between atoms: N_27  and  C_29
REMARK   13  A    between atoms: C_30  and  C_32
REMARK                            x       y       z     vdW  Elec       q    Type
REMARK                         _______ _______ _______ _____ _____    ______ ____
ROOT
ATOM      1  C   UNL     1      -1.492  -0.897  -0.331  0.00  0.00    +0.143 C 
ENDROOT
BRANCH   1   2
ATOM      2  C   UNL     1      -1.530  -2.276  -0.938  0.00  0.00    +0.138 A 
ATOM      3  N   UNL     1      -0.950  -3.246  -0.299  0.00  0.00    -0.231 NA
ATOM      4  C   UNL     1      -0.944  -4.513  -0.784  0.00  0.00    +0.078 A 
ATOM      5  C   UNL     1      -0.321  -5.557  -0.097  0.00  0.00    +0.028 A 
ATOM      6  C   UNL     1      -0.339  -6.828  -0.626  0.00  0.00    +0.002 A 
ATOM      7  C   UNL     1      -0.969  -7.086  -1.836  0.00  0.00    +0.001 A 
ATOM      8  C   UNL     1      -1.590  -6.073  -2.533  0.00  0.00    +0.015 A 
ATOM      9  C   UNL     1      -1.584  -4.779  -2.015  0.00  0.00    +0.065 A 
ATOM     10  C   UNL     1      -2.231  -3.659  -2.713  0.00  0.00    +0.266 A 
ATOM     11  O   UNL     1      -2.800  -3.821  -3.777  0.00  0.00    -0.267 OA
ATOM     12  N   UNL     1      -2.174  -2.441  -2.124  0.00  0.00    -0.263 N 
BRANCH  12  13
ATOM     13  C   UNL     1      -2.779  -1.341  -2.746  0.00  0.00    +0.051 A 
ATOM     14  C   UNL     1      -1.996  -0.321  -3.269  0.00  0.00    +0.026 A 
ATOM     15  C   UNL     1      -2.596   0.763  -3.881  0.00  0.00    +0.005 A 
ATOM     16  C   UNL     1      -3.974   0.832  -3.973  0.00  0.00    -0.047 A 
ATOM     17  C   UNL     1      -4.756  -0.183  -3.453  0.00  0.00    -0.046 A 
ATOM     18  C   UNL     1      -4.162  -1.272  -2.844  0.00  0.00    +0.030 A 
ATOM     19  C   UNL     1      -6.257  -0.103  -3.554  0.00  0.00    +0.044 C 
ATOM     20  C   UNL     1      -4.625   2.015  -4.642  0.00  0.00    +0.044 C 
ENDBRANCH  12  13
ENDBRANCH   1   2
BRANCH   1  21
ATOM     21  N   UNL     1      -2.233  -0.899   0.933  0.00  0.00    -0.289 N 
ATOM     22  C   UNL     1      -3.301  -0.092   1.090  0.00  0.00    +0.250 C 
ATOM     23  O   UNL     1      -3.627   0.665   0.196  0.00  0.00    -0.270 OA
BRANCH  22  24
ATOM     24  C   UNL     1      -4.074  -0.126   2.347  0.00  0.00    +0.072 A 
ATOM     25  C   UNL     1      -3.471  -0.557   3.531  0.00  0.00    +0.016 A 
ATOM     26  C   UNL     1      -4.198  -0.587   4.701  0.00  0.00    +0.001 A 
ATOM     27  C   UNL     1      -5.525  -0.190   4.708  0.00  0.00    +0.003 A 
ATOM     28  C   UNL     1      -6.131   0.238   3.542  0.00  0.00    +0.039 A 
ATOM     29  C   UNL     1      -5.412   0.279   2.361  0.00  0.00    +0.135 A 
ATOM     30  F   UNL     1      -6.003   0.703   1.222  0.00  0.00    -0.205 F 
ENDBRANCH  22  24
BRANCH  21  31
ATOM     31  C   UNL     1      -1.813  -1.778   2.027  0.00  0.00    +0.090 C 
BRANCH  31  32
ATOM     32  C   UNL     1      -0.661  -1.125   2.793  0.00  0.00    -0.060 C 
BRANCH  32  33
ATOM     33  N   UNL     1      -0.154  -2.060   3.806  0.00  0.00    +0.377 N 
ATOM     34  C   UNL     1       1.025  -1.479   4.463  0.00  0.00    -0.097 C 
ATOM     35  C   UNL     1      -1.199  -2.311   4.808  0.00  0.00    -0.097 C 
ATOM     36  H   UNL     1       0.103  -2.930   3.363  0.00  0.00    -0.083 HD
ENDBRANCH  32  33
ENDBRANCH  31  32
ENDBRANCH  21  31
ENDBRANCH   1  21
BRANCH   1  38
ATOM     37  C   UNL     1      -0.000   0.910   0.537  0.00  0.00    +0.006 C 
ATOM     38  C   UNL     1      -0.039  -0.494  -0.070  0.00  0.00    +0.027 C 
ENDBRANCH   1  38
TORSDOF 8
