REMARK  Name = ZINC45418020
REMARK  13 active torsions:
REMARK  status: ('A' for Active; 'I' for Inactive)
REMARK    1  A    between atoms: C_1  and  C_2
REMARK    2  A    between atoms: C_5  and  C_8
REMARK    3  A    between atoms: C_8  and  C_10
REMARK    4  A    between atoms: C_8  and  N_11
REMARK    5  A    between atoms: N_11  and  C_12
REMARK    6  A    between atoms: C_13  and  C_15
REMARK    7  A    between atoms: C_15  and  C_16
REMARK    8  A    between atoms: C_17  and  C_26
REMARK    9  A    between atoms: C_18  and  C_25
REMARK   10  A    between atoms: C_19  and  C_22
REMARK   11  A    between atoms: C_22  and  C_24
REMARK   12  A    between atoms: C_26  and  O_28
REMARK   13  A    between atoms: O_28  and  C_29
REMARK                            x       y       z     vdW  Elec       q    Type
REMARK                         _______ _______ _______ _____ _____    ______ ____
ROOT
ATOM      1  C   UNL     1      -2.320  -6.393   2.091  0.00  0.00    +0.150 C 
ENDROOT
BRANCH   1   2
ATOM      2  C   UNL     1      -3.282  -7.444   1.600  0.00  0.00    +0.040 A 
ATOM      3  C   UNL     1      -2.960  -8.758   1.308  0.00  0.00    +0.083 A 
ATOM      4  C   UNL     1      -4.147  -9.394   0.884  0.00  0.00    -0.008 A 
ATOM      5  C   UNL     1      -5.146  -8.445   0.932  0.00  0.00    +0.086 A 
ATOM      6  N   UNL     1      -4.592  -7.263   1.379  0.00  0.00    -0.354 N 
ATOM      7  H   UNL     1      -5.074  -6.431   1.510  0.00  0.00    +0.166 HD
ATOM      8  C   UNL     1      -4.294 -10.832   0.459  0.00  0.00    +0.047 C 
BRANCH   5   9
ATOM      9  C   UNL     1      -6.504  -8.650   0.590  0.00  0.00    +0.176 C 
ATOM     10  O   UNL     1      -6.877  -9.742   0.212  0.00  0.00    -0.291 OA
ATOM     11  C   UNL     1      -7.487  -7.513   0.693  0.00  0.00    +0.093 C 
ENDBRANCH   5   9
BRANCH   3  12
ATOM     12  C   UNL     1      -1.629  -9.378   1.420  0.00  0.00    +0.341 C 
ATOM     13  O   UNL     1      -1.290  -9.906   2.461  0.00  0.00    -0.245 OA
BRANCH  12  14
ATOM     14  O   UNL     1      -0.787  -9.360   0.368  0.00  0.00    -0.464 OA
ATOM     15  C   UNL     1       0.488  -9.980   0.547  0.00  0.00    +0.280 C 
ENDBRANCH  12  14
ENDBRANCH   3  12
ENDBRANCH   1   2
BRANCH   1  18
ATOM     16  N   UNL     1      -0.720  -4.780   1.112  0.00  0.00    -0.297 N 
ATOM     17  C   UNL     1      -0.402  -4.341   2.473  0.00  0.00    +0.132 C 
ATOM     18  C   UNL     1      -1.630  -5.754   0.913  0.00  0.00    +0.222 C 
ATOM     19  O   UNL     1      -1.893  -6.117  -0.214  0.00  0.00    -0.275 OA
BRANCH  16  20
ATOM     20  C   UNL     1      -0.049  -4.159  -0.034  0.00  0.00    +0.103 C 
ATOM     21  C   UNL     1       1.467  -4.244   0.156  0.00  0.00    +0.033 C 
BRANCH  20  26
ATOM     22  C   UNL     1      -1.639   1.383  -0.422  0.00  0.00    +0.044 C 
ATOM     23  C   UNL     1      -1.224  -0.062  -0.321  0.00  0.00    -0.050 A 
ATOM     24  C   UNL     1      -1.382  -0.905  -1.406  0.00  0.00    +0.004 A 
ATOM     25  C   UNL     1      -1.002  -2.230  -1.313  0.00  0.00    +0.006 A 
ATOM     26  C   UNL     1      -0.463  -2.714  -0.135  0.00  0.00    -0.027 A 
ATOM     27  C   UNL     1      -0.304  -1.871   0.949  0.00  0.00    +0.006 A 
ATOM     28  C   UNL     1      -0.680  -0.545   0.855  0.00  0.00    +0.004 A 
ENDBRANCH  20  26
ENDBRANCH  16  20
ENDBRANCH   1  18
TORSDOF 7
