REMARK  Name = ZINC36340358
REMARK  11 active torsions:
REMARK  status: ('A' for Active; 'I' for Inactive)
REMARK    1  A    between atoms: C_1  and  C_2
REMARK    2  A    between atoms: C_3  and  C_27
REMARK    3  A    between atoms: C_4  and  N_14
REMARK    4  A    between atoms: C_6  and  C_8
REMARK    5  A    between atoms: N_17  and  C_20
REMARK    6  A    between atoms: C_20  and  C_21
REMARK    7  A    between atoms: C_21  and  C_23
REMARK    8  A    between atoms: C_21  and  O_26
REMARK    9  A    between atoms: C_23  and  O_24
REMARK   10  A    between atoms: O_24  and  C_25
REMARK   11  A    between atoms: C_27  and  C_28
REMARK                            x       y       z     vdW  Elec       q    Type
REMARK                         _______ _______ _______ _____ _____    ______ ____
ROOT
ATOM      1  C   UNL     1      -0.654   1.496   0.146  0.00  0.00    +0.066 C 
ATOM      2  C   UNL     1      -0.444   0.006   0.080  0.00  0.00    +0.047 A 
ATOM      3  C   UNL     1      -0.211  -0.614  -1.133  0.00  0.00    +0.018 A 
ATOM      4  C   UNL     1      -0.021  -1.998  -1.149  0.00  0.00    +0.129 A 
ATOM      5  N   UNL     1      -0.072  -2.669  -0.004  0.00  0.00    -0.212 NA
ATOM      6  C   UNL     1      -0.298  -2.037   1.139  0.00  0.00    +0.162 A 
ATOM      7  N   UNL     1      -0.476  -0.724   1.184  0.00  0.00    -0.232 NA
ENDROOT
BRANCH   6   8
ATOM      8  C   UNL     1      -0.349  -2.817   2.399  0.00  0.00    +0.019 A 
ATOM      9  C   UNL     1      -0.153  -4.197   2.376  0.00  0.00    +0.011 A 
ATOM     10  C   UNL     1      -0.201  -4.918   3.552  0.00  0.00    +0.001 A 
ATOM     11  C   UNL     1      -0.442  -4.274   4.752  0.00  0.00    +0.000 A 
ATOM     12  C   UNL     1      -0.636  -2.905   4.781  0.00  0.00    +0.001 A 
ATOM     13  C   UNL     1      -0.586  -2.173   3.612  0.00  0.00    +0.011 A 
ENDBRANCH   6   8
BRANCH   4  14
ATOM     14  N   UNL     1       0.216  -2.661  -2.342  0.00  0.00    -0.312 N 
ATOM     15  C   UNL     1      -0.895  -3.042  -3.228  0.00  0.00    +0.122 C 
ATOM     16  C   UNL     1      -0.756  -4.529  -3.571  0.00  0.00    +0.103 C 
ATOM     17  N   UNL     1       0.586  -4.779  -4.115  0.00  0.00    -0.297 NA
ATOM     18  C   UNL     1       1.627  -4.491  -3.120  0.00  0.00    +0.103 C 
ATOM     19  C   UNL     1       1.585  -2.997  -2.761  0.00  0.00    +0.122 C 
BRANCH  17  20
ATOM     20  C   UNL     1       0.703  -6.155  -4.617  0.00  0.00    +0.118 C 
BRANCH  20  21
ATOM     21  C   UNL     1       2.012  -6.305  -5.394  0.00  0.00    +0.154 C 
BRANCH  21  22
ATOM     22  O   UNL     1       2.018  -5.394  -6.496  0.00  0.00    -0.388 OA
ATOM     23  H   UNL     1       1.296  -5.532  -7.124  0.00  0.00    +0.210 HD
ENDBRANCH  21  22
BRANCH  21  24
ATOM     24  C   UNL     1       2.134  -7.738  -5.916  0.00  0.00    +0.192 C 
BRANCH  24  25
ATOM     25  O   UNL     1       3.407  -7.910  -6.541  0.00  0.00    -0.380 OA
ATOM     26  C   UNL     1       3.624  -9.222  -7.066  0.00  0.00    +0.194 C 
ENDBRANCH  24  25
ENDBRANCH  21  24
ENDBRANCH  20  21
ENDBRANCH  17  20
ENDBRANCH   4  14
BRANCH   3  27
ATOM     27  C   UNL     1      -0.162   0.185  -2.410  0.00  0.00    +0.075 C 
BRANCH  27  28
ATOM     28  C   UNL     1       1.219   0.763  -2.588  0.00  0.00    -0.043 A 
ATOM     29  C   UNL     1       1.562   1.941  -1.950  0.00  0.00    +0.007 A 
ATOM     30  C   UNL     1       2.828   2.472  -2.112  0.00  0.00    +0.038 A 
ATOM     31  C   UNL     1       3.752   1.824  -2.914  0.00  0.00    +0.123 A 
ATOM     32  C   UNL     1       3.407   0.644  -3.553  0.00  0.00    +0.038 A 
ATOM     33  C   UNL     1       2.142   0.113  -3.385  0.00  0.00    +0.007 A 
ATOM     34  F   UNL     1       4.989   2.342  -3.074  0.00  0.00    -0.205 F 
ENDBRANCH  27  28
ENDBRANCH   3  27
TORSDOF 9
