REMARK  Name = ZINC63731280
REMARK  8 active torsions:
REMARK  status: ('A' for Active; 'I' for Inactive)
REMARK    1  A    between atoms: C_1  and  C_2
REMARK    2  A    between atoms: C_2  and  C_3
REMARK    3  A    between atoms: C_3  and  C_5
REMARK    4  A    between atoms: C_3  and  S_13
REMARK    5  A    between atoms: S_13  and  C_14
REMARK    6  A    between atoms: C_19  and  C_22
REMARK    7  A    between atoms: N_25  and  C_26
REMARK    8  A    between atoms: C_31  and  C_32
REMARK                            x       y       z     vdW  Elec       q    Type
REMARK                         _______ _______ _______ _____ _____    ______ ____
ROOT
ATOM      1  C   UNL     1      -2.429   1.885  -1.751  0.00  0.00    +0.260 C 
ATOM      2  N   UNL     1      -1.119   2.543  -1.749  0.00  0.00    -0.230 NA
ATOM      3  C   UNL     1      -0.586   2.933  -0.638  0.00  0.00    +0.185 C 
ATOM      4  C   UNL     1      -1.336   2.833   0.661  0.00  0.00    +0.083 C 
ATOM      5  C   UNL     1      -0.501   3.307   1.591  0.00  0.00    +0.075 C 
ATOM      6  N   UNL     1       0.636   3.695   0.974  0.00  0.00    -0.152 NA
ATOM      7  N   UNL     1       0.599   3.500  -0.301  0.00  0.00    -0.129 NA
ATOM      8  C   UNL     1      -0.781   3.395   3.069  0.00  0.00    +0.068 C 
ATOM      9  C   UNL     1      -2.717   2.306   0.660  0.00  0.00    +0.133 C 
ATOM     10  N   UNL     1      -3.343   1.891   1.727  0.00  0.00    -0.285 NA
ATOM     11  N   UNL     1      -3.272   2.309  -0.630  0.00  0.00    -0.253 N 
ATOM     12  H   UNL     1      -2.901   1.917   2.590  0.00  0.00    +0.188 HD
ENDROOT
BRANCH  11  13
ATOM     13  C   UNL     1      -4.597   2.705  -0.838  0.00  0.00    +0.042 A 
ATOM     14  C   UNL     1      -5.621   1.768  -0.780  0.00  0.00    +0.043 A 
ATOM     15  C   UNL     1      -6.929   2.162  -0.986  0.00  0.00    +0.043 A 
ATOM     16  C   UNL     1      -7.219   3.490  -1.250  0.00  0.00    +0.020 A 
ATOM     17  C   UNL     1      -6.202   4.424  -1.308  0.00  0.00    +0.006 A 
ATOM     18  C   UNL     1      -4.893   4.037  -1.097  0.00  0.00    -0.029 A 
ATOM     19  C   UNL     1      -3.785   5.058  -1.155  0.00  0.00    +0.045 C 
ATOM     20 CL   UNL     1      -8.210   0.993  -0.914  0.00  0.00    -0.083 Cl
ENDBRANCH  11  13
BRANCH   1  21
ATOM     21  S   UNL     1      -2.183   0.090  -1.653  0.00  0.00    -0.102 S 
BRANCH  21  22
ATOM     22  C   UNL     1      -1.566  -0.359  -3.299  0.00  0.00    +0.136 C 
BRANCH  22  23
ATOM     23  C   UNL     1      -0.172   0.185  -3.478  0.00  0.00    +0.229 C 
ATOM     24  O   UNL     1       0.525   0.400  -2.509  0.00  0.00    -0.274 OA
ATOM     25  N   UNL     1       0.300   0.434  -4.716  0.00  0.00    -0.296 N 
ATOM     26  C   UNL     1      -0.528   0.187  -5.906  0.00  0.00    +0.136 C 
ATOM     27  C   UNL     1      -0.507   1.447  -6.779  0.00  0.00    +0.179 C 
ATOM     28  O   UNL     1       0.849   1.832  -7.018  0.00  0.00    -0.377 OA
ATOM     29  C   UNL     1       1.574   2.182  -5.837  0.00  0.00    +0.179 C 
ATOM     30  C   UNL     1       1.658   0.965  -4.916  0.00  0.00    +0.136 C 
ENDBRANCH  22  23
BRANCH  22  32
ATOM     31  C   UNL     1      -2.969  -2.425  -3.372  0.00  0.00    +0.005 C 
ATOM     32  C   UNL     1      -1.540  -1.883  -3.436  0.00  0.00    +0.020 C 
ENDBRANCH  22  32
ENDBRANCH  21  22
ENDBRANCH   1  21
TORSDOF 5
