REMARK  Name = ZINC21673411
REMARK  7 active torsions:
REMARK  status: ('A' for Active; 'I' for Inactive)
REMARK    1  A    between atoms: C_1  and  C_2
REMARK    2  A    between atoms: C_5  and  N_8
REMARK    3  A    between atoms: C_9  and  C_24
REMARK    4  A    between atoms: C_12  and  S_13
REMARK    5  A    between atoms: S_13  and  C_14
REMARK    6  A    between atoms: C_14  and  C_16
REMARK    7  A    between atoms: C_14  and  C_17
REMARK                            x       y       z     vdW  Elec       q    Type
REMARK                         _______ _______ _______ _____ _____    ______ ____
ROOT
ATOM      1  N   UNL     1      -0.035  -0.173   4.077  0.00  0.00    -0.270 N 
ATOM      2  C   UNL     1      -1.065   0.534   4.657  0.00  0.00    +0.169 A 
ATOM      3  N   UNL     1      -1.852   0.933   3.684  0.00  0.00    -0.128 NA
ATOM      4  N   UNL     1      -1.390   0.537   2.553  0.00  0.00    -0.122 NA
ATOM      5  C   UNL     1      -0.284  -0.150   2.732  0.00  0.00    +0.197 A 
ENDROOT
BRANCH   1  10
ATOM      6  C   UNL     1       4.330  -2.660   6.717  0.00  0.00    +0.044 C 
ATOM      7  C   UNL     1       3.171  -2.000   6.016  0.00  0.00    -0.050 A 
ATOM      8  C   UNL     1       3.390  -0.899   5.209  0.00  0.00    +0.005 A 
ATOM      9  C   UNL     1       2.330  -0.291   4.565  0.00  0.00    +0.026 A 
ATOM     10  C   UNL     1       1.044  -0.788   4.729  0.00  0.00    +0.051 A 
ATOM     11  C   UNL     1       0.827  -1.890   5.544  0.00  0.00    +0.026 A 
ATOM     12  C   UNL     1       1.891  -2.497   6.181  0.00  0.00    +0.005 A 
ENDBRANCH   1  10
BRANCH   2  13
ATOM     13  C   UNL     1      -1.251   0.793   6.100  0.00  0.00    +0.020 A 
ATOM     14  C   UNL     1      -2.496   1.196   6.585  0.00  0.00    +0.013 A 
ATOM     15  C   UNL     1      -2.664   1.431   7.934  0.00  0.00    +0.021 A 
ATOM     16  C   UNL     1      -1.598   1.279   8.804  0.00  0.00    +0.041 A 
ATOM     17  C   UNL     1      -0.358   0.885   8.328  0.00  0.00    +0.021 A 
ATOM     18  C   UNL     1      -0.179   0.642   6.982  0.00  0.00    +0.013 A 
ATOM     19 CL   UNL     1      -1.815   1.584  10.499  0.00  0.00    -0.084 Cl
ENDBRANCH   2  13
BRANCH   5  20
ATOM     20  S   UNL     1       0.700  -0.894   1.473  0.00  0.00    -0.073 S 
BRANCH  20  21
ATOM     21  C   UNL     1      -0.261  -0.434   0.010  0.00  0.00    +0.137 C 
ATOM     22  C   UNL     1      -0.240   1.087  -0.156  0.00  0.00    +0.029 C 
BRANCH  21  23
ATOM     23  C   UNL     1       0.341  -1.082  -1.210  0.00  0.00    +0.229 C 
ATOM     24  O   UNL     1       1.489  -1.472  -1.186  0.00  0.00    -0.274 OA
ATOM     25  N   UNL     1      -0.397  -1.227  -2.329  0.00  0.00    -0.301 N 
ATOM     26  C   UNL     1      -1.796  -0.808  -2.493  0.00  0.00    +0.108 C 
ATOM     27  C   UNL     1      -2.226  -1.197  -3.923  0.00  0.00    +0.020 C 
ATOM     28  C   UNL     1      -1.229  -2.328  -4.288  0.00  0.00    +0.020 C 
ATOM     29  C   UNL     1       0.064  -1.840  -3.588  0.00  0.00    +0.108 C 
ENDBRANCH  21  23
ENDBRANCH  20  21
ENDBRANCH   5  20
TORSDOF 5
