REMARK  Name = ZINC32092494
REMARK  5 active torsions:
REMARK  status: ('A' for Active; 'I' for Inactive)
REMARK    1  A    between atoms: C_1  and  C_2
REMARK    2  A    between atoms: C_5  and  N_8
REMARK    3  A    between atoms: C_9  and  C_11
REMARK    4  A    between atoms: C_20  and  C_23
REMARK    5  A    between atoms: C_21  and  C_22
REMARK                            x       y       z     vdW  Elec       q    Type
REMARK                         _______ _______ _______ _____ _____    ______ ____
ROOT
ATOM      1  C   UNL     1       0.259  -6.275   1.153  0.00  0.00    +0.204 C 
ATOM      2  C   UNL     1      -0.949  -6.926   0.476  0.00  0.00    +0.132 C 
ATOM      3  C   UNL     1      -2.133  -6.977   1.400  0.00  0.00    +0.221 C 
ATOM      4  O   UNL     1      -3.246  -6.819   0.944  0.00  0.00    -0.275 OA
ATOM      5  N   UNL     1      -1.989  -7.195   2.726  0.00  0.00    -0.270 N 
ATOM      6  C   UNL     1      -0.689  -7.247   3.234  0.00  0.00    +0.128 A 
ATOM      7  N   UNL     1       0.391  -6.815   2.508  0.00  0.00    -0.237 N 
ATOM      8  N   UNL     1       1.534  -6.993   3.281  0.00  0.00    -0.169 NA
ATOM      9  C   UNL     1       1.172  -7.515   4.438  0.00  0.00    +0.098 A 
ATOM     10  C   UNL     1      -0.238  -7.684   4.426  0.00  0.00    +0.017 A 
ATOM     11  C   UNL     1      -1.077  -8.250   5.542  0.00  0.00    +0.049 C 
ATOM     12  H   UNL     1      -2.759  -7.312   3.304  0.00  0.00    +0.156 HD
ENDROOT
BRANCH   9  13
ATOM     13  C   UNL     1       2.082  -7.865   5.557  0.00  0.00    +0.003 A 
ATOM     14  C   UNL     1       1.902  -9.057   6.256  0.00  0.00    +0.013 A 
ATOM     15  C   UNL     1       2.750  -9.379   7.296  0.00  0.00    +0.039 A 
ATOM     16  C   UNL     1       3.779  -8.519   7.645  0.00  0.00    +0.123 A 
ATOM     17  C   UNL     1       3.961  -7.333   6.952  0.00  0.00    +0.039 A 
ATOM     18  C   UNL     1       3.122  -7.006   5.907  0.00  0.00    +0.013 A 
ATOM     19  F   UNL     1       4.607  -8.838   8.664  0.00  0.00    -0.205 F 
ENDBRANCH   9  13
BRANCH   1  21
ATOM     20  N   UNL     1      -0.096  -4.071   0.087  0.00  0.00    -0.284 N 
ATOM     21  C   UNL     1       0.057  -4.783   1.221  0.00  0.00    +0.242 C 
ATOM     22  O   UNL     1       0.031  -4.223   2.297  0.00  0.00    -0.273 OA
ATOM     23  H   UNL     1      -0.143  -4.526  -0.768  0.00  0.00    +0.155 HD
BRANCH  20  28
ATOM     24  C   UNL     1      -0.456   1.586   0.316  0.00  0.00    +0.044 C 
ATOM     25  C   UNL     1      -0.360   0.083   0.255  0.00  0.00    -0.050 A 
ATOM     26  C   UNL     1      -0.913  -0.685   1.264  0.00  0.00    +0.005 A 
ATOM     27  C   UNL     1      -0.827  -2.062   1.211  0.00  0.00    +0.023 A 
ATOM     28  C   UNL     1      -0.185  -2.676   0.143  0.00  0.00    +0.033 A 
ATOM     29  C   UNL     1       0.368  -1.902  -0.868  0.00  0.00    +0.023 A 
ATOM     30  C   UNL     1       0.275  -0.525  -0.812  0.00  0.00    +0.005 A 
ENDBRANCH  20  28
ENDBRANCH   1  21
TORSDOF 3
