REMARK  Name = ZINC02197516
REMARK  4 active torsions:
REMARK  status: ('A' for Active; 'I' for Inactive)
REMARK    1  A    between atoms: C_1  and  C_2
REMARK    2  A    between atoms: C_7  and  C_8
REMARK    3  A    between atoms: N_24  and  C_27
REMARK    4  A    between atoms: C_31  and  N_33
REMARK                            x       y       z     vdW  Elec       q    Type
REMARK                         _______ _______ _______ _____ _____    ______ ____
ROOT
ATOM      1  C   UNL     1      11.096   5.020  -0.945  0.00  0.00    +0.044 C 
ATOM      2  C   UNL     1       9.595   4.902  -1.003  0.00  0.00    -0.046 A 
ATOM      3  C   UNL     1       8.805   5.983  -0.659  0.00  0.00    +0.004 A 
ATOM      4  C   UNL     1       7.426   5.875  -0.713  0.00  0.00    +0.005 A 
ATOM      5  C   UNL     1       6.843   4.691  -1.107  0.00  0.00    -0.027 A 
ATOM      6  C   UNL     1       7.628   3.596  -1.456  0.00  0.00    +0.039 A 
ATOM      7  C   UNL     1       9.015   3.714  -1.400  0.00  0.00    -0.026 A 
ATOM      8  C   UNL     1       9.885   2.542  -1.773  0.00  0.00    +0.046 C 
ATOM      9  N   UNL     1       6.819   2.518  -1.819  0.00  0.00    -0.286 N 
ATOM     10  C   UNL     1       5.508   2.816  -1.739  0.00  0.00    +0.212 C 
ATOM     11  O   UNL     1       4.580   2.077  -1.992  0.00  0.00    -0.277 OA
ATOM     12  C   UNL     1       5.418   4.245  -1.272  0.00  0.00    +0.053 C 
ATOM     13  C   UNL     1       4.640   4.351   0.045  0.00  0.00    +0.089 C 
ATOM     14  C   UNL     1       3.845   5.680  -0.073  0.00  0.00    +0.074 C 
ATOM     15  C   UNL     1       4.219   6.253  -1.452  0.00  0.00    -0.054 C 
ATOM     16  C   UNL     1       3.459   4.392  -2.682  0.00  0.00    -0.076 C 
ATOM     17  C   UNL     1       2.454   5.521  -2.990  0.00  0.00    -0.020 C 
ATOM     18  C   UNL     1       2.943   6.730  -2.169  0.00  0.00    -0.016 C 
ATOM     19  C   UNL     1       2.404   5.223  -0.097  0.00  0.00    +0.228 C 
ATOM     20  O   UNL     1       1.440   5.952  -0.188  0.00  0.00    -0.275 OA
ATOM     21  N   UNL     1       2.358   3.889   0.000  0.00  0.00    -0.210 N 
ATOM     22  C   UNL     1       3.556   3.298   0.083  0.00  0.00    +0.229 C 
ATOM     23  O   UNL     1       3.742   2.103   0.174  0.00  0.00    -0.275 OA
ATOM     24  H   UNL     1       7.161   1.654  -2.098  0.00  0.00    +0.155 HD
ATOM     25  N   UNL     1       4.664   5.097  -2.197  0.00  0.00    +0.395 N 
ATOM     26  H   UNL     1       5.256   5.375  -2.988  0.00  0.00    -0.079 HD
ENDROOT
BRANCH  21  27
ATOM     27  C   UNL     1       1.155   3.170   0.008  0.00  0.00    +0.046 A 
ATOM     28  C   UNL     1       0.280   3.291   1.079  0.00  0.00    +0.025 A 
ATOM     29  C   UNL     1      -0.905   2.581   1.085  0.00  0.00    +0.024 A 
ATOM     30  C   UNL     1      -1.218   1.746   0.027  0.00  0.00    +0.071 A 
ATOM     31  C   UNL     1      -0.350   1.628  -1.044  0.00  0.00    +0.146 A 
ATOM     32  C   UNL     1       0.836   2.336  -1.055  0.00  0.00    +0.058 A 
ATOM     33 CL   UNL     1      -2.704   0.849   0.041  0.00  0.00    -0.081 Cl
BRANCH  31  34
ATOM     34  N   UNL     1      -0.690   0.739  -2.177  0.00  0.00    +0.058 N 
ATOM     35  O   UNL     1       0.075   0.631  -3.118  0.00  0.00    -0.126 OA
ATOM     36  O   UNL     1      -1.736   0.114  -2.169  0.00  0.00    -0.126 OA
ENDBRANCH  31  34
ENDBRANCH  21  27
TORSDOF 2
