REMARK  Name = ZINC63350657
REMARK  7 active torsions:
REMARK  status: ('A' for Active; 'I' for Inactive)
REMARK    1  A    between atoms: C_1  and  O_2
REMARK    2  A    between atoms: O_2  and  C_3
REMARK    3  A    between atoms: C_3  and  C_5
REMARK    4  A    between atoms: C_20  and  C_22
REMARK    5  A    between atoms: C_22  and  O_23
REMARK    6  A    between atoms: O_23  and  C_24
REMARK    7  A    between atoms: C_28  and  C_35
REMARK                            x       y       z     vdW  Elec       q    Type
REMARK                         _______ _______ _______ _____ _____    ______ ____
ROOT
ATOM      1  C   UNL     1       0.666  -2.103  -1.119  0.00  0.00    +0.189 C 
ATOM      2  C   UNL     1       1.885  -2.616  -0.330  0.00  0.00    +0.067 C 
ATOM      3  C   UNL     1       2.088  -4.055  -0.736  0.00  0.00    -0.035 C 
ATOM      4  C   UNL     1       2.215  -5.161  -0.014  0.00  0.00    -0.001 A 
ATOM      5  C   UNL     1       2.314  -5.377   1.439  0.00  0.00    +0.010 A 
ATOM      6  C   UNL     1       2.418  -6.669   1.847  0.00  0.00    +0.001 A 
ATOM      7  C   UNL     1       2.433  -7.755   0.966  0.00  0.00    +0.002 A 
ATOM      8  C   UNL     1       2.356  -7.649  -0.384  0.00  0.00    +0.026 A 
ATOM      9  C   UNL     1       2.251  -6.338  -0.934  0.00  0.00    +0.043 A 
ATOM     10  N   UNL     1       2.186  -5.949  -2.173  0.00  0.00    -0.376 N 
ATOM     11  C   UNL     1       2.164  -4.486  -2.196  0.00  0.00    +0.124 C 
ATOM     12  C   UNL     1       0.905  -3.940  -2.877  0.00  0.00    +0.137 C 
ATOM     13  N   UNL     1       0.783  -2.517  -2.521  0.00  0.00    -0.283 N 
ATOM     14  C   UNL     1       0.777  -1.584  -3.494  0.00  0.00    +0.254 C 
ATOM     15  O   UNL     1       0.761  -0.407  -3.205  0.00  0.00    -0.272 OA
ATOM     16  H   UNL     1       2.158  -6.529  -2.950  0.00  0.00    +0.160 HD
ENDROOT
BRANCH   1  17
ATOM     17  C   UNL     1       0.615  -0.599  -1.042  0.00  0.00    +0.328 C 
ATOM     18  O   UNL     1       1.618   0.050  -1.223  0.00  0.00    -0.249 OA
BRANCH  17  20
ATOM     19  C   UNL     1      -0.521   1.448  -0.714  0.00  0.00    +0.280 C 
ATOM     20  O   UNL     1      -0.545   0.020  -0.772  0.00  0.00    -0.467 OA
ENDBRANCH  17  20
ENDBRANCH   1  17
BRANCH  14  21
ATOM     21  C   UNL     1       0.792  -2.005  -4.941  0.00  0.00    +0.324 C 
BRANCH  21  22
ATOM     22  O   UNL     1       0.783  -0.845  -5.775  0.00  0.00    -0.483 OA
BRANCH  22  23
ATOM     23  C   UNL     1       0.794  -1.050  -7.117  0.00  0.00    +0.125 A 
ATOM     24  C   UNL     1       0.807  -2.350  -7.617  0.00  0.00    +0.046 A 
ATOM     25  C   UNL     1       0.819  -2.571  -8.965  0.00  0.00    +0.016 A 
ATOM     26  C   UNL     1       0.817  -1.488  -9.847  0.00  0.00    +0.026 A 
ATOM     27  C   UNL     1       0.829  -1.697 -11.304  0.00  0.00    -0.000 A 
ATOM     28  C   UNL     1       0.826  -0.579 -12.117  0.00  0.00    +0.101 A 
ATOM     29  C   UNL     1       0.812   0.700 -11.535  0.00  0.00    +0.338 A 
ATOM     30  O   UNL     1       0.809   1.680 -12.259  0.00  0.00    -0.245 OA
ATOM     31  O   UNL     1       0.801   0.872 -10.204  0.00  0.00    -0.422 OA
ATOM     32  C   UNL     1       0.803  -0.173  -9.349  0.00  0.00    +0.143 A 
ATOM     33  C   UNL     1       0.786   0.035  -7.978  0.00  0.00    +0.092 A 
BRANCH  27  34
ATOM     34  C   UNL     1       0.844  -3.059 -11.880  0.00  0.00    -0.017 A 
ATOM     35  C   UNL     1      -0.247  -3.910 -11.695  0.00  0.00    +0.008 A 
ATOM     36  C   UNL     1      -0.226  -5.180 -12.235  0.00  0.00    +0.001 A 
ATOM     37  C   UNL     1       0.872  -5.610 -12.958  0.00  0.00    +0.000 A 
ATOM     38  C   UNL     1       1.957  -4.771 -13.144  0.00  0.00    +0.001 A 
ATOM     39  C   UNL     1       1.947  -3.497 -12.615  0.00  0.00    +0.008 A 
ENDBRANCH  27  34
ENDBRANCH  22  23
ENDBRANCH  21  22
ENDBRANCH  14  21
TORSDOF 6
