REMARK  Name = ZINC38673003
REMARK  10 active torsions:
REMARK  status: ('A' for Active; 'I' for Inactive)
REMARK    1  A    between atoms: C_1  and  C_2
REMARK    2  A    between atoms: C_5  and  N_9
REMARK    3  A    between atoms: C_7  and  C_8
REMARK    4  A    between atoms: C_11  and  C_16
REMARK    5  A    between atoms: N_18  and  C_19
REMARK    6  A    between atoms: C_19  and  C_20
REMARK    7  A    between atoms: C_20  and  C_22
REMARK    8  A    between atoms: C_20  and  N_33
REMARK    9  A    between atoms: N_31  and  C_32
REMARK   10  A    between atoms: N_36  and  C_39
REMARK                            x       y       z     vdW  Elec       q    Type
REMARK                         _______ _______ _______ _____ _____    ______ ____
ROOT
ATOM      1  C   UNL     1       4.067  -9.178  -0.005  0.00  0.00    +0.104 C 
ENDROOT
BRANCH   1   2
ATOM      2  C   UNL     1       5.539  -9.435  -0.202  0.00  0.00    -0.028 A 
ATOM      3  C   UNL     1       6.019  -9.769  -1.455  0.00  0.00    +0.007 A 
ATOM      4  C   UNL     1       7.367 -10.006  -1.635  0.00  0.00    +0.024 A 
ATOM      5  C   UNL     1       8.241  -9.907  -0.558  0.00  0.00    +0.033 A 
ATOM      6  C   UNL     1       7.760  -9.569   0.697  0.00  0.00    -0.026 A 
ATOM      7  C   UNL     1       6.406  -9.330   0.868  0.00  0.00    +0.010 A 
ATOM      8  C   UNL     1       8.678  -9.442   1.884  0.00  0.00    +0.038 C 
ATOM      9  C   UNL     1       9.981 -10.202   1.636  0.00  0.00    +0.024 C 
ATOM     10  C   UNL     1      10.559  -9.766   0.284  0.00  0.00    +0.105 C 
ATOM     11  N   UNL     1       9.603 -10.156  -0.761  0.00  0.00    -0.333 N 
ATOM     12  C   UNL     1      10.067 -10.795  -1.994  0.00  0.00    +0.129 C 
ENDBRANCH   1   2
BRANCH   1  13
ATOM     13  N   UNL     1       3.291 -10.152  -0.783  0.00  0.00    -0.297 NA
ATOM     14  C   UNL     1       3.683 -11.528  -0.445  0.00  0.00    +0.066 C 
ATOM     15  C   UNL     1       2.896 -12.509  -1.317  0.00  0.00    -0.064 C 
ATOM     16  N   UNL     1       1.457 -12.321  -1.090  0.00  0.00    +0.379 N 
ATOM     17  C   UNL     1       1.077 -10.950  -1.456  0.00  0.00    -0.064 C 
ATOM     18  C   UNL     1       1.848  -9.956  -0.585  0.00  0.00    +0.066 C 
ATOM     19  C   UNL     1       0.703 -13.274  -1.915  0.00  0.00    -0.096 C 
ATOM     20  H   UNL     1       1.247 -12.479  -0.116  0.00  0.00    -0.082 HD
ENDBRANCH   1  13
BRANCH   1  21
ATOM     21  C   UNL     1       3.729  -7.762  -0.478  0.00  0.00    +0.127 C 
BRANCH  21  24
ATOM     22  C   UNL     1       4.189  -5.468   0.203  0.00  0.00    +0.218 C 
ATOM     23  O   UNL     1       3.417  -5.091  -0.653  0.00  0.00    -0.275 OA
ATOM     24  N   UNL     1       4.415  -6.786   0.372  0.00  0.00    -0.313 N 
ATOM     25  H   UNL     1       5.033  -7.089   1.056  0.00  0.00    +0.149 HD
BRANCH  22  28
ATOM     26  N   UNL     1       5.483  -2.570  -0.270  0.00  0.00    -0.271 N 
ATOM     27  C   UNL     1       4.485  -3.022   0.706  0.00  0.00    +0.127 C 
ATOM     28  C   UNL     1       4.896  -4.465   1.077  0.00  0.00    +0.101 C 
ATOM     29  C   UNL     1       6.414  -4.446   0.784  0.00  0.00    +0.110 C 
ATOM     30  C   UNL     1       6.577  -3.351  -0.248  0.00  0.00    +0.221 C 
ATOM     31  O   UNL     1       7.554  -3.200  -0.951  0.00  0.00    -0.275 OA
BRANCH  26  36
ATOM     32  C   UNL     1       4.804   1.888  -3.713  0.00  0.00    +0.044 C 
ATOM     33  C   UNL     1       4.985   0.704  -2.798  0.00  0.00    -0.047 A 
ATOM     34  C   UNL     1       6.192   0.030  -2.772  0.00  0.00    +0.005 A 
ATOM     35  C   UNL     1       6.361  -1.056  -1.935  0.00  0.00    +0.024 A 
ATOM     36  C   UNL     1       5.316  -1.470  -1.119  0.00  0.00    +0.037 A 
ATOM     37  C   UNL     1       4.105  -0.791  -1.147  0.00  0.00    +0.027 A 
ATOM     38  C   UNL     1       3.945   0.297  -1.983  0.00  0.00    -0.046 A 
ATOM     39  C   UNL     1       2.632   1.037  -2.011  0.00  0.00    +0.044 C 
ENDBRANCH  26  36
ENDBRANCH  22  28
ENDBRANCH  21  24
ENDBRANCH   1  21
TORSDOF 6
