REMARK  Name = ZINC13837357
REMARK  4 active torsions:
REMARK  status: ('A' for Active; 'I' for Inactive)
REMARK    1  A    between atoms: C_1  and  O_2
REMARK    2  A    between atoms: O_2  and  C_3
REMARK    3  A    between atoms: C_5  and  C_10
REMARK    4  A    between atoms: C_8  and  O_9
REMARK                            x       y       z     vdW  Elec       q    Type
REMARK                         _______ _______ _______ _____ _____    ______ ____
ROOT
ATOM      1  C   UNL     1      -0.521   4.398   1.084  0.00  0.00    +0.063 C 
ATOM      2  C   UNL     1       0.704   3.667   1.489  0.00  0.00    +0.032 A 
ATOM      3  C   UNL     1       1.612   3.179   0.599  0.00  0.00    +0.087 A 
ATOM      4  N   UNL     1       2.690   2.538   1.127  0.00  0.00    -0.311 N 
ATOM      5  H   UNL     1       3.465   2.127   0.463  0.00  0.00    +0.170 HD
ATOM      6  C   UNL     1       2.806   2.407   2.470  0.00  0.00    +0.289 A 
ATOM      7  O   UNL     1       3.691   1.867   3.110  0.00  0.00    -0.260 OA
ATOM      8  S   UNL     1       1.375   3.205   3.051  0.00  0.00    -0.030 S 
ATOM      9  S   UNL     1       1.240   3.453  -1.118  0.00  0.00    -0.103 S 
ATOM     10  C   UNL     1      -0.524   3.133  -1.197  0.00  0.00    +0.060 C 
ATOM     11  C   UNL     1      -1.309   3.653   0.029  0.00  0.00    +0.018 C 
ATOM     12  C   UNL     1      -1.947   2.383   0.675  0.00  0.00    -0.006 C 
ATOM     13  C   UNL     1      -0.734   1.606   1.278  0.00  0.00    +0.004 C 
ATOM     14  C   UNL     1       0.042   1.082   0.048  0.00  0.00    +0.005 C 
ATOM     15  C   UNL     1      -0.771   1.592  -1.181  0.00  0.00    +0.003 C 
ATOM     16  C   UNL     1      -2.232   1.524  -0.608  0.00  0.00    +0.008 C 
ENDROOT
BRANCH   1  19
ATOM     17  C   UNL     1      -2.880   5.969   3.582  0.00  0.00    +0.162 A 
ATOM     18  C   UNL     1      -2.074   5.787   2.469  0.00  0.00    +0.053 A 
ATOM     19  C   UNL     1      -1.393   4.596   2.296  0.00  0.00    -0.035 A 
ATOM     20  C   UNL     1      -1.506   3.589   3.237  0.00  0.00    +0.008 A 
ATOM     21  C   UNL     1      -2.305   3.766   4.351  0.00  0.00    +0.049 A 
ATOM     22  C   UNL     1      -2.994   4.955   4.528  0.00  0.00    +0.158 A 
BRANCH  17  24
ATOM     23  C   UNL     1      -3.391   8.133   2.738  0.00  0.00    +0.277 C 
ATOM     24  O   UNL     1      -3.555   7.138   3.750  0.00  0.00    -0.491 OA
ENDBRANCH  17  24
BRANCH  22  25
ATOM     25  O   UNL     1      -3.779   5.132   5.624  0.00  0.00    -0.503 OA
ATOM     26  H   UNL     1      -3.868   4.330   6.372  0.00  0.00    +0.292 HD
ENDBRANCH  22  25
ENDBRANCH   1  19
TORSDOF 3
