REMARK  Name = ZINC39469713
REMARK  5 active torsions:
REMARK  status: ('A' for Active; 'I' for Inactive)
REMARK    1  A    between atoms: C_4  and  O_7
REMARK    2  A    between atoms: O_7  and  S_8
REMARK    3  A    between atoms: S_8  and  P_11
REMARK    4  A    between atoms: C_19  and  C_30
REMARK    5  A    between atoms: C_35  and  O_36
REMARK                            x       y       z     vdW  Elec       q    Type
REMARK                         _______ _______ _______ _____ _____    ______ ____
ROOT
ATOM      1  P   UNL     1       3.000  -2.544   2.135  0.00  0.00    +0.431 P 
ATOM      2  O   UNL     1       1.582  -2.144   2.276  0.00  0.00    -0.246 OA
ATOM      3  N   UNL     1       3.611  -3.019   3.593  0.00  0.00    -0.271 NA
ATOM      4  N   UNL     1       4.742  -3.808   3.589  0.00  0.00    +0.398 N 
ATOM      5  C   UNL     1       4.990  -4.170   4.994  0.00  0.00    -0.046 C 
ATOM      6  C   UNL     1       6.237  -5.035   5.123  0.00  0.00    +0.005 C 
ATOM      7  C   UNL     1       7.446  -4.295   4.616  0.00  0.00    -0.013 C 
ATOM      8  C   UNL     1       8.525  -4.991   4.220  0.00  0.00    +0.017 C 
ATOM      9  C   UNL     1       8.503  -6.469   4.304  0.00  0.00    +0.127 C 
ATOM     10  C   UNL     1       7.338  -7.109   4.344  0.00  0.00    +0.016 C 
ATOM     11  C   UNL     1       6.056  -6.315   4.301  0.00  0.00    +0.018 C 
ATOM     12  C   UNL     1       5.756  -5.924   2.853  0.00  0.00    -0.002 C 
ATOM     13  C   UNL     1       4.525  -5.013   2.784  0.00  0.00    -0.020 C 
ATOM     14  C   UNL     1       4.302  -4.668   1.306  0.00  0.00    +0.158 C 
ATOM     15  O   UNL     1       3.124  -3.852   1.175  0.00  0.00    -0.301 OA
ATOM     16  F   UNL     1       9.661  -7.164   4.341  0.00  0.00    -0.205 F 
ATOM     17  H   UNL     1       3.190  -2.752   4.424  0.00  0.00    +0.113 HD
ATOM     18  H   UNL     1       5.521  -3.286   3.217  0.00  0.00    -0.055 HD
ENDROOT
BRANCH   8  19
ATOM     19  C   UNL     1       9.724  -4.287   3.704  0.00  0.00    +0.026 A 
ATOM     20  C   UNL     1      10.582  -3.630   4.583  0.00  0.00    +0.012 A 
ATOM     21  C   UNL     1      11.697  -2.977   4.097  0.00  0.00    +0.001 A 
ATOM     22  C   UNL     1      11.966  -2.971   2.740  0.00  0.00    +0.004 A 
ATOM     23  C   UNL     1      11.121  -3.620   1.859  0.00  0.00    +0.046 A 
ATOM     24  C   UNL     1      10.001  -4.285   2.333  0.00  0.00    +0.125 A 
BRANCH  24  25
ATOM     25  O   UNL     1       9.174  -4.928   1.469  0.00  0.00    -0.506 OA
ATOM     26  H   UNL     1       8.459  -4.375   1.124  0.00  0.00    +0.292 HD
ENDBRANCH  24  25
ENDBRANCH   8  19
BRANCH   1  27
ATOM     27  S   UNL     1       4.140  -0.941   1.346  0.00  0.00    +0.209 S 
ATOM     28  O   UNL     1       5.458  -1.436   1.154  0.00  0.00    -0.126 OA
ATOM     29  O   UNL     1       3.863   0.192   2.158  0.00  0.00    -0.126 OA
BRANCH  27  30
ATOM     30  O   UNL     1       3.586  -0.632  -0.037  0.00  0.00    -0.339 OA
BRANCH  30  34
ATOM     31  C   UNL     1      -0.017   1.378   0.010  0.00  0.00    +0.000 A 
ATOM     32  C   UNL     1       1.170   2.088   0.002  0.00  0.00    +0.004 A 
ATOM     33  C   UNL     1       2.377   1.417  -0.013  0.00  0.00    +0.048 A 
ATOM     34  C   UNL     1       2.399   0.030  -0.021  0.00  0.00    +0.157 A 
ATOM     35  C   UNL     1       1.207  -0.680  -0.013  0.00  0.00    +0.048 A 
ATOM     36  C   UNL     1       0.002  -0.004   0.002  0.00  0.00    +0.004 A 
ENDBRANCH  30  34
ENDBRANCH  27  30
ENDBRANCH   1  27
TORSDOF 5
