REMARK  Name = ZINC22010108
REMARK  9 active torsions:
REMARK  status: ('A' for Active; 'I' for Inactive)
REMARK    1  A    between atoms: C_1  and  O_2
REMARK    2  A    between atoms: O_2  and  C_3
REMARK    3  A    between atoms: C_3  and  C_4
REMARK    4  A    between atoms: CA_5  and  C_28
REMARK    5  A    between atoms: CA_9  and  N_13
REMARK    6  A    between atoms: C_14  and  C_16
REMARK    7  A    between atoms: C_16  and  C_20
REMARK    8  A    between atoms: N_17  and  O_18
REMARK    9  A    between atoms: O_18  and  C_19
REMARK                            x       y       z     vdW  Elec       q    Type
REMARK                         _______ _______ _______ _____ _____    ______ ____
ROOT
ATOM      1  N   UNL     1      -5.726  -1.585   1.422  0.00  0.00    -0.296 N 
ATOM      2  C   UNL     1      -6.972  -1.622   1.934  0.00  0.00    +0.267 C 
ATOM      3  O   UNL     1      -7.930  -1.416   1.216  0.00  0.00    -0.268 OA
ATOM      4  H   UNL     1      -4.864  -1.853   2.051  0.00  0.00    +0.150 HD
ENDROOT
BRANCH   1   9
ATOM      5  C   UNL     1      -1.347  -1.097  -0.193  0.00  0.00    -0.006 C 
ATOM      6  CA  UNL     1      -2.232  -0.124  -0.352  0.00  0.00    +0.129 C 
ATOM      7  N   UNL     1      -3.603  -0.408  -0.376  0.00  0.00    -0.249 N 
ATOM      8  C   UNL     1      -4.247  -1.733  -0.599  0.00  0.00    +0.169 C 
ATOM      9  CA  UNL     1      -5.519  -1.189   0.026  0.00  0.00    +0.191 C 
ATOM     10  C   UNL     1      -4.796   0.126  -0.149  0.00  0.00    +0.244 C 
ATOM     11  O   UNL     1      -5.177   1.277  -0.098  0.00  0.00    -0.273 OA
ATOM     12  S   UNL     1      -3.301  -2.923   0.412  0.00  0.00    -0.131 S 
ATOM     13  C   UNL     1      -1.601  -2.565  -0.079  0.00  0.00    +0.106 C 
BRANCH   6  14
ATOM     14  C   UNL     1      -1.770   1.267  -0.505  0.00  0.00    +0.401 C 
ATOM     15  O   UNL     1      -2.578   2.172  -0.568  0.00  0.00    -0.239 OA
ATOM     16  OXT UNL     1      -0.451   1.536  -0.574  0.00  0.00    -0.239 OA
ENDBRANCH   6  14
BRANCH   5  17
ATOM     17  C   UNL     1       0.097  -0.671  -0.126  0.00  0.00    +0.193 C 
BRANCH  17  19
ATOM     18  C   UNL     1       2.319  -1.533   0.128  0.00  0.00    +0.194 C 
ATOM     19  O   UNL     1       0.917  -1.808   0.153  0.00  0.00    -0.379 OA
ENDBRANCH  17  19
ENDBRANCH   5  17
ENDBRANCH   1   9
BRANCH   2  20
ATOM     20  C   UNL     1      -7.173  -1.915   3.373  0.00  0.00    +0.179 C 
ATOM     21  N   UNL     1      -8.381  -2.062   3.847  0.00  0.00    -0.079 NA
BRANCH  20  22
ATOM     22  C   UNL     1      -6.012  -2.039   4.269  0.00  0.00    +0.067 A 
ATOM     23  C   UNL     1      -5.951  -2.469   5.572  0.00  0.00    +0.131 A 
ATOM     24  N   UNL     1      -4.778  -2.494   6.160  0.00  0.00    -0.233 NA
ATOM     25  C   UNL     1      -3.682  -2.106   5.529  0.00  0.00    +0.156 A 
ATOM     26  S   UNL     1      -4.291  -1.666   3.963  0.00  0.00    -0.051 S 
ATOM     27  N   UNL     1      -2.383  -2.064   5.996  0.00  0.00    -0.338 N 
ATOM     28  H   UNL     1      -1.573  -1.712   5.340  0.00  0.00    +0.144 HD
ATOM     29  H   UNL     1      -2.158  -2.381   7.025  0.00  0.00    +0.144 HD
ENDBRANCH  20  22
BRANCH  21  30
ATOM     30  O   UNL     1      -9.491  -2.064   2.967  0.00  0.00    -0.396 OA
ATOM     31  C   UNL     1     -10.750  -2.234   3.621  0.00  0.00    +0.313 C 
ENDBRANCH  21  30
ENDBRANCH   2  20
TORSDOF 7
