REMARK  Name = ZINC04469095
REMARK  5 active torsions:
REMARK  status: ('A' for Active; 'I' for Inactive)
REMARK    1  A    between atoms: C_1  and  C_2
REMARK    2  A    between atoms: C_2  and  C_4
REMARK    3  A    between atoms: C_2  and  S_12
REMARK    4  A    between atoms: N_6  and  C_7
REMARK    5  A    between atoms: S_12  and  C_13
REMARK                            x       y       z     vdW  Elec       q    Type
REMARK                         _______ _______ _______ _____ _____    ______ ____
ROOT
ATOM      1  C   UNL     1       0.020  -4.838  -0.013  0.00  0.00    +0.171 A 
ATOM      2  N   UNL     1       1.303  -4.546  -0.364  0.00  0.00    -0.301 N 
ATOM      3  H   UNL     1       1.934  -5.302  -0.539  0.00  0.00    +0.171 HD
ATOM      4  C   UNL     1       1.763  -3.279  -0.487  0.00  0.00    +0.261 A 
ATOM      5  O   UNL     1       2.916  -3.037  -0.802  0.00  0.00    -0.267 OA
ATOM      6  C   UNL     1       0.812  -2.240  -0.224  0.00  0.00    +0.075 A 
ATOM      7  C   UNL     1       1.051  -0.807  -0.287  0.00  0.00    -0.023 A 
ATOM      8  C   UNL     1       0.002  -0.004   0.002  0.00  0.00    -0.004 A 
ATOM      9  S   UNL     1      -1.341  -1.105   0.368  0.00  0.00    -0.073 S 
ATOM     10  C   UNL     1      -0.497  -2.637   0.134  0.00  0.00    +0.117 A 
ATOM     11  N   UNL     1      -0.885  -3.902   0.237  0.00  0.00    -0.216 NA
ATOM     12  C   UNL     1      -0.018   1.493   0.010  0.00  0.00    +0.043 C 
ATOM     13  C   UNL     1       1.431   2.000  -0.001  0.00  0.00    +0.005 C 
ATOM     14  C   UNL     1       2.206   1.244  -1.084  0.00  0.00    +0.005 C 
ATOM     15  C   UNL     1       2.405  -0.211  -0.660  0.00  0.00    +0.037 C 
ENDROOT
BRANCH   1  16
ATOM     16  S   UNL     1      -0.456  -6.530   0.114  0.00  0.00    -0.075 S 
BRANCH  16  18
ATOM     17  C   UNL     1      -2.270  -5.674   1.969  0.00  0.00    +0.029 C 
ATOM     18  C   UNL     1      -2.191  -6.333   0.591  0.00  0.00    +0.137 C 
BRANCH  18  19
ATOM     19  C   UNL     1      -2.855  -7.685   0.641  0.00  0.00    +0.226 C 
ATOM     20  O   UNL     1      -2.190  -8.680   0.835  0.00  0.00    -0.275 OA
ATOM     21  N   UNL     1      -4.188  -7.788   0.472  0.00  0.00    -0.312 N 
ATOM     22  H   UNL     1      -4.720  -6.992   0.317  0.00  0.00    +0.149 HD
BRANCH  21  23
ATOM     23  C   UNL     1      -4.834  -9.102   0.521  0.00  0.00    +0.073 C 
ATOM     24  C   UNL     1      -4.825  -9.748  -0.879  0.00  0.00    +0.022 C 
ATOM     25  C   UNL     1      -6.186 -10.482  -0.968  0.00  0.00    +0.002 C 
ATOM     26  C   UNL     1      -7.147  -9.508  -0.243  0.00  0.00    +0.002 C 
ATOM     27  C   UNL     1      -6.310  -8.949   0.926  0.00  0.00    +0.022 C 
ENDBRANCH  21  23
ENDBRANCH  18  19
ENDBRANCH  16  18
ENDBRANCH   1  16
TORSDOF 4
