REMARK  Name = ZINC45723975
REMARK  5 active torsions:
REMARK  status: ('A' for Active; 'I' for Inactive)
REMARK    1  A    between atoms: C_1  and  C_2
REMARK    2  A    between atoms: C_4  and  N_9
REMARK    3  A    between atoms: N_9  and  C_10
REMARK    4  A    between atoms: N_9  and  C_11
REMARK    5  A    between atoms: C_11  and  C_12
REMARK                            x       y       z     vdW  Elec       q    Type
REMARK                         _______ _______ _______ _____ _____    ______ ____
ROOT
ATOM      1  C   UNL     1      -0.013   1.086   0.008  0.00  0.00    +0.066 C 
ATOM      2  C   UNL     1      -0.742   1.585  -1.213  0.00  0.00    +0.045 A 
ATOM      3  C   UNL     1      -0.054   1.828  -2.386  0.00  0.00    +0.065 A 
ATOM      4  C   UNL     1      -0.768   2.289  -3.494  0.00  0.00    +0.103 A 
ATOM      5  N   UNL     1      -2.079   2.478  -3.383  0.00  0.00    -0.316 N 
ATOM      6  C   UNL     1      -2.701   2.233  -2.240  0.00  0.00    +0.192 A 
ATOM      7  N   UNL     1      -2.050   1.790  -1.174  0.00  0.00    -0.221 NA
ATOM      8  N   UNL     1      -4.067   2.440  -2.157  0.00  0.00    -0.329 N 
ATOM      9  H   UNL     1      -4.557   2.761  -2.931  0.00  0.00    +0.145 HD
ATOM     10  H   UNL     1      -4.535   2.265  -1.326  0.00  0.00    +0.145 HD
ATOM     11  H   UNL     1      -2.584   2.799  -4.146  0.00  0.00    +0.170 HD
ENDROOT
BRANCH   4  12
ATOM     12  N   UNL     1      -0.119   2.547  -4.690  0.00  0.00    -0.315 N 
ATOM     13  C   UNL     1       1.326   2.336  -4.801  0.00  0.00    +0.131 C 
BRANCH  12  14
ATOM     14  C   UNL     1      -0.879   3.031  -5.846  0.00  0.00    +0.141 C 
BRANCH  14  15
ATOM     15  C   UNL     1      -0.912   4.537  -5.830  0.00  0.00    -0.030 A 
ATOM     16  C   UNL     1      -1.930   5.199  -5.169  0.00  0.00    +0.006 A 
ATOM     17  C   UNL     1      -1.960   6.581  -5.154  0.00  0.00    +0.015 A 
ATOM     18  C   UNL     1      -0.972   7.302  -5.801  0.00  0.00    +0.018 A 
ATOM     19  C   UNL     1       0.046   6.639  -6.462  0.00  0.00    +0.015 A 
ATOM     20  C   UNL     1       0.078   5.257  -6.472  0.00  0.00    +0.006 A 
ATOM     21 BR   UNL     1      -1.014   9.192  -5.781  0.00  0.00    -0.050 Br
ENDBRANCH  14  15
ENDBRANCH  12  14
ENDBRANCH   4  12
TORSDOF 3
