REMARK  Name = ZINC63279879
REMARK  7 active torsions:
REMARK  status: ('A' for Active; 'I' for Inactive)
REMARK    1  A    between atoms: C_7  and  C_10
REMARK    2  A    between atoms: C_10  and  C_11
REMARK    3  A    between atoms: C_11  and  N_12
REMARK    4  A    between atoms: C_13  and  C_15
REMARK    5  A    between atoms: C_22  and  N_25
REMARK    6  A    between atoms: N_25  and  S_26
REMARK    7  A    between atoms: S_26  and  C_29
REMARK                            x       y       z     vdW  Elec       q    Type
REMARK                         _______ _______ _______ _____ _____    ______ ____
ROOT
ATOM      1  C   UNL     1      -1.732  -6.533  -2.622  0.00  0.00    +0.038 A 
ATOM      2  C   UNL     1      -2.252  -7.028  -1.423  0.00  0.00    +0.015 A 
ATOM      3  C   UNL     1      -3.108  -8.097  -1.414  0.00  0.00    +0.025 A 
ATOM      4  C   UNL     1      -3.496  -8.737  -2.609  0.00  0.00    +0.043 A 
ATOM      5  C   UNL     1      -2.961  -8.222  -3.798  0.00  0.00    +0.033 A 
ATOM      6  C   UNL     1      -2.107  -7.148  -3.822  0.00  0.00    +0.029 A 
ATOM      7  S   UNL     1      -3.641  -9.239  -5.090  0.00  0.00    -0.084 S 
ATOM      8  C   UNL     1      -4.645 -10.359  -4.034  0.00  0.00    +0.224 C 
ATOM      9  N   UNL     1      -4.355  -9.823  -2.697  0.00  0.00    -0.318 N 
ATOM     10  H   UNL     1      -4.751 -10.215  -1.903  0.00  0.00    +0.148 HD
ENDROOT
BRANCH   1  12
ATOM     11  N   UNL     1      -0.458  -4.798  -1.460  0.00  0.00    -0.311 N 
ATOM     12  C   UNL     1      -0.811  -5.380  -2.623  0.00  0.00    +0.244 C 
ATOM     13  O   UNL     1      -0.369  -4.956  -3.674  0.00  0.00    -0.270 OA
ATOM     14  H   UNL     1      -0.810  -5.136  -0.622  0.00  0.00    +0.149 HD
BRANCH  11  15
ATOM     15  C   UNL     1       0.457  -3.653  -1.462  0.00  0.00    +0.109 C 
BRANCH  15  16
ATOM     16  C   UNL     1       0.691  -3.186  -0.024  0.00  0.00    +0.052 C 
BRANCH  16  23
ATOM     17  C   UNL     1      -0.016   1.348   0.009  0.00  0.00    +0.001 A 
ATOM     18  C   UNL     1       1.166   2.101   0.002  0.00  0.00    +0.002 A 
ATOM     19  C   UNL     1       2.391   1.535  -0.013  0.00  0.00    +0.026 A 
ATOM     20  C   UNL     1       2.529   0.120  -0.022  0.00  0.00    +0.043 A 
ATOM     21  N   UNL     1       3.587  -0.654  -0.037  0.00  0.00    -0.380 N 
ATOM     22  C   UNL     1       3.143  -2.053  -0.041  0.00  0.00    +0.144 C 
ATOM     23  C   UNL     1       1.631  -2.008  -0.025  0.00  0.00    -0.040 C 
ATOM     24  C   UNL     1       1.295  -0.698  -0.014  0.00  0.00    -0.001 A 
ATOM     25  C   UNL     1       0.002  -0.004   0.002  0.00  0.00    +0.010 A 
ATOM     26  H   UNL     1       4.509  -0.353  -0.045  0.00  0.00    +0.160 HD
ENDBRANCH  16  23
ENDBRANCH  15  16
ENDBRANCH  11  15
ENDBRANCH   1  12
BRANCH   8  27
ATOM     27  N   UNL     1      -4.191 -11.746  -4.157  0.00  0.00    -0.160 NA
ATOM     28  H   UNL     1      -3.490 -12.081  -3.576  0.00  0.00    +0.151 HD
BRANCH  27  29
ATOM     29  S   UNL     1      -4.875 -12.744  -5.288  0.00  0.00    +0.061 S 
ATOM     30  O   UNL     1      -4.213 -13.996  -5.179  0.00  0.00    -0.153 OA
ATOM     31  O   UNL     1      -6.283 -12.611  -5.148  0.00  0.00    -0.153 OA
BRANCH  29  32
ATOM     32  C   UNL     1      -4.464 -12.093  -6.873  0.00  0.00    +0.106 A 
ATOM     33  C   UNL     1      -5.295 -11.168  -7.477  0.00  0.00    +0.031 A 
ATOM     34  C   UNL     1      -4.974 -10.657  -8.720  0.00  0.00    +0.040 A 
ATOM     35  C   UNL     1      -3.818 -11.072  -9.361  0.00  0.00    +0.124 A 
ATOM     36  C   UNL     1      -2.987 -11.998  -8.755  0.00  0.00    +0.040 A 
ATOM     37  C   UNL     1      -3.308 -12.504  -7.510  0.00  0.00    +0.031 A 
ATOM     38  F   UNL     1      -3.503 -10.573 -10.576  0.00  0.00    -0.205 F 
ENDBRANCH  29  32
ENDBRANCH  27  29
ENDBRANCH   8  27
TORSDOF 7
