REMARK  Name = ZINC02084528
REMARK  11 active torsions:
REMARK  status: ('A' for Active; 'I' for Inactive)
REMARK    1  A    between atoms: C_1  and  C_2
REMARK    2  A    between atoms: C_2  and  C_3
REMARK    3  A    between atoms: C_3  and  C_4
REMARK    4  A    between atoms: C_3  and  C_5
REMARK    5  A    between atoms: C_3  and  C_6
REMARK    6  A    between atoms: C_13  and  N_19
REMARK    7  A    between atoms: C_14  and  C_15
REMARK    8  A    between atoms: C_15  and  O_17
REMARK    9  A    between atoms: O_17  and  C_18
REMARK   10  A    between atoms: C_20  and  C_22
REMARK   11  A    between atoms: C_24  and  C_32
REMARK                            x       y       z     vdW  Elec       q    Type
REMARK                         _______ _______ _______ _____ _____    ______ ____
ROOT
ATOM      1  N   UNL     1      -1.446  -0.877   2.497  0.00  0.00    -0.275 N 
ATOM      2  C   UNL     1      -2.168  -1.334   3.539  0.00  0.00    +0.249 C 
ATOM      3  O   UNL     1      -3.193  -1.957   3.341  0.00  0.00    -0.270 OA
ATOM      4  H   UNL     1      -0.628  -0.380   2.655  0.00  0.00    +0.156 HD
ENDROOT
BRANCH   2   5
ATOM      5  C   UNL     1      -1.714  -1.078   4.923  0.00  0.00    +0.048 A 
ATOM      6  C   UNL     1      -0.493  -0.474   5.180  0.00  0.00    +0.045 A 
ATOM      7  C   UNL     1      -0.104  -0.246   6.511  0.00  0.00    +0.107 A 
ATOM      8  N   UNL     1      -0.858  -0.597   7.535  0.00  0.00    -0.244 NA
ATOM      9  C   UNL     1      -2.044  -1.188   7.377  0.00  0.00    +0.073 A 
ATOM     10  C   UNL     1      -2.533  -1.459   6.075  0.00  0.00    +0.013 A 
ATOM     11  C   UNL     1      -3.777  -2.078   5.914  0.00  0.00    +0.011 A 
ATOM     12  C   UNL     1      -4.509  -2.415   7.014  0.00  0.00    +0.001 A 
ATOM     13  C   UNL     1      -4.033  -2.151   8.296  0.00  0.00    +0.002 A 
ATOM     14  C   UNL     1      -2.827  -1.551   8.488  0.00  0.00    +0.028 A 
BRANCH   7  15
ATOM     15  C   UNL     1       1.195   0.403   6.773  0.00  0.00    +0.153 A 
ATOM     16  C   UNL     1       1.712   0.692   7.999  0.00  0.00    +0.051 A 
ATOM     17  C   UNL     1       2.962   1.301   7.778  0.00  0.00    +0.042 A 
ATOM     18  C   UNL     1       3.142   1.361   6.443  0.00  0.00    +0.196 A 
ATOM     19  O   UNL     1       2.074   0.818   5.839  0.00  0.00    -0.461 OA
ENDBRANCH   7  15
ENDBRANCH   2   5
BRANCH   1  26
ATOM     20  C   UNL     1      -3.190  -2.274  -3.491  0.00  0.00    -0.000 C 
ATOM     21  C   UNL     1      -2.540  -0.894  -3.625  0.00  0.00    +0.009 C 
ATOM     22  C   UNL     1      -1.402  -0.754  -2.612  0.00  0.00    +0.037 C 
ATOM     23  C   UNL     1      -1.931  -1.107  -1.228  0.00  0.00    -0.021 A 
ATOM     24  C   UNL     1      -3.072  -1.814  -1.079  0.00  0.00    -0.004 A 
ATOM     25  S   UNL     1      -3.283  -1.970   0.672  0.00  0.00    -0.077 S 
ATOM     26  C   UNL     1      -1.871  -1.116   1.202  0.00  0.00    +0.087 A 
ATOM     27  C   UNL     1      -1.270  -0.730   0.010  0.00  0.00    +0.091 A 
ATOM     28  C   UNL     1      -3.958  -2.339  -2.166  0.00  0.00    +0.046 C 
BRANCH  20  29
ATOM     29  C   UNL     1      -4.153  -2.503  -4.658  0.00  0.00    -0.032 C 
ATOM     30  C   UNL     1      -5.239  -1.426  -4.640  0.00  0.00    +0.011 C 
ATOM     31  C   UNL     1      -3.382  -2.429  -5.977  0.00  0.00    +0.011 C 
BRANCH  29  33
ATOM     32  C   UNL     1      -5.764  -4.111  -5.688  0.00  0.00    +0.004 C 
ATOM     33  C   UNL     1      -4.800  -3.882  -4.521  0.00  0.00    +0.003 C 
ENDBRANCH  29  33
ENDBRANCH  20  29
BRANCH  27  34
ATOM     34  C   UNL     1      -0.020   0.033   0.003  0.00  0.00    +0.342 C 
ATOM     35  O   UNL     1       1.048  -0.548  -0.015  0.00  0.00    -0.245 OA
BRANCH  34  36
ATOM     36  O   UNL     1      -0.054   1.382   0.015  0.00  0.00    -0.464 OA
ATOM     37  C   UNL     1       1.223   2.073   0.006  0.00  0.00    +0.280 C 
ENDBRANCH  34  36
ENDBRANCH  27  34
ENDBRANCH   1  26
TORSDOF 7
