REMARK  Name = ZINC16731562
REMARK  11 active torsions:
REMARK  status: ('A' for Active; 'I' for Inactive)
REMARK    1  A    between atoms: C_1  and  O_2
REMARK    2  A    between atoms: O_2  and  C_3
REMARK    3  A    between atoms: C_3  and  C_4
REMARK    4  A    between atoms: C_4  and  N_5
REMARK    5  A    between atoms: C_6  and  C_25
REMARK    6  A    between atoms: C_8  and  C_13
REMARK    7  A    between atoms: C_13  and  C_15
REMARK    8  A    between atoms: C_18  and  O_21
REMARK    9  A    between atoms: O_21  and  C_22
REMARK   10  A    between atoms: C_22  and  C_23
REMARK   11  A    between atoms: C_29  and  N_31
REMARK                            x       y       z     vdW  Elec       q    Type
REMARK                         _______ _______ _______ _____ _____    ______ ____
ROOT
ATOM      1  N   UNL     1       1.875   0.175  -0.780  0.00  0.00    -0.281 N 
ATOM      2  C   UNL     1       2.018   1.329   0.115  0.00  0.00    +0.145 C 
ATOM      3  C   UNL     1       2.715   0.818   1.354  0.00  0.00    +0.076 C 
ATOM      4  C   UNL     1       2.938  -0.503   1.160  0.00  0.00    +0.249 C 
ATOM      5  C   UNL     1       2.414  -0.894  -0.166  0.00  0.00    +0.288 C 
ATOM      6  O   UNL     1       2.463  -2.015  -0.632  0.00  0.00    -0.266 OA
ATOM      7  O   UNL     1       3.544  -1.333   2.039  0.00  0.00    -0.282 OA
ENDROOT
BRANCH   2   8
ATOM      8  C   UNL     1       0.661   1.878   0.474  0.00  0.00    -0.020 A 
ATOM      9  C   UNL     1      -0.388   1.015   0.729  0.00  0.00    +0.006 A 
ATOM     10  C   UNL     1      -1.634   1.518   1.052  0.00  0.00    +0.003 A 
ATOM     11  C   UNL     1      -1.829   2.885   1.130  0.00  0.00    +0.033 A 
ATOM     12  C   UNL     1      -0.780   3.748   0.876  0.00  0.00    +0.127 A 
ATOM     13  C   UNL     1       0.465   3.244   0.547  0.00  0.00    +0.038 A 
BRANCH  12  14
ATOM     14  N   UNL     1      -0.989   5.211   0.955  0.00  0.00    +0.056 N 
ATOM     15  O   UNL     1      -0.094   5.972   0.634  0.00  0.00    -0.126 OA
ATOM     16  O   UNL     1      -2.056   5.653   1.340  0.00  0.00    -0.126 OA
ENDBRANCH  12  14
ENDBRANCH   2   8
BRANCH   3  17
ATOM     17  C   UNL     1       3.080   1.601   2.539  0.00  0.00    +0.195 C 
ATOM     18  O   UNL     1       2.565   1.355   3.613  0.00  0.00    -0.287 OA
BRANCH  17  19
ATOM     19  C   UNL     1       4.072   2.689   2.428  0.00  0.00    +0.022 A 
ATOM     20  C   UNL     1       4.755   2.894   1.226  0.00  0.00    +0.015 A 
ATOM     21  C   UNL     1       5.677   3.912   1.125  0.00  0.00    +0.046 A 
ATOM     22  C   UNL     1       5.935   4.729   2.220  0.00  0.00    +0.121 A 
ATOM     23  C   UNL     1       5.262   4.525   3.420  0.00  0.00    +0.046 A 
ATOM     24  C   UNL     1       4.335   3.512   3.527  0.00  0.00    +0.015 A 
BRANCH  22  25
ATOM     25  O   UNL     1       6.848   5.728   2.119  0.00  0.00    -0.488 OA
BRANCH  25  26
ATOM     26  C   UNL     1       7.544   5.847   0.876  0.00  0.00    +0.256 C 
BRANCH  26  27
ATOM     27  C   UNL     1       8.586   6.930   0.986  0.00  0.00    +0.006 C 
ATOM     28  C   UNL     1       9.794   6.726   0.522  0.00  0.00    +0.007 C 
ENDBRANCH  26  27
ENDBRANCH  25  26
ENDBRANCH  22  25
ENDBRANCH  17  19
ENDBRANCH   3  17
BRANCH   1  29
ATOM     29  C   UNL     1       1.255   0.185  -2.107  0.00  0.00    +0.137 C 
BRANCH  29  30
ATOM     30  C   UNL     1       2.318   0.491  -3.164  0.00  0.00    +0.178 C 
BRANCH  30  32
ATOM     31  C   UNL     1       4.315  -0.382  -4.161  0.00  0.00    +0.194 C 
ATOM     32  O   UNL     1       3.273  -0.570  -3.201  0.00  0.00    -0.381 OA
ENDBRANCH  30  32
ENDBRANCH  29  30
ENDBRANCH   1  29
TORSDOF 10
