REMARK  Name = ZINC16034936
REMARK  15 active torsions:
REMARK  status: ('A' for Active; 'I' for Inactive)
REMARK    1  A    between atoms: C_1  and  C_2
REMARK    2  A    between atoms: C_2  and  C_3
REMARK    3  A    between atoms: C_3  and  C_4
REMARK    4  A    between atoms: C_9  and  C_11
REMARK    5  A    between atoms: C_13  and  S_20
REMARK    6  A    between atoms: C_16  and  O_17
REMARK    7  A    between atoms: O_17  and  C_18
REMARK    8  A    between atoms: C_18  and  C_19
REMARK    9  A    between atoms: S_20  and  N_23
REMARK   10  A    between atoms: N_23  and  C_24
REMARK   11  A    between atoms: C_24  and  C_26
REMARK   12  A    between atoms: C_24  and  C_27
REMARK   13  A    between atoms: C_27  and  C_29
REMARK   14  A    between atoms: C_27  and  O_35
REMARK   15  A    between atoms: N_37  and  C_39
REMARK                            x       y       z     vdW  Elec       q    Type
REMARK                         _______ _______ _______ _____ _____    ______ ____
ROOT
ATOM      1  C   UNL     1      -3.351  -3.306   3.639  0.00  0.00    +0.061 A 
ATOM      2  C   UNL     1      -4.157  -4.341   4.118  0.00  0.00    +0.043 A 
ATOM      3  C   UNL     1      -5.320  -4.048   4.798  0.00  0.00    +0.106 A 
ATOM      4  C   UNL     1      -5.694  -2.731   5.006  0.00  0.00    +0.032 A 
ATOM      5  C   UNL     1      -4.906  -1.698   4.537  0.00  0.00    +0.048 A 
ATOM      6  C   UNL     1      -3.730  -1.975   3.857  0.00  0.00    +0.131 A 
ENDROOT
BRANCH   1  12
ATOM      7  C   UNL     1       0.762  -2.018   1.233  0.00  0.00    +0.089 A 
ATOM      8  C   UNL     1      -0.215  -2.855   1.806  0.00  0.00    +0.119 A 
ATOM      9  C   UNL     1       0.190  -4.175   1.572  0.00  0.00    +0.151 A 
ATOM     10  C   UNL     1      -0.621  -5.232   2.048  0.00  0.00    +0.278 A 
ATOM     11  N   UNL     1      -1.756  -4.921   2.711  0.00  0.00    -0.305 N 
ATOM     12  C   UNL     1      -2.104  -3.612   2.911  0.00  0.00    +0.145 A 
ATOM     13  N   UNL     1      -1.362  -2.623   2.475  0.00  0.00    -0.225 NA
ATOM     14  O   UNL     1      -0.303  -6.394   1.864  0.00  0.00    -0.265 OA
ATOM     15  N   UNL     1       1.370  -4.114   0.883  0.00  0.00    -0.260 N 
ATOM     16  N   UNL     1       1.686  -2.763   0.690  0.00  0.00    -0.174 NA
ATOM     17  C   UNL     1       2.160  -5.259   0.424  0.00  0.00    +0.173 C 
ATOM     18  H   UNL     1      -2.329  -5.629   3.046  0.00  0.00    +0.170 HD
BRANCH   7  19
ATOM     19  C   UNL     1       0.742  -0.511   1.242  0.00  0.00    +0.059 C 
BRANCH  19  21
ATOM     20  C   UNL     1      -0.019   1.526   0.010  0.00  0.00    +0.004 C 
ATOM     21  C   UNL     1       0.002  -0.004   0.002  0.00  0.00    +0.003 C 
ENDBRANCH  19  21
ENDBRANCH   7  19
ENDBRANCH   1  12
BRANCH   3  22
ATOM     22  S   UNL     1      -6.335  -5.355   5.402  0.00  0.00    +0.059 S 
ATOM     23  O   UNL     1      -7.647  -4.824   5.529  0.00  0.00    -0.153 OA
ATOM     24  O   UNL     1      -6.048  -6.495   4.604  0.00  0.00    -0.153 OA
BRANCH  22  25
ATOM     25  N   UNL     1      -5.818  -5.708   6.935  0.00  0.00    -0.184 NA
ATOM     26  H   UNL     1      -5.426  -6.574   7.127  0.00  0.00    +0.148 HD
BRANCH  25  27
ATOM     27  C   UNL     1      -5.952  -4.712   8.001  0.00  0.00    +0.106 C 
ATOM     28  C   UNL     1      -4.645  -3.928   8.133  0.00  0.00    +0.028 C 
BRANCH  27  29
ATOM     29  C   UNL     1      -6.259  -5.418   9.323  0.00  0.00    +0.163 C 
BRANCH  29  30
ATOM     30  C   UNL     1      -7.478  -6.288   9.156  0.00  0.00    -0.018 A 
ATOM     31  C   UNL     1      -7.349  -7.572   8.660  0.00  0.00    +0.006 A 
ATOM     32  C   UNL     1      -8.468  -8.369   8.507  0.00  0.00    +0.000 A 
ATOM     33  C   UNL     1      -9.715  -7.884   8.851  0.00  0.00    +0.000 A 
ATOM     34  C   UNL     1      -9.845  -6.601   9.348  0.00  0.00    +0.000 A 
ATOM     35  C   UNL     1      -8.725  -5.804   9.505  0.00  0.00    +0.006 A 
ENDBRANCH  29  30
BRANCH  29  36
ATOM     36  O   UNL     1      -5.144  -6.228   9.701  0.00  0.00    -0.386 OA
ATOM     37  H   UNL     1      -4.920  -6.914   9.056  0.00  0.00    +0.210 HD
ENDBRANCH  29  36
ENDBRANCH  27  29
ENDBRANCH  25  27
ENDBRANCH  22  25
ENDBRANCH   3  22
BRANCH   6  38
ATOM     38  O   UNL     1      -2.952  -0.961   3.400  0.00  0.00    -0.492 OA
BRANCH  38  39
ATOM     39  C   UNL     1      -3.402   0.370   3.660  0.00  0.00    +0.226 C 
ATOM     40  C   UNL     1      -2.403   1.370   3.075  0.00  0.00    +0.048 C 
ENDBRANCH  38  39
ENDBRANCH   6  38
TORSDOF 11
