REMARK  Name = ZINC29287255
REMARK  8 active torsions:
REMARK  status: ('A' for Active; 'I' for Inactive)
REMARK    1  A    between atoms: C_1  and  C_2
REMARK    2  A    between atoms: C_2  and  C_4
REMARK    3  A    between atoms: C_2  and  O_16
REMARK    4  A    between atoms: N_9  and  C_10
REMARK    5  A    between atoms: O_16  and  C_17
REMARK    6  A    between atoms: C_17  and  C_19
REMARK    7  A    between atoms: N_21  and  C_31
REMARK    8  A    between atoms: C_22  and  C_25
REMARK                            x       y       z     vdW  Elec       q    Type
REMARK                         _______ _______ _______ _____ _____    ______ ____
ROOT
ATOM      1  C   UNL     1      -1.922  -0.719  -1.189  0.00  0.00    +0.356 C 
ATOM      2  O   UNL     1      -1.309  -0.493  -2.215  0.00  0.00    -0.244 OA
ENDROOT
BRANCH   1   3
ATOM      3  C   UNL     1      -3.252  -1.207  -1.250  0.00  0.00    +0.145 C 
ATOM      4  N   UNL     1      -3.999  -1.476  -0.227  0.00  0.00    -0.177 NA
ATOM      5  N   UNL     1      -5.269  -1.942  -0.559  0.00  0.00    -0.216 N 
ATOM      6  C   UNL     1      -5.390  -1.993  -2.025  0.00  0.00    +0.134 C 
ATOM      7  C   UNL     1      -4.022  -1.487  -2.522  0.00  0.00    +0.093 C 
BRANCH   6   8
ATOM      8  C   UNL     1      -5.642  -3.405  -2.487  0.00  0.00    -0.025 A 
ATOM      9  C   UNL     1      -5.003  -4.461  -1.864  0.00  0.00    +0.005 A 
ATOM     10  C   UNL     1      -5.234  -5.756  -2.288  0.00  0.00    +0.000 A 
ATOM     11  C   UNL     1      -6.104  -5.996  -3.335  0.00  0.00    +0.000 A 
ATOM     12  C   UNL     1      -6.744  -4.940  -3.957  0.00  0.00    +0.000 A 
ATOM     13  C   UNL     1      -6.517  -3.645  -3.530  0.00  0.00    +0.005 A 
ENDBRANCH   6   8
BRANCH   5  14
ATOM     14  C   UNL     1      -6.265  -2.303   0.350  0.00  0.00    +0.052 A 
ATOM     15  C   UNL     1      -7.494  -2.762  -0.108  0.00  0.00    +0.025 A 
ATOM     16  C   UNL     1      -8.476  -3.118   0.794  0.00  0.00    +0.002 A 
ATOM     17  C   UNL     1      -8.239  -3.018   2.153  0.00  0.00    +0.000 A 
ATOM     18  C   UNL     1      -7.017  -2.562   2.613  0.00  0.00    +0.002 A 
ATOM     19  C   UNL     1      -6.027  -2.210   1.716  0.00  0.00    +0.025 A 
ENDBRANCH   5  14
ENDBRANCH   1   3
BRANCH   1  20
ATOM     20  O   UNL     1      -1.337  -0.506   0.008  0.00  0.00    -0.448 OA
BRANCH  20  22
ATOM     21  C   UNL     1      -0.012   1.515  -0.007  0.00  0.00    +0.062 C 
ATOM     22  C   UNL     1       0.005  -0.015  -0.004  0.00  0.00    +0.259 C 
BRANCH  22  23
ATOM     23  C   UNL     1       0.732  -0.506   1.221  0.00  0.00    +0.261 C 
ATOM     24  O   UNL     1       0.134  -1.132   2.070  0.00  0.00    -0.271 OA
ATOM     25  N   UNL     1       2.046  -0.251   1.373  0.00  0.00    -0.237 N 
ATOM     26  C   UNL     1       2.696  -0.691   2.468  0.00  0.00    +0.310 C 
ATOM     27  O   UNL     1       2.097  -1.318   3.319  0.00  0.00    -0.252 OA
ATOM     28  N   UNL     1       4.011  -0.435   2.620  0.00  0.00    -0.269 N 
ATOM     29  H   UNL     1       2.525   0.250   0.693  0.00  0.00    +0.159 HD
ATOM     30  H   UNL     1       4.504   0.007   1.911  0.00  0.00    +0.156 HD
BRANCH  28  31
ATOM     31  C   UNL     1       4.664  -0.806   3.800  0.00  0.00    +0.035 A 
ATOM     32  C   UNL     1       5.676  -0.008   4.316  0.00  0.00    +0.023 A 
ATOM     33  C   UNL     1       6.319  -0.377   5.482  0.00  0.00    +0.002 A 
ATOM     34  C   UNL     1       5.956  -1.541   6.134  0.00  0.00    +0.000 A 
ATOM     35  C   UNL     1       4.949  -2.339   5.622  0.00  0.00    +0.002 A 
ATOM     36  C   UNL     1       4.298  -1.972   4.461  0.00  0.00    +0.023 A 
ENDBRANCH  28  31
ENDBRANCH  22  23
ENDBRANCH  20  22
ENDBRANCH   1  20
TORSDOF 7
