REMARK  Name = ZINC13179226
REMARK  8 active torsions:
REMARK  status: ('A' for Active; 'I' for Inactive)
REMARK    1  A    between atoms: C_1  and  C_2
REMARK    2  A    between atoms: C_2  and  N_3
REMARK    3  A    between atoms: C_5  and  C_33
REMARK    4  A    between atoms: C_11  and  N_15
REMARK    5  A    between atoms: C_21  and  C_23
REMARK    6  A    between atoms: C_23  and  C_25
REMARK    7  A    between atoms: C_23  and  S_26
REMARK    8  A    between atoms: S_26  and  C_27
REMARK                            x       y       z     vdW  Elec       q    Type
REMARK                         _______ _______ _______ _____ _____    ______ ____
ROOT
ATOM      1  N   UNL     1      -0.148   5.608   0.002  0.00  0.00    -0.346 N 
ATOM      2  C   UNL     1       0.961   6.359  -0.017  0.00  0.00    +0.105 A 
ATOM      3  C   UNL     1       2.224   5.805  -0.010  0.00  0.00    +0.126 A 
ATOM      4  C   UNL     1       2.359   4.339   0.017  0.00  0.00    +0.204 A 
ATOM      5  O   UNL     1       3.453   3.801   0.023  0.00  0.00    -0.286 OA
ATOM      6  C   UNL     1       1.116   3.549   0.036  0.00  0.00    +0.049 A 
ATOM      7  C   UNL     1      -0.115   4.229   0.027  0.00  0.00    +0.055 A 
ATOM      8  C   UNL     1      -1.296   3.496   0.044  0.00  0.00    +0.052 A 
ATOM      9  C   UNL     1      -1.246   2.111   0.064  0.00  0.00    +0.067 A 
ATOM     10  C   UNL     1      -0.018   1.445   0.078  0.00  0.00    +0.145 A 
ATOM     11  C   UNL     1       1.150   2.152   0.062  0.00  0.00    +0.054 A 
ATOM     12  F   UNL     1       0.014   0.095   0.103  0.00  0.00    -0.204 F 
ENDROOT
BRANCH   9  13
ATOM     13  N   UNL     1      -2.430   1.378   0.075  0.00  0.00    -0.325 N 
ATOM     14  C   UNL     1      -3.189   1.583  -1.166  0.00  0.00    +0.124 C 
ATOM     15  C   UNL     1      -4.386   0.627  -1.193  0.00  0.00    +0.126 C 
ATOM     16  N   UNL     1      -5.158   0.810   0.045  0.00  0.00    -0.298 N 
ATOM     17  C   UNL     1      -4.440   0.754   1.327  0.00  0.00    +0.126 C 
ATOM     18  C   UNL     1      -3.241   1.706   1.256  0.00  0.00    +0.124 C 
ATOM     19  C   UNL     1      -6.489   1.022   0.005  0.00  0.00    +0.229 C 
ATOM     20  O   UNL     1      -7.110   1.170   1.037  0.00  0.00    -0.274 OA
BRANCH  19  21
ATOM     21  C   UNL     1      -7.204   1.075  -1.320  0.00  0.00    +0.134 C 
ATOM     22  C   UNL     1      -7.566  -0.344  -1.762  0.00  0.00    +0.029 C 
BRANCH  21  23
ATOM     23  S   UNL     1      -8.718   2.060  -1.150  0.00  0.00    -0.113 S 
BRANCH  23  24
ATOM     24  C   UNL     1      -8.133   3.702  -0.896  0.00  0.00    +0.009 A 
ATOM     25  C   UNL     1      -6.774   3.979  -0.987  0.00  0.00    +0.015 A 
ATOM     26  C   UNL     1      -6.319   5.268  -0.793  0.00  0.00    +0.001 A 
ATOM     27  C   UNL     1      -7.213   6.282  -0.498  0.00  0.00    +0.000 A 
ATOM     28  C   UNL     1      -8.566   6.009  -0.401  0.00  0.00    +0.001 A 
ATOM     29  C   UNL     1      -9.028   4.723  -0.599  0.00  0.00    +0.015 A 
ENDBRANCH  23  24
ENDBRANCH  21  23
ENDBRANCH  19  21
ENDBRANCH   9  13
BRANCH   3  30
ATOM     30  C   UNL     1       3.417   6.663  -0.030  0.00  0.00    +0.392 C 
ATOM     31  O   UNL     1       4.525   6.164  -0.024  0.00  0.00    -0.240 OA
ATOM     32  O   UNL     1       3.281   8.004  -0.055  0.00  0.00    -0.240 OA
ENDBRANCH   3  30
BRANCH   1  34
ATOM     33  C   UNL     1      -1.956   6.427   1.430  0.00  0.00    +0.027 C 
ATOM     34  C   UNL     1      -1.450   6.279  -0.006  0.00  0.00    +0.118 C 
ENDBRANCH   1  34
TORSDOF 6
