REMARK  Name = ZINC59461845
REMARK  8 active torsions:
REMARK  status: ('A' for Active; 'I' for Inactive)
REMARK    1  A    between atoms: C_1  and  C_2
REMARK    2  A    between atoms: C_3  and  C_22
REMARK    3  A    between atoms: C_9  and  C_12
REMARK    4  A    between atoms: C_16  and  N_18
REMARK    5  A    between atoms: C_22  and  C_24
REMARK    6  A    between atoms: C_22  and  C_31
REMARK    7  A    between atoms: C_31  and  C_33
REMARK    8  A    between atoms: C_31  and  C_35
REMARK                            x       y       z     vdW  Elec       q    Type
REMARK                         _______ _______ _______ _____ _____    ______ ____
ROOT
ATOM      1  C   UNL     1       0.097   1.242   0.423  0.00  0.00    +0.065 C 
ATOM      2  C   UNL     1      -0.516   1.534  -0.922  0.00  0.00    +0.039 A 
ATOM      3  C   UNL     1      -0.769   2.760  -1.423  0.00  0.00    +0.048 A 
ATOM      4  C   UNL     1      -1.343   2.600  -2.706  0.00  0.00    +0.277 A 
ATOM      5  N   UNL     1      -1.426   1.277  -2.954  0.00  0.00    -0.194 N 
ATOM      6  N   UNL     1      -0.904   0.602  -1.842  0.00  0.00    -0.292 N 
ATOM      7  C   UNL     1      -1.931   0.689  -4.106  0.00  0.00    +0.196 A 
ATOM      8  N   UNL     1      -2.046  -0.590  -4.409  0.00  0.00    -0.221 NA
ATOM      9  C   UNL     1      -2.558  -0.979  -5.567  0.00  0.00    +0.081 A 
ATOM     10  C   UNL     1      -2.977  -0.037  -6.465  0.00  0.00    +0.077 A 
ATOM     11  S   UNL     1      -2.608   1.464  -5.567  0.00  0.00    -0.056 S 
ATOM     12  O   UNL     1      -1.699   3.495  -3.451  0.00  0.00    -0.265 OA
ATOM     13  H   UNL     1      -0.833  -0.360  -1.742  0.00  0.00    +0.187 HD
ENDROOT
BRANCH   9  14
ATOM     14  C   UNL     1      -2.677  -2.422  -5.887  0.00  0.00    +0.003 A 
ATOM     15  C   UNL     1      -3.211  -2.827  -7.110  0.00  0.00    +0.010 A 
ATOM     16  C   UNL     1      -3.318  -4.171  -7.402  0.00  0.00    +0.003 A 
ATOM     17  C   UNL     1      -2.897  -5.117  -6.484  0.00  0.00    +0.033 A 
ATOM     18  C   UNL     1      -2.367  -4.721  -5.269  0.00  0.00    +0.127 A 
ATOM     19  C   UNL     1      -2.249  -3.379  -4.969  0.00  0.00    +0.042 A 
BRANCH  18  20
ATOM     20  N   UNL     1      -1.919  -5.739  -4.292  0.00  0.00    +0.056 N 
ATOM     21  O   UNL     1      -2.017  -6.915  -4.556  0.00  0.00    -0.126 OA
ATOM     22  O   UNL     1      -1.455  -5.395  -3.230  0.00  0.00    -0.126 OA
ENDBRANCH  18  20
ENDBRANCH   9  14
BRANCH   3  23
ATOM     23  C   UNL     1      -0.489   4.072  -0.737  0.00  0.00    +0.082 C 
BRANCH  23  24
ATOM     24  C   UNL     1       0.526   4.849  -1.534  0.00  0.00    -0.038 A 
ATOM     25  C   UNL     1       0.152   5.473  -2.709  0.00  0.00    +0.006 A 
ATOM     26  C   UNL     1       1.083   6.186  -3.440  0.00  0.00    +0.020 A 
ATOM     27  C   UNL     1       2.390   6.276  -2.996  0.00  0.00    +0.041 A 
ATOM     28  C   UNL     1       2.764   5.651  -1.819  0.00  0.00    +0.020 A 
ATOM     29  C   UNL     1       1.831   4.943  -1.086  0.00  0.00    +0.006 A 
ATOM     30 CL   UNL     1       3.561   7.171  -3.914  0.00  0.00    -0.084 Cl
ENDBRANCH  23  24
BRANCH  23  31
ATOM     31  C   UNL     1      -1.784   4.881  -0.634  0.00  0.00    +0.189 C 
BRANCH  31  32
ATOM     32  C   UNL     1      -2.800   4.103   0.162  0.00  0.00    +0.228 C 
ATOM     33  O   UNL     1      -3.252   4.569   1.187  0.00  0.00    -0.275 OA
ATOM     34  N   UNL     1      -3.206   2.891  -0.264  0.00  0.00    -0.328 N 
ATOM     35  H   UNL     1      -2.844   2.518  -1.083  0.00  0.00    +0.145 HD
ATOM     36  H   UNL     1      -3.860   2.390   0.249  0.00  0.00    +0.145 HD
ENDBRANCH  31  32
BRANCH  31  37
ATOM     37  C   UNL     1      -1.511   6.162   0.036  0.00  0.00    +0.076 C 
ATOM     38  N   UNL     1      -1.300   7.151   0.554  0.00  0.00    -0.196 NA
ENDBRANCH  31  37
ENDBRANCH  23  31
ENDBRANCH   3  23
TORSDOF 7
