REMARK  Name = ZINC13453344
REMARK  14 active torsions:
REMARK  status: ('A' for Active; 'I' for Inactive)
REMARK    1  A    between atoms: C_1  and  C_2
REMARK    2  A    between atoms: C_2  and  C_3
REMARK    3  A    between atoms: C_3  and  C_4
REMARK    4  A    between atoms: C_4  and  N_5
REMARK    5  A    between atoms: C_6  and  N_31
REMARK    6  A    between atoms: C_7  and  N_14
REMARK    7  A    between atoms: N_14  and  C_15
REMARK    8  A    between atoms: C_15  and  C_16
REMARK    9  A    between atoms: C_16  and  O_17
REMARK   10  A    between atoms: O_17  and  C_18
REMARK   11  A    between atoms: C_19  and  C_21
REMARK   12  A    between atoms: C_22  and  C_23
REMARK   13  A    between atoms: C_25  and  C_29
REMARK   14  A    between atoms: C_26  and  C_28
REMARK                            x       y       z     vdW  Elec       q    Type
REMARK                         _______ _______ _______ _____ _____    ______ ____
ROOT
ATOM      1  N   UNL     1       2.443   3.798  -0.041  0.00  0.00    -0.259 N 
ATOM      2  C   UNL     1       2.479   5.145  -0.070  0.00  0.00    +0.244 C 
ATOM      3  O   UNL     1       1.445   5.784   0.010  0.00  0.00    -0.270 OA
ENDROOT
BRANCH   1   6
ATOM      4  N   UNL     1      -0.393   1.737   1.057  0.00  0.00    -0.280 N 
ATOM      5  C   UNL     1       0.822   2.381   1.072  0.00  0.00    +0.127 A 
ATOM      6  C   UNL     1       1.203   3.126  -0.025  0.00  0.00    +0.140 A 
ATOM      7  C   UNL     1       0.332   3.204  -1.129  0.00  0.00    +0.277 A 
ATOM      8  O   UNL     1       0.644   3.855  -2.112  0.00  0.00    -0.266 OA
ATOM      9  N   UNL     1      -0.847   2.554  -1.092  0.00  0.00    -0.273 N 
ATOM     10  H   UNL     1      -1.465   2.605  -1.877  0.00  0.00    +0.173 HD
ATOM     11  C   UNL     1      -1.204   1.836  -0.012  0.00  0.00    +0.331 A 
ATOM     12  O   UNL     1      -2.276   1.263  -0.004  0.00  0.00    -0.246 OA
BRANCH   5  13
ATOM     13  N   UNL     1       1.648   2.283   2.166  0.00  0.00    -0.343 N 
ATOM     14  H   UNL     1       2.461   2.811   2.209  0.00  0.00    +0.144 HD
ATOM     15  H   UNL     1       1.417   1.687   2.896  0.00  0.00    +0.144 HD
ENDBRANCH   5  13
BRANCH   4  16
ATOM     16  C   UNL     1      -0.810   0.942   2.215  0.00  0.00    +0.128 C 
BRANCH  16  17
ATOM     17  C   UNL     1      -1.580   1.832   3.193  0.00  0.00    +0.021 C 
BRANCH  17  19
ATOM     18  C   UNL     1      -2.786   1.891   5.381  0.00  0.00    +0.004 C 
ATOM     19  C   UNL     1      -2.016   1.002   4.403  0.00  0.00    -0.002 C 
ENDBRANCH  17  19
ENDBRANCH  16  17
ENDBRANCH   4  16
ENDBRANCH   1   6
BRANCH   2  20
ATOM     20  C   UNL     1       3.720   5.817  -0.193  0.00  0.00    +0.071 C 
ATOM     21  C   UNL     1       3.756   7.172  -0.222  0.00  0.00    +0.051 C 
BRANCH  21  22
ATOM     22  C   UNL     1       4.998   7.845  -0.345  0.00  0.00    +0.129 A 
ATOM     23  C   UNL     1       5.169   9.198  -0.386  0.00  0.00    +0.064 A 
ATOM     24  C   UNL     1       6.562   9.426  -0.514  0.00  0.00    +0.104 A 
ATOM     25  C   UNL     1       7.160   8.184  -0.543  0.00  0.00    +0.117 A 
ATOM     26  O   UNL     1       6.207   7.255  -0.435  0.00  0.00    -0.460 OA
ATOM     27  C   UNL     1       8.639   7.921  -0.669  0.00  0.00    +0.087 C 
BRANCH  24  28
ATOM     28  C   UNL     1       7.237  10.733  -0.598  0.00  0.00    +0.390 C 
ATOM     29  O   UNL     1       8.447  10.786  -0.706  0.00  0.00    -0.240 OA
ATOM     30  O   UNL     1       6.514  11.870  -0.555  0.00  0.00    -0.240 OA
ENDBRANCH  24  28
ENDBRANCH  21  22
ENDBRANCH   2  20
BRANCH   1  31
ATOM     31  C   UNL     1       3.691   3.032  -0.026  0.00  0.00    +0.142 C 
BRANCH  31  32
ATOM     32  C   UNL     1       4.055   2.621  -1.455  0.00  0.00    +0.179 C 
BRANCH  32  33
ATOM     33  O   UNL     1       4.337   3.789  -2.229  0.00  0.00    -0.381 OA
ATOM     34  C   UNL     1       4.689   3.515  -3.586  0.00  0.00    +0.194 C 
ENDBRANCH  32  33
ENDBRANCH  31  32
ENDBRANCH   1  31
TORSDOF 11
