REMARK  Name = ZINC40655309
REMARK  5 active torsions:
REMARK  status: ('A' for Active; 'I' for Inactive)
REMARK    1  A    between atoms: C_1  and  C_2
REMARK    2  A    between atoms: C_2  and  C_10
REMARK    3  A    between atoms: C_3  and  C_4
REMARK    4  A    between atoms: N_12  and  C_13
REMARK    5  A    between atoms: C_22  and  C_24
REMARK                            x       y       z     vdW  Elec       q    Type
REMARK                         _______ _______ _______ _____ _____    ______ ____
ROOT
ATOM      1  C   UNL     1      -0.256  -0.691  -3.524  0.00  0.00    +0.035 A 
ATOM      2  C   UNL     1       0.210  -1.983  -3.733  0.00  0.00    +0.024 A 
ATOM      3  C   UNL     1       0.348  -2.462  -5.021  0.00  0.00    +0.007 A 
ATOM      4  C   UNL     1       0.023  -1.661  -6.100  0.00  0.00    -0.024 A 
ATOM      5  C   UNL     1      -0.443  -0.369  -5.905  0.00  0.00    +0.042 A 
ATOM      6  C   UNL     1      -0.586   0.111  -4.603  0.00  0.00    +0.047 A 
ATOM      7  N   UNL     1      -0.711   0.270  -7.119  0.00  0.00    -0.264 N 
ATOM      8  C   UNL     1      -0.416  -0.630  -8.237  0.00  0.00    +0.119 C 
ATOM      9  C   UNL     1       0.079  -1.932  -7.587  0.00  0.00    +0.056 C 
ATOM     10  C   UNL     1      -1.175   1.529  -7.242  0.00  0.00    +0.286 C 
ATOM     11  O   UNL     1      -1.391   2.198  -6.249  0.00  0.00    -0.266 OA
ENDROOT
BRANCH  10  12
ATOM     12  C   UNL     1      -1.420   2.092  -8.574  0.00  0.00    +0.190 A 
ATOM     13  C   UNL     1      -1.882   3.350  -8.840  0.00  0.00    +0.054 A 
ATOM     14  C   UNL     1      -1.966   3.461 -10.237  0.00  0.00    +0.042 A 
ATOM     15  C   UNL     1      -1.557   2.282 -10.755  0.00  0.00    +0.196 A 
ATOM     16  O   UNL     1      -1.223   1.462  -9.750  0.00  0.00    -0.458 OA
ENDBRANCH  10  12
BRANCH   1  19
ATOM     17  C   UNL     1       0.485  -0.561  -1.268  0.00  0.00    +0.244 C 
ATOM     18  O   UNL     1       1.352  -1.378  -1.517  0.00  0.00    -0.270 OA
ATOM     19  N   UNL     1      -0.396  -0.201  -2.221  0.00  0.00    -0.282 N 
ATOM     20  H   UNL     1      -1.128   0.397  -2.005  0.00  0.00    +0.155 HD
BRANCH  17  22
ATOM     21  C   UNL     1      -0.672   1.044   0.377  0.00  0.00    +0.049 C 
ATOM     22  C   UNL     1       0.401   0.032   0.068  0.00  0.00    +0.012 C 
ATOM     23  C   UNL     1       1.283  -0.328   1.022  0.00  0.00    +0.016 C 
BRANCH  23  24
ATOM     24  C   UNL     1       1.302   0.382   2.312  0.00  0.00    -0.025 A 
ATOM     25  C   UNL     1       1.553  -0.319   3.496  0.00  0.00    +0.008 A 
ATOM     26  C   UNL     1       1.570   0.353   4.700  0.00  0.00    +0.001 A 
ATOM     27  C   UNL     1       1.339   1.717   4.739  0.00  0.00    +0.000 A 
ATOM     28  C   UNL     1       1.090   2.418   3.571  0.00  0.00    +0.001 A 
ATOM     29  C   UNL     1       1.076   1.761   2.359  0.00  0.00    +0.008 A 
ENDBRANCH  23  24
ENDBRANCH  17  22
ENDBRANCH   1  19
TORSDOF 4
