REMARK  Name = ZINC14999423
REMARK  12 active torsions:
REMARK  status: ('A' for Active; 'I' for Inactive)
REMARK    1  A    between atoms: C_1  and  C_2
REMARK    2  A    between atoms: C_2  and  C_34
REMARK    3  A    between atoms: C_4  and  C_9
REMARK    4  A    between atoms: N_11  and  C_12
REMARK    5  A    between atoms: C_12  and  C_13
REMARK    6  A    between atoms: C_13  and  O_14
REMARK    7  A    between atoms: O_14  and  C_15
REMARK    8  A    between atoms: C_18  and  C_21
REMARK    9  A    between atoms: C_21  and  N_70
REMARK   10  A    between atoms: C_22  and  N_70
REMARK   11  A    between atoms: C_23  and  C_24
REMARK   12  A    between atoms: C_23  and  N_70
REMARK                            x       y       z     vdW  Elec       q    Type
REMARK                         _______ _______ _______ _____ _____    ______ ____
ROOT
ATOM      1  C   UNL     1       2.018  -1.277   3.581  0.00  0.00    +0.121 A 
ATOM      2  C   UNL     1       0.692  -0.882   3.675  0.00  0.00    +0.046 A 
ATOM      3  C   UNL     1       0.016  -0.461   2.546  0.00  0.00    +0.005 A 
ATOM      4  C   UNL     1       0.661  -0.434   1.323  0.00  0.00    -0.064 A 
ATOM      5  C   UNL     1       1.982  -0.832   1.226  0.00  0.00    +0.005 A 
ATOM      6  C   UNL     1       2.663  -1.248   2.353  0.00  0.00    +0.046 A 
ENDROOT
BRANCH   1   7
ATOM      7  O   UNL     1       2.685  -1.691   4.691  0.00  0.00    -0.490 OA
BRANCH   7   8
ATOM      8  C   UNL     1       4.049  -2.083   4.520  0.00  0.00    +0.247 C 
BRANCH   8   9
ATOM      9  C   UNL     1       4.628  -2.514   5.869  0.00  0.00    +0.145 C 
BRANCH   9  12
ATOM     10  C   UNL     1       4.281  -4.280   7.510  0.00  0.00    +0.216 C 
ATOM     11  O   UNL     1       5.165  -3.792   8.181  0.00  0.00    -0.276 OA
ATOM     12  N   UNL     1       3.935  -3.717   6.336  0.00  0.00    -0.312 N 
ATOM     13  H   UNL     1       3.228  -4.108   5.800  0.00  0.00    +0.149 HD
BRANCH  10  17
ATOM     14  C   UNL     1       1.982  -7.012   9.982  0.00  0.00    +0.041 C 
ATOM     15  C   UNL     1       3.478  -7.258   9.778  0.00  0.00    +0.065 C 
ATOM     16  C   UNL     1       4.154  -5.957   9.336  0.00  0.00    +0.047 C 
ATOM     17  C   UNL     1       3.567  -5.518   7.991  0.00  0.00    +0.080 C 
ATOM     18  C   UNL     1       3.755  -6.646   6.972  0.00  0.00    +0.041 C 
ATOM     19  C   UNL     1       3.094  -7.920   7.505  0.00  0.00    +0.161 C 
ATOM     20  O   UNL     1       3.664  -8.256   8.772  0.00  0.00    -0.374 OA
ATOM     21  C   UNL     1       4.101  -7.736  11.091  0.00  0.00    +0.041 C 
ENDBRANCH  10  17
ENDBRANCH   9  12
ENDBRANCH   8   9
ENDBRANCH   7   8
ENDBRANCH   1   7
BRANCH   4  22
ATOM     22  C   UNL     1      -0.078   0.026   0.093  0.00  0.00    -0.043 C 
BRANCH  22  24
ATOM     23  C   UNL     1       1.486   1.821  -0.349  0.00  0.00    -0.095 C 
ATOM     24  N   UNL     1       0.079   1.490  -0.039  0.00  0.00    +0.383 N 
ATOM     25  H   UNL     1      -0.180   1.934   0.849  0.00  0.00    -0.081 HD
BRANCH  24  26
ATOM     26  C   UNL     1      -0.806   1.998  -1.108  0.00  0.00    -0.042 C 
BRANCH  26  27
ATOM     27  C   UNL     1      -0.905   3.497  -0.982  0.00  0.00    -0.056 A 
ATOM     28  C   UNL     1      -0.247   4.302  -1.860  0.00  0.00    +0.002 A 
ATOM     29  C   UNL     1      -0.326   5.690  -1.759  0.00  0.00    +0.001 A 
ATOM     30  C   UNL     1      -1.065   6.280  -0.780  0.00  0.00    +0.008 A 
ATOM     31  C   UNL     1      -1.759   5.482   0.144  0.00  0.00    -0.018 A 
ATOM     32  C   UNL     1      -1.682   4.070   0.039  0.00  0.00    -0.017 A 
ATOM     33  C   UNL     1      -2.373   3.271   0.967  0.00  0.00    +0.009 A 
ATOM     34  C   UNL     1      -3.111   3.862   1.946  0.00  0.00    +0.001 A 
ATOM     35  C   UNL     1      -3.190   5.250   2.047  0.00  0.00    +0.001 A 
ATOM     36  C   UNL     1      -2.531   6.055   1.169  0.00  0.00    +0.008 A 
ENDBRANCH  26  27
ENDBRANCH  24  26
ENDBRANCH  22  24
ENDBRANCH   4  22
TORSDOF 9
