REMARK  Name = ZINC16016539
REMARK  7 active torsions:
REMARK  status: ('A' for Active; 'I' for Inactive)
REMARK    1  A    between atoms: C_1  and  C_2
REMARK    2  A    between atoms: N_7  and  S_9
REMARK    3  A    between atoms: S_9  and  C_12
REMARK    4  A    between atoms: C_15  and  N_18
REMARK    5  A    between atoms: C_19  and  C_21
REMARK    6  A    between atoms: C_22  and  C_23
REMARK    7  A    between atoms: C_26  and  N_29
REMARK                            x       y       z     vdW  Elec       q    Type
REMARK                         _______ _______ _______ _____ _____    ______ ____
ROOT
ATOM      1  C   UNL     1       2.539  -3.253  -0.223  0.00  0.00    +0.106 A 
ATOM      2  C   UNL     1       2.213  -4.462  -0.810  0.00  0.00    +0.030 A 
ATOM      3  C   UNL     1       2.643  -4.748  -2.091  0.00  0.00    +0.025 A 
ATOM      4  C   UNL     1       3.405  -3.819  -2.789  0.00  0.00    +0.034 A 
ATOM      5  C   UNL     1       3.731  -2.606  -2.196  0.00  0.00    +0.025 A 
ATOM      6  C   UNL     1       3.293  -2.325  -0.917  0.00  0.00    +0.030 A 
ENDROOT
BRANCH   4   7
ATOM      7  N   UNL     1       3.843  -4.106  -4.086  0.00  0.00    -0.282 N 
ATOM      8  C   UNL     1       5.031  -3.635  -4.515  0.00  0.00    +0.241 C 
ATOM      9  O   UNL     1       5.765  -3.044  -3.746  0.00  0.00    -0.270 OA
ATOM     10  H   UNL     1       3.292  -4.643  -4.676  0.00  0.00    +0.155 HD
BRANCH   8  11
ATOM     11  C   UNL     1       5.438  -3.836  -5.907  0.00  0.00    +0.068 C 
ATOM     12  C   UNL     1       6.627  -3.365  -6.336  0.00  0.00    +0.013 C 
BRANCH  12  13
ATOM     13  C   UNL     1       7.036  -3.567  -7.736  0.00  0.00    -0.025 A 
ATOM     14  C   UNL     1       6.192  -4.241  -8.624  0.00  0.00    +0.010 A 
ATOM     15  C   UNL     1       6.583  -4.426  -9.934  0.00  0.00    +0.033 A 
ATOM     16  C   UNL     1       7.806  -3.947 -10.369  0.00  0.00    +0.126 A 
ATOM     17  C   UNL     1       8.646  -3.279  -9.496  0.00  0.00    +0.033 A 
ATOM     18  C   UNL     1       8.268  -3.081  -8.185  0.00  0.00    +0.010 A 
BRANCH  16  19
ATOM     19  N   UNL     1       8.218  -4.150 -11.776  0.00  0.00    +0.056 N 
ATOM     20  O   UNL     1       7.487  -4.734 -12.542  0.00  0.00    -0.126 OA
ATOM     21  O   UNL     1       9.286  -3.733 -12.160  0.00  0.00    -0.126 OA
ENDBRANCH  16  19
ENDBRANCH  12  13
ENDBRANCH   8  11
ENDBRANCH   4   7
BRANCH   1  22
ATOM     22  S   UNL     1       1.988  -2.893   1.411  0.00  0.00    +0.061 S 
ATOM     23  O   UNL     1       2.880  -1.920   1.936  0.00  0.00    -0.153 OA
ATOM     24  O   UNL     1       1.763  -4.143   2.049  0.00  0.00    -0.153 OA
BRANCH  22  30
ATOM     25  C   UNL     1      -0.652   1.154  -0.144  0.00  0.00    +0.009 C 
ATOM     26  C   UNL     1      -0.422  -0.357  -0.080  0.00  0.00    +0.002 C 
ATOM     27  C   UNL     1      -1.771  -1.076   0.002  0.00  0.00    +0.006 C 
ATOM     28  C   UNL     1      -1.544  -2.589   0.033  0.00  0.00    +0.017 C 
ATOM     29  C   UNL     1      -0.725  -2.953   1.276  0.00  0.00    +0.109 C 
ATOM     30  N   UNL     1       0.510  -2.157   1.278  0.00  0.00    -0.176 NA
ATOM     31  C   UNL     1       0.410  -0.696   1.161  0.00  0.00    +0.112 C 
ENDBRANCH  22  30
ENDBRANCH   1  22
TORSDOF 6
