REMARK  Name = ZINC28055756
REMARK  6 active torsions:
REMARK  status: ('A' for Active; 'I' for Inactive)
REMARK    1  A    between atoms: C_1  and  O_2
REMARK    2  A    between atoms: O_2  and  C_3
REMARK    3  A    between atoms: C_6  and  C_9
REMARK    4  A    between atoms: C_20  and  C_22
REMARK    5  A    between atoms: C_27  and  O_28
REMARK    6  A    between atoms: O_28  and  C_29
REMARK                            x       y       z     vdW  Elec       q    Type
REMARK                         _______ _______ _______ _____ _____    ______ ____
ROOT
ATOM      1  C   UNL     1       0.482  -2.084   0.241  0.00  0.00    +0.174 C 
ATOM      2  C   UNL     1       1.657  -2.538   1.072  0.00  0.00    +0.026 C 
ATOM      3  C   UNL     1       2.818  -2.906   0.527  0.00  0.00    +0.050 C 
ATOM      4  C   UNL     1       3.913  -3.343   1.426  0.00  0.00    +0.038 A 
ATOM      5  C   UNL     1       5.230  -3.410   0.990  0.00  0.00    +0.013 A 
ATOM      6  C   UNL     1       6.217  -3.825   1.863  0.00  0.00    +0.001 A 
ATOM      7  C   UNL     1       5.897  -4.172   3.164  0.00  0.00    +0.004 A 
ATOM      8  C   UNL     1       4.588  -4.107   3.607  0.00  0.00    +0.046 A 
ATOM      9  C   UNL     1       3.591  -3.693   2.744  0.00  0.00    +0.131 A 
ATOM     10  O   UNL     1       2.296  -3.611   3.141  0.00  0.00    -0.479 OA
ATOM     11  C   UNL     1       1.510  -2.562   2.577  0.00  0.00    +0.238 C 
ATOM     12  N   UNL     1       3.030  -2.900  -0.857  0.00  0.00    -0.282 N 
ATOM     13  C   UNL     1       1.915  -2.771  -1.669  0.00  0.00    +0.240 A 
ATOM     14  N   UNL     1       0.712  -2.394  -1.163  0.00  0.00    -0.201 N 
ATOM     15  N   UNL     1      -0.161  -2.382  -2.250  0.00  0.00    -0.042 NA
ATOM     16  N   UNL     1       0.535  -2.726  -3.285  0.00  0.00    -0.021 NA
ATOM     17  N   UNL     1       1.758  -2.954  -2.948  0.00  0.00    -0.092 NA
ATOM     18  H   UNL     1       4.050  -2.996  -1.258  0.00  0.00    +0.155 HD
ENDROOT
BRANCH   1  22
ATOM     19  C   UNL     1      -0.030   2.134   0.697  0.00  0.00    +0.120 A 
ATOM     20  C   UNL     1      -1.076   1.271   0.990  0.00  0.00    +0.046 A 
ATOM     21  C   UNL     1      -0.908  -0.092   0.841  0.00  0.00    +0.009 A 
ATOM     22  C   UNL     1       0.302  -0.597   0.402  0.00  0.00    -0.018 A 
ATOM     23  C   UNL     1       1.346   0.261   0.109  0.00  0.00    +0.009 A 
ATOM     24  C   UNL     1       1.183   1.625   0.256  0.00  0.00    +0.046 A 
BRANCH  19  26
ATOM     25  C   UNL     1       0.928   4.303   0.523  0.00  0.00    +0.277 C 
ATOM     26  O   UNL     1      -0.192   3.475   0.843  0.00  0.00    -0.495 OA
ENDBRANCH  19  26
ENDBRANCH   1  22
BRANCH  11  27
ATOM     27  C   UNL     1       1.964  -1.241   3.142  0.00  0.00    +0.039 A 
ATOM     28  C   UNL     1       3.311  -0.936   3.191  0.00  0.00    +0.011 A 
ATOM     29  C   UNL     1       3.728   0.276   3.709  0.00  0.00    +0.001 A 
ATOM     30  C   UNL     1       2.799   1.186   4.179  0.00  0.00    +0.004 A 
ATOM     31  C   UNL     1       1.452   0.887   4.131  0.00  0.00    +0.046 A 
ATOM     32  C   UNL     1       1.030  -0.327   3.607  0.00  0.00    +0.127 A 
BRANCH  32  33
ATOM     33  O   UNL     1      -0.296  -0.621   3.555  0.00  0.00    -0.495 OA
ATOM     34  C   UNL     1      -1.204   0.400   3.971  0.00  0.00    +0.277 C 
ENDBRANCH  32  33
ENDBRANCH  11  27
TORSDOF 4
