REMARK  Name = ZINC39664030
REMARK  8 active torsions:
REMARK  status: ('A' for Active; 'I' for Inactive)
REMARK    1  A    between atoms: C_1  and  O_2
REMARK    2  A    between atoms: O_2  and  C_3
REMARK    3  A    between atoms: C_6  and  C_9
REMARK    4  A    between atoms: C_9  and  C_11
REMARK    5  A    between atoms: C_9  and  N_36
REMARK    6  A    between atoms: C_11  and  N_12
REMARK    7  A    between atoms: C_13  and  C_15
REMARK    8  A    between atoms: C_26  and  C_28
REMARK                            x       y       z     vdW  Elec       q    Type
REMARK                         _______ _______ _______ _____ _____    ______ ____
ROOT
ATOM      1  C   UNL     1       2.024  -5.545   8.763  0.00  0.00    +0.100 C 
ATOM      2  C   UNL     1       3.117  -4.876   9.626  0.00  0.00    +0.121 C 
ATOM      3  N   UNL     1       2.400  -4.395  10.830  0.00  0.00    -0.296 N 
ATOM      4  C   UNL     1       1.429  -5.472  11.137  0.00  0.00    +0.115 C 
ATOM      5  C   UNL     1       0.920  -5.938   9.759  0.00  0.00    -0.004 C 
ATOM      6  C   UNL     1       0.717  -7.450   9.754  0.00  0.00    -0.010 C 
ATOM      7  C   UNL     1      -0.425  -7.811  10.708  0.00  0.00    -0.082 C 
ATOM      8  N   UNL     1      -1.654  -7.132  10.282  0.00  0.00    +0.379 N 
ATOM      9  C   UNL     1      -1.481  -5.677  10.378  0.00  0.00    -0.082 C 
ATOM     10  C   UNL     1      -0.384  -5.226   9.410  0.00  0.00    -0.010 C 
ATOM     11  C   UNL     1       2.589  -3.239  11.497  0.00  0.00    +0.249 C 
ATOM     12  O   UNL     1       3.364  -2.408  11.065  0.00  0.00    -0.270 OA
ATOM     13  H   UNL     1      -1.861  -7.382   9.326  0.00  0.00    -0.086 HD
ATOM     14  H   UNL     1      -2.418  -7.418  10.875  0.00  0.00    -0.086 HD
ENDROOT
BRANCH  11  15
ATOM     15  C   UNL     1       1.855  -2.982  12.751  0.00  0.00    +0.072 A 
ATOM     16  C   UNL     1       1.574  -4.033  13.628  0.00  0.00    +0.019 A 
ATOM     17  C   UNL     1       0.889  -3.787  14.797  0.00  0.00    +0.039 A 
ATOM     18  C   UNL     1       0.476  -2.499  15.107  0.00  0.00    +0.126 A 
ATOM     19  C   UNL     1       0.750  -1.451  14.243  0.00  0.00    +0.077 A 
ATOM     20  C   UNL     1       1.442  -1.683  13.070  0.00  0.00    +0.138 A 
ATOM     21  F   UNL     1       1.714  -0.661  12.230  0.00  0.00    -0.205 F 
ATOM     22  F   UNL     1      -0.197  -2.266  16.255  0.00  0.00    -0.205 F 
ENDBRANCH  11  15
BRANCH   1  24
ATOM     23  N   UNL     1       1.032  -5.019   6.559  0.00  0.00    -0.316 N 
ATOM     24  C   UNL     1       1.490  -4.571   7.745  0.00  0.00    +0.218 C 
ATOM     25  O   UNL     1       1.472  -3.384   7.993  0.00  0.00    -0.275 OA
ATOM     26  H   UNL     1       1.047  -5.968   6.360  0.00  0.00    +0.149 HD
BRANCH  23  27
ATOM     27  C   UNL     1       0.513  -4.071   5.569  0.00  0.00    +0.093 C 
BRANCH  27  28
ATOM     28  C   UNL     1      -0.051  -4.841   4.373  0.00  0.00    -0.020 C 
BRANCH  28  32
ATOM     29  C   UNL     1       3.123  -6.884   2.369  0.00  0.00    +0.120 A 
ATOM     30  C   UNL     1       2.298  -7.573   3.246  0.00  0.00    +0.046 A 
ATOM     31  C   UNL     1       1.273  -6.910   3.893  0.00  0.00    +0.005 A 
ATOM     32  C   UNL     1       1.069  -5.561   3.666  0.00  0.00    -0.059 A 
ATOM     33  C   UNL     1       1.889  -4.873   2.792  0.00  0.00    +0.005 A 
ATOM     34  C   UNL     1       2.920  -5.529   2.148  0.00  0.00    +0.046 A 
BRANCH  29  36
ATOM     35  C   UNL     1       4.283  -8.927   2.008  0.00  0.00    +0.277 C 
ATOM     36  O   UNL     1       4.133  -7.533   1.732  0.00  0.00    -0.495 OA
ENDBRANCH  29  36
ENDBRANCH  28  32
BRANCH  28  37
ATOM     37  N   UNL     1      -0.692  -3.901   3.444  0.00  0.00    +0.385 N 
ATOM     38  C   UNL     1      -1.405  -4.644   2.374  0.00  0.00    -0.078 C 
ATOM     39  C   UNL     1      -2.441  -3.615   1.857  0.00  0.00    -0.020 C 
ATOM     40  C   UNL     1      -2.877  -2.886   3.149  0.00  0.00    -0.020 C 
ATOM     41  C   UNL     1      -1.728  -3.115   4.148  0.00  0.00    -0.078 C 
ATOM     42  H   UNL     1      -0.002  -3.285   3.040  0.00  0.00    -0.081 HD
ENDBRANCH  28  37
ENDBRANCH  27  28
ENDBRANCH  23  27
ENDBRANCH   1  24
TORSDOF 7
