REMARK  Name = ZINC36019114
REMARK  13 active torsions:
REMARK  status: ('A' for Active; 'I' for Inactive)
REMARK    1  A    between atoms: C_1  and  C_2
REMARK    2  A    between atoms: C_2  and  C_3
REMARK    3  A    between atoms: C_3  and  N_4
REMARK    4  A    between atoms: N_11  and  C_14
REMARK    5  A    between atoms: C_14  and  C_15
REMARK    6  A    between atoms: C_16  and  C_33
REMARK    7  A    between atoms: C_17  and  C_26
REMARK    8  A    between atoms: N_22  and  C_23
REMARK    9  A    between atoms: C_23  and  C_24
REMARK   10  A    between atoms: C_29  and  C_32
REMARK   11  A    between atoms: C_33  and  O_35
REMARK   12  A    between atoms: O_35  and  C_36
REMARK   13  A    between atoms: C_36  and  C_37
REMARK                            x       y       z     vdW  Elec       q    Type
REMARK                         _______ _______ _______ _____ _____    ______ ____
ROOT
ATOM      1  C   UNL     1      -5.506  -7.076   3.432  0.00  0.00    +0.011 C 
ATOM      2  C   UNL     1      -6.135  -8.197   3.846  0.00  0.00    +0.076 C 
ATOM      3  C   UNL     1      -7.603  -8.349   3.504  0.00  0.00    +0.143 C 
ATOM      4  N   UNL     1      -8.228  -7.254   2.744  0.00  0.00    -0.288 N 
ATOM      5  C   UNL     1      -7.468  -6.195   2.402  0.00  0.00    +0.307 C 
ATOM      6  O   UNL     1      -7.974  -5.285   1.774  0.00  0.00    -0.252 OA
ATOM      7  N   UNL     1      -6.174  -6.110   2.735  0.00  0.00    -0.257 N 
ATOM      8  H   UNL     1      -9.165  -7.293   2.495  0.00  0.00    +0.151 HD
ENDROOT
BRANCH   3   9
ATOM      9  C   UNL     1      -7.766  -9.618   2.707  0.00  0.00    -0.022 A 
ATOM     10  C   UNL     1      -7.461  -9.632   1.359  0.00  0.00    +0.006 A 
ATOM     11  C   UNL     1      -7.611 -10.796   0.628  0.00  0.00    +0.004 A 
ATOM     12  C   UNL     1      -8.064 -11.946   1.246  0.00  0.00    -0.050 A 
ATOM     13  C   UNL     1      -8.368 -11.933   2.595  0.00  0.00    +0.004 A 
ATOM     14  C   UNL     1      -8.215 -10.770   3.326  0.00  0.00    +0.006 A 
ATOM     15  C   UNL     1      -8.228 -13.215   0.449  0.00  0.00    +0.044 C 
ENDBRANCH   3   9
BRANCH   2  16
ATOM     16  C   UNL     1      -5.446  -9.196   4.572  0.00  0.00    +0.339 C 
ATOM     17  O   UNL     1      -4.304  -9.000   4.943  0.00  0.00    -0.245 OA
BRANCH  16  18
ATOM     18  O   UNL     1      -6.055 -10.367   4.854  0.00  0.00    -0.462 OA
BRANCH  18  19
ATOM     19  C   UNL     1      -5.300 -11.330   5.591  0.00  0.00    +0.229 C 
ATOM     20  C   UNL     1      -6.150 -12.583   5.814  0.00  0.00    +0.048 C 
ENDBRANCH  18  19
ENDBRANCH  16  18
ENDBRANCH   2  16
BRANCH   1  21
ATOM     21  C   UNL     1      -4.046  -6.885   3.751  0.00  0.00    -0.026 C 
BRANCH  21  29
ATOM     22  N   UNL     1      -3.614  -7.486   9.087  0.00  0.00    -0.299 N 
ATOM     23  C   UNL     1      -2.812  -6.464   8.728  0.00  0.00    +0.302 C 
ATOM     24  O   UNL     1      -1.727  -6.328   9.258  0.00  0.00    -0.253 OA
ATOM     25  N   UNL     1      -3.214  -5.594   7.780  0.00  0.00    -0.287 N 
ATOM     26  C   UNL     1      -2.268  -4.558   7.319  0.00  0.00    +0.107 C 
ATOM     27  C   UNL     1      -2.342  -4.381   5.791  0.00  0.00    +0.000 C 
ATOM     28  C   UNL     1      -2.492  -5.736   5.134  0.00  0.00    -0.077 C 
ATOM     29  N   UNL     1      -3.911  -6.019   4.930  0.00  0.00    +0.384 N 
ATOM     30  C   UNL     1      -4.557  -6.645   6.019  0.00  0.00    -0.059 C 
ATOM     31  C   UNL     1      -4.555  -5.713   7.247  0.00  0.00    +0.091 C 
ATOM     32  H   UNL     1      -4.508  -7.554   8.718  0.00  0.00    +0.150 HD
ATOM     33  H   UNL     1      -4.384  -5.149   4.737  0.00  0.00    -0.081 HD
BRANCH  22  34
ATOM     34  C   UNL     1      -3.135  -8.494  10.037  0.00  0.00    +0.105 C 
BRANCH  34  36
ATOM     35  C   UNL     1      -3.731 -10.587  11.264  0.00  0.00    +0.005 C 
ATOM     36  C   UNL     1      -4.232  -9.535  10.272  0.00  0.00    +0.015 C 
ENDBRANCH  34  36
ENDBRANCH  22  34
ENDBRANCH  21  29
ENDBRANCH   1  21
BRANCH   7  37
ATOM     37  C   UNL     1      -5.431  -4.916   2.323  0.00  0.00    +0.141 C 
BRANCH  37  38
ATOM     38  C   UNL     1      -4.925  -5.100   0.916  0.00  0.00    -0.015 C 
ATOM     39  C   UNL     1      -5.209  -4.211  -0.004  0.00  0.00    +0.005 C 
ENDBRANCH  37  38
ENDBRANCH   7  37
TORSDOF 10
