REMARK  Name = ZINC39345266
REMARK  7 active torsions:
REMARK  status: ('A' for Active; 'I' for Inactive)
REMARK    1  A    between atoms: C_1  and  C_2
REMARK    2  A    between atoms: C_2  and  N_3
REMARK    3  A    between atoms: C_5  and  N_16
REMARK    4  A    between atoms: C_6  and  C_8
REMARK    5  A    between atoms: N_10  and  C_11
REMARK    6  A    between atoms: C_17  and  C_19
REMARK    7  A    between atoms: C_21  and  C_29
REMARK                            x       y       z     vdW  Elec       q    Type
REMARK                         _______ _______ _______ _____ _____    ______ ____
ROOT
ATOM      1  N   UNL     1      -1.156  -0.494  -0.283  0.00  0.00    -0.269 N 
ATOM      2  C   UNL     1      -1.750  -1.305  -1.196  0.00  0.00    +0.132 A 
ATOM      3  C   UNL     1      -2.933  -1.709  -0.661  0.00  0.00    +0.084 A 
ATOM      4  C   UNL     1      -3.000  -1.092   0.615  0.00  0.00    +0.168 A 
ATOM      5  N   UNL     1      -1.894  -0.388   0.763  0.00  0.00    -0.165 NA
ENDROOT
BRANCH   4   6
ATOM      6  C   UNL     1      -4.096  -1.219   1.594  0.00  0.00    +0.266 C 
ATOM      7  O   UNL     1      -5.065  -1.908   1.336  0.00  0.00    -0.268 OA
ATOM      8  N   UNL     1      -4.024  -0.572   2.774  0.00  0.00    -0.307 N 
ATOM      9  H   UNL     1      -3.252  -0.022   2.979  0.00  0.00    +0.149 HD
BRANCH   8  10
ATOM     10  C   UNL     1      -5.113  -0.698   3.746  0.00  0.00    +0.073 C 
ATOM     11  C   UNL     1      -4.874  -1.923   4.652  0.00  0.00    +0.022 C 
ATOM     12  C   UNL     1      -4.183  -1.338   5.908  0.00  0.00    +0.002 C 
ATOM     13  C   UNL     1      -4.916   0.012   6.104  0.00  0.00    +0.002 C 
ATOM     14  C   UNL     1      -5.140   0.533   4.670  0.00  0.00    +0.022 C 
ENDBRANCH   8  10
ENDBRANCH   4   6
BRANCH   3  15
ATOM     15  N   UNL     1      -3.885  -2.557  -1.246  0.00  0.00    -0.282 N 
ATOM     16  C   UNL     1      -3.670  -3.066  -2.476  0.00  0.00    +0.221 C 
ATOM     17  O   UNL     1      -2.652  -2.790  -3.076  0.00  0.00    -0.275 OA
ATOM     18  H   UNL     1      -4.699  -2.777  -0.766  0.00  0.00    +0.155 HD
BRANCH  16  19
ATOM     19  C   UNL     1      -4.693  -3.976  -3.105  0.00  0.00    +0.092 C 
ATOM     20  C   UNL     1      -5.987  -3.198  -3.349  0.00  0.00    +0.117 C 
ATOM     21  C   UNL     1      -6.313  -3.206  -4.844  0.00  0.00    +0.004 C 
ATOM     22  C   UNL     1      -5.169  -2.549  -5.619  0.00  0.00    +0.004 C 
ATOM     23  C   UNL     1      -3.874  -3.328  -5.375  0.00  0.00    +0.004 C 
ATOM     24  C   UNL     1      -4.156  -4.504  -4.437  0.00  0.00    +0.002 C 
ATOM     25  C   UNL     1      -5.194  -5.428  -5.075  0.00  0.00    +0.004 C 
ATOM     26  C   UNL     1      -6.489  -4.649  -5.319  0.00  0.00    +0.004 C 
BRANCH  20  27
ATOM     27  C   UNL     1      -5.814  -1.776  -2.880  0.00  0.00    +0.360 C 
ATOM     28  O   UNL     1      -4.953  -1.071  -3.378  0.00  0.00    -0.246 OA
ATOM     29  O   UNL     1      -6.535  -1.331  -2.004  0.00  0.00    -0.246 OA
ENDBRANCH  20  27
ENDBRANCH  16  19
ENDBRANCH   3  15
BRANCH   1  31
ATOM     30  C   UNL     1      -0.012   1.667  -0.249  0.00  0.00    +0.029 C 
ATOM     31  C   UNL     1       0.143   0.159  -0.462  0.00  0.00    +0.140 C 
ENDBRANCH   1  31
TORSDOF 6
