REMARK  Name = ZINC36072230
REMARK  10 active torsions:
REMARK  status: ('A' for Active; 'I' for Inactive)
REMARK    1  A    between atoms: C_4  and  C_7
REMARK    2  A    between atoms: C_7  and  N_8
REMARK    3  A    between atoms: C_9  and  C_11
REMARK    4  A    between atoms: C_14  and  C_16
REMARK    5  A    between atoms: C_16  and  N_17
REMARK    6  A    between atoms: N_17  and  C_18
REMARK    7  A    between atoms: N_17  and  C_25
REMARK    8  A    between atoms: C_18  and  C_19
REMARK    9  A    between atoms: C_25  and  C_26
REMARK   10  A    between atoms: C_29  and  C_32
REMARK                            x       y       z     vdW  Elec       q    Type
REMARK                         _______ _______ _______ _____ _____    ______ ____
ROOT
ATOM      1  N   UNL     1       4.514  -2.652   7.113  0.00  0.00    +0.391 N 
ATOM      2  H   UNL     1       4.689  -3.645   7.077  0.00  0.00    -0.080 HD
ENDROOT
BRANCH   1   3
ATOM      3  C   UNL     1       5.648  -1.933   6.516  0.00  0.00    +0.020 C 
BRANCH   3   7
ATOM      4  C   UNL     1       8.750  -3.408   7.667  0.00  0.00    +0.163 A 
ATOM      5  C   UNL     1       8.578  -2.437   8.604  0.00  0.00    +0.230 A 
ATOM      6  O   UNL     1       7.441  -1.793   8.297  0.00  0.00    -0.449 OA
ATOM      7  C   UNL     1       6.925  -2.356   7.196  0.00  0.00    +0.179 A 
ATOM      8  N   UNL     1       7.701  -3.321   6.804  0.00  0.00    -0.210 NA
BRANCH   4  10
ATOM      9  N   UNL     1       9.961  -5.215   6.551  0.00  0.00    -0.306 N 
ATOM     10  C   UNL     1       9.866  -4.369   7.595  0.00  0.00    +0.266 C 
ATOM     11  O   UNL     1      10.701  -4.397   8.478  0.00  0.00    -0.268 OA
ATOM     12  H   UNL     1       9.255  -5.247   5.886  0.00  0.00    +0.149 HD
BRANCH   9  13
ATOM     13  C   UNL     1      11.130  -6.088   6.419  0.00  0.00    +0.140 C 
BRANCH  13  17
ATOM     14  C   UNL     1      10.739  -8.473   2.897  0.00  0.00    +0.000 A 
ATOM     15  C   UNL     1      11.361  -7.240   2.831  0.00  0.00    +0.000 A 
ATOM     16  C   UNL     1      11.488  -6.468   3.971  0.00  0.00    +0.005 A 
ATOM     17  C   UNL     1      10.991  -6.929   5.176  0.00  0.00    -0.030 A 
ATOM     18  C   UNL     1      10.368  -8.161   5.241  0.00  0.00    +0.005 A 
ATOM     19  C   UNL     1      10.243  -8.934   4.102  0.00  0.00    +0.000 A 
ENDBRANCH  13  17
ENDBRANCH   9  13
ENDBRANCH   4  10
ENDBRANCH   3   7
ENDBRANCH   1   3
BRANCH   1  20
ATOM     20  C   UNL     1       3.289  -2.343   6.363  0.00  0.00    -0.042 C 
BRANCH  20  21
ATOM     21  C   UNL     1       3.410  -2.881   4.960  0.00  0.00    -0.064 A 
ATOM     22  C   UNL     1       3.830  -2.053   3.936  0.00  0.00    +0.002 A 
ATOM     23  C   UNL     1       3.941  -2.546   2.650  0.00  0.00    +0.000 A 
ATOM     24  C   UNL     1       3.632  -3.867   2.387  0.00  0.00    +0.000 A 
ATOM     25  C   UNL     1       3.212  -4.696   3.411  0.00  0.00    +0.000 A 
ATOM     26  C   UNL     1       3.106  -4.204   4.699  0.00  0.00    +0.002 A 
ENDBRANCH  20  21
ENDBRANCH   1  20
BRANCH   1  27
ATOM     27  C   UNL     1       4.351  -2.233   8.511  0.00  0.00    -0.042 C 
BRANCH  27  28
ATOM     28  C   UNL     1       3.268  -3.058   9.159  0.00  0.00    -0.064 A 
ATOM     29  C   UNL     1       1.954  -2.631   9.114  0.00  0.00    +0.002 A 
ATOM     30  C   UNL     1       0.961  -3.387   9.709  0.00  0.00    +0.012 A 
ATOM     31  C   UNL     1       1.282  -4.571  10.347  0.00  0.00    +0.055 A 
ATOM     32  C   UNL     1       2.596  -4.998  10.391  0.00  0.00    +0.012 A 
ATOM     33  C   UNL     1       3.588  -4.244   9.793  0.00  0.00    +0.002 A 
BRANCH  31  34
ATOM     34  C   UNL     1       0.200  -5.394  10.996  0.00  0.00    +0.417 C 
ATOM     35  F   UNL     1      -0.311  -6.307  10.067  0.00  0.00    -0.166 F 
ATOM     36  F   UNL     1       0.733  -6.089  12.087  0.00  0.00    -0.166 F 
ATOM     37  F   UNL     1      -0.827  -4.552  11.436  0.00  0.00    -0.166 F 
ENDBRANCH  31  34
ENDBRANCH  27  28
ENDBRANCH   1  27
TORSDOF 10
