REMARK  Name = ZINC63795498
REMARK  6 active torsions:
REMARK  status: ('A' for Active; 'I' for Inactive)
REMARK    1  A    between atoms: C_1  and  C_2
REMARK    2  A    between atoms: C_5  and  C_8
REMARK    3  A    between atoms: C_8  and  O_9
REMARK    4  A    between atoms: O_9  and  C_10
REMARK    5  A    between atoms: C_14  and  C_16
REMARK    6  A    between atoms: C_19  and  C_29
REMARK                            x       y       z     vdW  Elec       q    Type
REMARK                         _______ _______ _______ _____ _____    ______ ____
ROOT
ATOM      1  C   UNL     1       1.606  -6.080  -0.186  0.00  0.00    +0.121 A 
ATOM      2  C   UNL     1       0.521  -6.933  -0.042  0.00  0.00    +0.045 A 
ATOM      3  C   UNL     1       0.726  -8.292   0.095  0.00  0.00    +0.004 A 
ATOM      4  C   UNL     1       2.011  -8.803   0.089  0.00  0.00    +0.005 A 
ATOM      5  C   UNL     1       3.094  -7.955  -0.053  0.00  0.00    -0.027 A 
ATOM      6  C   UNL     1       2.894  -6.596  -0.197  0.00  0.00    +0.050 A 
ENDROOT
BRANCH   5   7
ATOM      7  C   UNL     1       4.493  -8.516  -0.058  0.00  0.00    +0.108 C 
ATOM      8  C   UNL     1       5.008  -8.537   1.332  0.00  0.00    +0.014 C 
ATOM      9  C   UNL     1       4.319  -8.301   2.454  0.00  0.00    +0.064 C 
ATOM     10  N   UNL     1       5.116  -8.425   3.538  0.00  0.00    -0.157 NA
ATOM     11  N   UNL     1       6.287  -8.720   3.281  0.00  0.00    -0.160 NA
ATOM     12  C   UNL     1       6.404  -8.829   1.818  0.00  0.00    +0.244 C 
ATOM     13  N   UNL     1       6.899 -10.114   1.422  0.00  0.00    -0.288 N 
ATOM     14  C   UNL     1       6.871 -10.787   0.336  0.00  0.00    +0.225 C 
ATOM     15  O   UNL     1       7.566 -11.779   0.389  0.00  0.00    -0.275 OA
ATOM     16  C   UNL     1       6.189 -10.645  -0.978  0.00  0.00    +0.165 C 
ATOM     17  S   UNL     1       4.462 -10.164  -0.794  0.00  0.00    -0.139 S 
ATOM     18  C   UNL     1       2.855  -7.944   2.501  0.00  0.00    +0.067 C 
ATOM     19  H   UNL     1       7.360 -10.577   2.139  0.00  0.00    +0.151 HD
ENDBRANCH   5   7
BRANCH   1  20
ATOM     20  O   UNL     1       1.407  -4.743  -0.322  0.00  0.00    -0.487 OA
BRANCH  20  21
ATOM     21  C   UNL     1       0.055  -4.283  -0.302  0.00  0.00    +0.264 C 
BRANCH  21  26
ATOM     22  C   UNL     1      -0.039   1.462  -0.925  0.00  0.00    +0.044 C 
ATOM     23  C   UNL     1      -0.014  -0.036  -0.762  0.00  0.00    -0.050 A 
ATOM     24  C   UNL     1      -0.064  -0.853  -1.876  0.00  0.00    +0.004 A 
ATOM     25  C   UNL     1      -0.041  -2.227  -1.727  0.00  0.00    +0.007 A 
ATOM     26  C   UNL     1       0.031  -2.785  -0.464  0.00  0.00    -0.010 A 
ATOM     27  C   UNL     1       0.082  -1.968   0.650  0.00  0.00    +0.007 A 
ATOM     28  C   UNL     1       0.064  -0.594   0.500  0.00  0.00    +0.004 A 
ENDBRANCH  21  26
ENDBRANCH  20  21
ENDBRANCH   1  20
TORSDOF 4
