REMARK  Name = ZINC13513341
REMARK  13 active torsions:
REMARK  status: ('A' for Active; 'I' for Inactive)
REMARK    1  A    between atoms: C_1  and  C_2
REMARK    2  A    between atoms: C_2  and  C_3
REMARK    3  A    between atoms: C_2  and  C_4
REMARK    4  A    between atoms: C_10  and  N_16
REMARK    5  A    between atoms: C_12  and  S_14
REMARK    6  A    between atoms: S_14  and  C_15
REMARK    7  A    between atoms: N_16  and  C_17
REMARK    8  A    between atoms: C_17  and  C_18
REMARK    9  A    between atoms: C_18  and  N_61
REMARK   10  A    between atoms: C_19  and  N_61
REMARK   11  A    between atoms: C_20  and  N_61
REMARK   12  A    between atoms: C_25  and  C_28
REMARK   13  A    between atoms: C_25  and  C_29
REMARK                            x       y       z     vdW  Elec       q    Type
REMARK                         _______ _______ _______ _____ _____    ______ ____
ROOT
ATOM      1  C   UNL     1       3.969  -1.454  -0.048  0.00  0.00    +0.051 A 
ATOM      2  C   UNL     1       2.959  -2.408  -0.045  0.00  0.00    +0.004 A 
ATOM      3  C   UNL     1       1.645  -2.010  -0.025  0.00  0.00    -0.026 A 
ATOM      4  C   UNL     1       1.337  -0.631  -0.015  0.00  0.00    +0.037 A 
ATOM      5  C   UNL     1       0.002  -0.004   0.002  0.00  0.00    +0.094 A 
ATOM      6  C   UNL     1      -0.017   1.395   0.010  0.00  0.00    +0.080 A 
ATOM      7  C   UNL     1      -1.216   2.095   0.020  0.00  0.00    +0.138 A 
ATOM      8  N   UNL     1      -2.354   1.404   0.033  0.00  0.00    -0.206 NA
ATOM      9  C   UNL     1      -2.323   0.077   0.026  0.00  0.00    +0.190 A 
ATOM     10  N   UNL     1      -1.204  -0.616   0.011  0.00  0.00    -0.221 NA
ATOM     11  S   UNL     1       1.691   1.867  -0.004  0.00  0.00    -0.064 S 
ATOM     12  C   UNL     1       2.431   0.253  -0.020  0.00  0.00    +0.111 A 
ATOM     13  N   UNL     1       3.678  -0.169  -0.034  0.00  0.00    -0.244 NA
ATOM     14  C   UNL     1       0.514  -3.003  -0.009  0.00  0.00    +0.070 C 
ATOM     15  C   UNL     1       1.032  -4.379  -0.436  0.00  0.00    +0.068 C 
ATOM     16  O   UNL     1       2.218  -4.670   0.312  0.00  0.00    -0.369 OA
ATOM     17  C   UNL     1       3.336  -3.867  -0.067  0.00  0.00    +0.197 C 
ATOM     18  C   UNL     1       1.357  -4.365  -1.931  0.00  0.00    +0.041 C 
ATOM     19  C   UNL     1      -0.029  -5.444  -0.150  0.00  0.00    +0.041 C 
ENDROOT
BRANCH   1  21
ATOM     20  C   UNL     1       6.097  -1.341  -1.317  0.00  0.00    +0.014 C 
ATOM     21  C   UNL     1       5.411  -1.893  -0.065  0.00  0.00    +0.032 C 
ATOM     22  C   UNL     1       6.121  -1.362   1.181  0.00  0.00    +0.014 C 
ENDBRANCH   1  21
BRANCH   9  23
ATOM     23  S   UNL     1      -3.853  -0.798   0.037  0.00  0.00    -0.089 S 
ATOM     24  C   UNL     1      -5.011   0.593   0.056  0.00  0.00    +0.093 C 
ENDBRANCH   9  23
BRANCH   7  25
ATOM     25  N   UNL     1      -1.228   3.481   0.027  0.00  0.00    -0.330 N 
ATOM     26  H   UNL     1      -0.392   3.974   0.025  0.00  0.00    +0.147 HD
BRANCH  25  27
ATOM     27  C   UNL     1      -2.503   4.203   0.038  0.00  0.00    +0.084 C 
BRANCH  27  28
ATOM     28  C   UNL     1      -2.236   5.709   0.044  0.00  0.00    -0.061 C 
BRANCH  28  31
ATOM     29  C   UNL     1      -3.307   7.866   0.299  0.00  0.00    -0.097 C 
ATOM     30  C   UNL     1      -4.254   6.213  -1.196  0.00  0.00    -0.097 C 
ATOM     31  N   UNL     1      -3.531   6.422   0.076  0.00  0.00    +0.377 N 
ATOM     32  H   UNL     1      -4.098   6.050   0.847  0.00  0.00    -0.083 HD
ENDBRANCH  28  31
ENDBRANCH  27  28
ENDBRANCH  25  27
ENDBRANCH   7  25
TORSDOF 6
