REMARK  Name = ZINC06135338
REMARK  11 active torsions:
REMARK  status: ('A' for Active; 'I' for Inactive)
REMARK    1  A    between atoms: C_1  and  C_2
REMARK    2  A    between atoms: C_2  and  C_3
REMARK    3  A    between atoms: C_10  and  C_15
REMARK    4  A    between atoms: C_15  and  C_17
REMARK    5  A    between atoms: C_15  and  N_70
REMARK    6  A    between atoms: N_21  and  C_22
REMARK    7  A    between atoms: C_22  and  C_23
REMARK    8  A    between atoms: C_29  and  C_30
REMARK    9  A    between atoms: C_29  and  N_70
REMARK   10  A    between atoms: C_36  and  C_37
REMARK   11  A    between atoms: C_36  and  N_70
REMARK                            x       y       z     vdW  Elec       q    Type
REMARK                         _______ _______ _______ _____ _____    ______ ____
ROOT
ATOM      1  C   UNL     1       2.088   1.038  -0.177  0.00  0.00    +0.040 C 
ENDROOT
BRANCH   1   9
ATOM      2  C   UNL     1      -1.336   6.175   0.235  0.00  0.00    -0.047 A 
ATOM      3  C   UNL     1      -1.623   6.280  -1.120  0.00  0.00    +0.005 A 
ATOM      4  C   UNL     1      -1.136   5.353  -2.016  0.00  0.00    +0.026 A 
ATOM      5  C   UNL     1      -0.348   4.301  -1.560  0.00  0.00    +0.049 A 
ATOM      6  C   UNL     1      -0.064   4.195  -0.186  0.00  0.00    -0.001 A 
ATOM      7  C   UNL     1      -0.565   5.150   0.705  0.00  0.00    +0.013 A 
ATOM      8  C   UNL     1       0.770   3.087   0.283  0.00  0.00    +0.017 A 
ATOM      9  C   UNL     1       1.232   2.193  -0.627  0.00  0.00    +0.011 A 
ATOM     10  C   UNL     1       0.913   2.342  -1.994  0.00  0.00    +0.251 A 
ATOM     11  O   UNL     1       1.338   1.528  -2.795  0.00  0.00    -0.268 OA
ATOM     12  N   UNL     1       0.152   3.359  -2.434  0.00  0.00    -0.322 N 
ATOM     13  H   UNL     1      -0.054   3.434  -3.410  0.00  0.00    +0.169 HD
BRANCH   2  15
ATOM     14  C   UNL     1      -3.248   6.745   1.708  0.00  0.00    +0.009 C 
ATOM     15  C   UNL     1      -1.880   7.201   1.195  0.00  0.00    +0.032 C 
ENDBRANCH   2  15
ENDBRANCH   1   9
BRANCH   1  16
ATOM     16  C   UNL     1       2.453   1.218   1.274  0.00  0.00    +0.143 A 
ATOM     17  N   UNL     1       2.952   2.296   1.827  0.00  0.00    -0.115 NA
ATOM     18  N   UNL     1       3.124   2.057   3.082  0.00  0.00    -0.023 NA
ATOM     19  N   UNL     1       2.755   0.851   3.341  0.00  0.00    -0.044 NA
ATOM     20  N   UNL     1       2.335   0.301   2.252  0.00  0.00    -0.228 N 
BRANCH  20  21
ATOM     21  C   UNL     1       1.825  -1.065   2.108  0.00  0.00    +0.178 C 
BRANCH  21  22
ATOM     22  C   UNL     1       2.983  -2.009   1.779  0.00  0.00    +0.140 C 
ATOM     23  C   UNL     1       2.441  -3.429   1.512  0.00  0.00    +0.035 C 
ATOM     24  C   UNL     1       3.514  -4.325   2.190  0.00  0.00    +0.031 C 
ATOM     25  C   UNL     1       3.920  -3.437   3.393  0.00  0.00    +0.160 C 
ATOM     26  O   UNL     1       3.876  -2.090   2.897  0.00  0.00    -0.375 OA
ENDBRANCH  21  22
ENDBRANCH  20  21
ENDBRANCH   1  16
BRANCH   1  27
ATOM     27  N   UNL     1       3.305   0.995  -1.015  0.00  0.00    +0.397 N 
ATOM     28  H   UNL     1       3.039   1.133  -1.997  0.00  0.00    -0.079 HD
BRANCH  27  29
ATOM     29  C   UNL     1       3.967  -0.320  -0.878  0.00  0.00    -0.039 C 
BRANCH  29  30
ATOM     30  C   UNL     1       5.030  -0.441  -1.939  0.00  0.00    -0.046 A 
ATOM     31  C   UNL     1       6.354  -0.152  -1.643  0.00  0.00    +0.005 A 
ATOM     32  C   UNL     1       7.298  -0.278  -2.650  0.00  0.00    +0.020 A 
ATOM     33  C   UNL     1       6.891  -0.683  -3.907  0.00  0.00    +0.111 A 
ATOM     34  N   UNL     1       5.623  -0.949  -4.153  0.00  0.00    -0.263 NA
ATOM     35  C   UNL     1       4.699  -0.846  -3.218  0.00  0.00    +0.112 A 
ENDBRANCH  29  30
ENDBRANCH  27  29
BRANCH  27  36
ATOM     36  C   UNL     1       4.234   2.072  -0.613  0.00  0.00    -0.001 C 
BRANCH  36  37
ATOM     37  C   UNL     1       3.744   3.374  -1.194  0.00  0.00    +0.089 A 
ATOM     38  C   UNL     1       3.030   4.308  -0.540  0.00  0.00    +0.042 A 
ATOM     39  C   UNL     1       2.790   5.356  -1.458  0.00  0.00    +0.041 A 
ATOM     40  C   UNL     1       3.365   4.997  -2.620  0.00  0.00    +0.195 A 
ATOM     41  O   UNL     1       3.941   3.795  -2.454  0.00  0.00    -0.470 OA
ENDBRANCH  36  37
ENDBRANCH  27  36
ENDBRANCH   1  27
TORSDOF 10
