REMARK  Name = ZINC12905343
REMARK  6 active torsions:
REMARK  status: ('A' for Active; 'I' for Inactive)
REMARK    1  A    between atoms: C_1  and  O_2
REMARK    2  A    between atoms: O_2  and  C_3
REMARK    3  A    between atoms: C_5  and  C_12
REMARK    4  A    between atoms: C_7  and  O_10
REMARK    5  A    between atoms: O_10  and  C_11
REMARK    6  A    between atoms: C_18  and  C_20
REMARK                            x       y       z     vdW  Elec       q    Type
REMARK                         _______ _______ _______ _____ _____    ______ ____
ROOT
ATOM      1  C   UNL     1      -2.502   1.004   0.020  0.00  0.00    +0.247 C 
ATOM      2  O   UNL     1      -2.491  -0.206  -0.092  0.00  0.00    -0.270 OA
ATOM      3  N   UNL     1      -3.674   1.661   0.131  0.00  0.00    -0.290 N 
ATOM      4  C   UNL     1      -3.840   3.126   0.151  0.00  0.00    +0.109 C 
ATOM      5  C   UNL     1      -5.292   3.367  -0.329  0.00  0.00    +0.021 C 
ATOM      6  C   UNL     1      -6.038   2.172   0.323  0.00  0.00    +0.029 C 
ATOM      7  C   UNL     1      -4.999   1.034   0.245  0.00  0.00    +0.107 C 
ENDROOT
BRANCH   7   8
ATOM      8  C   UNL     1      -5.064   0.198   1.496  0.00  0.00    -0.023 A 
ATOM      9  C   UNL     1      -4.483   0.657   2.663  0.00  0.00    +0.009 A 
ATOM     10  C   UNL     1      -4.540  -0.105   3.817  0.00  0.00    +0.050 A 
ATOM     11  C   UNL     1      -5.181  -1.333   3.797  0.00  0.00    +0.162 A 
ATOM     12  C   UNL     1      -5.764  -1.793   2.626  0.00  0.00    +0.162 A 
ATOM     13  C   UNL     1      -5.711  -1.025   1.475  0.00  0.00    +0.055 A 
ATOM     14  O   UNL     1      -6.394  -3.004   2.617  0.00  0.00    -0.488 OA
ATOM     15  C   UNL     1      -7.603  -3.086   3.374  0.00  0.00    +0.232 C 
ATOM     16  C   UNL     1      -7.304  -3.377   4.837  0.00  0.00    +0.082 C 
ATOM     17  C   UNL     1      -6.540  -2.246   5.508  0.00  0.00    +0.232 C 
ATOM     18  O   UNL     1      -5.243  -2.095   4.927  0.00  0.00    -0.488 OA
ENDBRANCH   7   8
BRANCH   1  21
ATOM     19  C   UNL     1       1.097   1.928  -0.556  0.00  0.00    +0.138 A 
ATOM     20  C   UNL     1      -0.091   1.218  -0.567  0.00  0.00    +0.060 A 
ATOM     21  C   UNL     1      -1.229   1.756   0.035  0.00  0.00    +0.044 A 
ATOM     22  C   UNL     1      -1.161   3.004   0.656  0.00  0.00    +0.060 A 
ATOM     23  C   UNL     1       0.031   3.708   0.663  0.00  0.00    +0.138 A 
ATOM     24  C   UNL     1       1.160   3.171   0.058  0.00  0.00    +0.101 A 
ATOM     25 BR   UNL     1       2.786   4.136   0.071  0.00  0.00    -0.043 Br
BRANCH  19  27
ATOM     26  C   UNL     1       2.070   0.123  -1.760  0.00  0.00    +0.277 C 
ATOM     27  O   UNL     1       2.205   1.407  -1.147  0.00  0.00    -0.494 OA
ENDBRANCH  19  27
BRANCH  23  28
ATOM     28  O   UNL     1       0.097   4.926   1.263  0.00  0.00    -0.494 OA
ATOM     29  C   UNL     1      -1.101   5.418   1.866  0.00  0.00    +0.277 C 
ENDBRANCH  23  28
ENDBRANCH   1  21
TORSDOF 4
