REMARK  Name = ZINC20617522
REMARK  6 active torsions:
REMARK  status: ('A' for Active; 'I' for Inactive)
REMARK    1  A    between atoms: C_1  and  C_2
REMARK    2  A    between atoms: C_6  and  C_16
REMARK    3  A    between atoms: N_8  and  C_9
REMARK    4  A    between atoms: N_18  and  C_19
REMARK    5  A    between atoms: C_29  and  C_32
REMARK    6  A    between atoms: C_32  and  O_33
REMARK                            x       y       z     vdW  Elec       q    Type
REMARK                         _______ _______ _______ _____ _____    ______ ____
ROOT
ATOM      1  C   UNL     1       8.670  -1.905   0.974  0.00  0.00    +0.069 C 
ATOM      2  C   UNL     1       7.450  -2.747   0.704  0.00  0.00    +0.081 A 
ATOM      3  C   UNL     1       6.201  -2.146   0.624  0.00  0.00    +0.159 A 
ATOM      4  C   UNL     1       5.076  -2.953   0.369  0.00  0.00    +0.027 A 
ATOM      5  C   UNL     1       3.750  -2.338   0.281  0.00  0.00    +0.030 A 
ATOM      6  C   UNL     1       3.696  -0.966   0.177  0.00  0.00    +0.098 A 
ATOM      7  C   UNL     1       4.981  -0.237   0.172  0.00  0.00    +0.212 A 
ATOM      8  N   UNL     1       5.090   0.936  -0.413  0.00  0.00    -0.325 N 
ATOM      9  O   UNL     1       6.047  -0.811   0.787  0.00  0.00    -0.437 OA
ATOM     10  C   UNL     1       5.263  -4.332   0.210  0.00  0.00    +0.007 A 
ATOM     11  C   UNL     1       6.542  -4.838   0.307  0.00  0.00    +0.117 A 
ATOM     12  N   UNL     1       7.574  -4.049   0.546  0.00  0.00    -0.256 NA
ATOM     13  H   UNL     1       4.199   1.425  -0.834  0.00  0.00    +0.169 HD
ENDROOT
BRANCH   8  14
ATOM     14  C   UNL     1       6.310   1.547  -0.497  0.00  0.00    +0.042 A 
ATOM     15  C   UNL     1       6.690   2.490   0.461  0.00  0.00    +0.026 A 
ATOM     16  C   UNL     1       7.924   3.100   0.372  0.00  0.00    +0.002 A 
ATOM     17  C   UNL     1       8.781   2.787  -0.668  0.00  0.00    +0.000 A 
ATOM     18  C   UNL     1       8.409   1.857  -1.624  0.00  0.00    +0.002 A 
ATOM     19  C   UNL     1       7.180   1.236  -1.545  0.00  0.00    +0.026 A 
ENDBRANCH   8  14
BRANCH   6  20
ATOM     20  C   UNL     1       2.410  -0.253   0.081  0.00  0.00    +0.253 C 
ATOM     21  O   UNL     1       1.367  -0.878   0.088  0.00  0.00    -0.270 OA
ATOM     22  N   UNL     1       2.389   1.091  -0.014  0.00  0.00    -0.281 N 
ATOM     23  H   UNL     1       3.333   1.651  -0.094  0.00  0.00    +0.155 HD
BRANCH  22  24
ATOM     24  C   UNL     1       1.172   1.772  -0.011  0.00  0.00    +0.041 A 
ATOM     25  C   UNL     1       0.060   1.213  -0.605  0.00  0.00    +0.024 A 
ATOM     26  C   UNL     1      -1.157   1.887  -0.612  0.00  0.00    +0.002 A 
ATOM     27  C   UNL     1      -1.289   3.107  -0.023  0.00  0.00    +0.008 A 
ATOM     28  C   UNL     1      -0.180   3.712   0.593  0.00  0.00    -0.016 A 
ATOM     29  C   UNL     1       1.066   3.039   0.601  0.00  0.00    +0.003 A 
ATOM     30  C   UNL     1       2.172   3.645   1.218  0.00  0.00    +0.010 A 
ATOM     31  C   UNL     1       2.034   4.868   1.799  0.00  0.00    +0.001 A 
ATOM     32  C   UNL     1       0.809   5.532   1.791  0.00  0.00    +0.001 A 
ATOM     33  C   UNL     1      -0.285   4.975   1.202  0.00  0.00    +0.008 A 
ENDBRANCH  22  24
ENDBRANCH   6  20
BRANCH  10  34
ATOM     34  C   UNL     1       4.092  -5.241  -0.063  0.00  0.00    +0.193 C 
BRANCH  34  35
ATOM     35  O   UNL     1       4.554  -6.588  -0.183  0.00  0.00    -0.390 OA
ATOM     36  H   UNL     1       3.838  -7.399  -0.383  0.00  0.00    +0.210 HD
ENDBRANCH  34  35
ENDBRANCH  10  34
TORSDOF 5
