REMARK  Name = ZINC38696658
REMARK  7 active torsions:
REMARK  status: ('A' for Active; 'I' for Inactive)
REMARK    1  A    between atoms: C_1  and  C_2
REMARK    2  A    between atoms: C_4  and  N_17
REMARK    3  A    between atoms: N_8  and  C_11
REMARK    4  A    between atoms: N_9  and  C_10
REMARK    5  A    between atoms: C_18  and  C_28
REMARK    6  A    between atoms: C_29  and  C_30
REMARK    7  A    between atoms: C_38  and  C_40
REMARK                            x       y       z     vdW  Elec       q    Type
REMARK                         _______ _______ _______ _____ _____    ______ ____
ROOT
ATOM      1  N   UNL     1      -0.015  -1.497  -1.250  0.00  0.00    -0.279 N 
ATOM      2  C   UNL     1      -0.542  -1.664  -2.507  0.00  0.00    +0.138 A 
ATOM      3  N   UNL     1      -1.145  -2.765  -2.888  0.00  0.00    -0.229 NA
ATOM      4  C   UNL     1      -1.288  -3.815  -2.060  0.00  0.00    +0.078 A 
ATOM      5  C   UNL     1      -1.932  -4.988  -2.471  0.00  0.00    +0.028 A 
ATOM      6  C   UNL     1      -2.058  -6.034  -1.601  0.00  0.00    +0.002 A 
ATOM      7  C   UNL     1      -1.555  -5.954  -0.309  0.00  0.00    +0.001 A 
ATOM      8  C   UNL     1      -0.915  -4.812   0.125  0.00  0.00    +0.015 A 
ATOM      9  C   UNL     1      -0.776  -3.733  -0.744  0.00  0.00    +0.065 A 
ATOM     10  C   UNL     1      -0.098  -2.492  -0.336  0.00  0.00    +0.263 A 
ATOM     11  O   UNL     1       0.367  -2.364   0.781  0.00  0.00    -0.267 OA
ENDROOT
BRANCH   1  14
ATOM     12  C   UNL     1       0.931   1.213   1.163  0.00  0.00    +0.028 C 
ATOM     13  C   UNL     1       1.013  -0.209   0.606  0.00  0.00    +0.105 C 
ATOM     14  C   UNL     1       0.645  -0.237  -0.897  0.00  0.00    +0.198 C 
ATOM     15  C   UNL     1       2.005  -0.130  -1.563  0.00  0.00    +0.258 C 
ATOM     16  O   UNL     1       2.210   0.139  -2.728  0.00  0.00    -0.272 OA
ATOM     17  N   UNL     1       2.943  -0.386  -0.632  0.00  0.00    -0.200 N 
ATOM     18  N   UNL     1       2.413  -0.691   0.587  0.00  0.00    -0.217 NA
ATOM     19  C   UNL     1       2.476  -2.137   0.841  0.00  0.00    +0.128 C 
BRANCH  17  20
ATOM     20  C   UNL     1       4.318  -0.343  -0.889  0.00  0.00    +0.053 A 
ATOM     21  C   UNL     1       4.792  -0.549  -2.178  0.00  0.00    +0.025 A 
ATOM     22  C   UNL     1       6.149  -0.506  -2.428  0.00  0.00    +0.002 A 
ATOM     23  C   UNL     1       7.036  -0.259  -1.397  0.00  0.00    +0.000 A 
ATOM     24  C   UNL     1       6.568  -0.054  -0.112  0.00  0.00    +0.002 A 
ATOM     25  C   UNL     1       5.211  -0.089   0.144  0.00  0.00    +0.025 A 
ENDBRANCH  17  20
ENDBRANCH   1  14
BRANCH   2  26
ATOM     26  C   UNL     1      -0.425  -0.564  -3.465  0.00  0.00    +0.047 C 
ATOM     27  C   UNL     1      -0.987  -0.674  -4.699  0.00  0.00    +0.010 C 
BRANCH  27  28
ATOM     28  C   UNL     1      -0.962   0.416  -5.581  0.00  0.00    -0.016 C 
ATOM     29  C   UNL     1      -1.556   0.496  -6.837  0.00  0.00    +0.003 A 
ATOM     30  C   UNL     1      -2.325  -0.419  -7.590  0.00  0.00    +0.010 A 
ATOM     31  C   UNL     1      -2.785  -0.062  -8.815  0.00  0.00    +0.001 A 
ATOM     32  C   UNL     1      -2.519   1.198  -9.361  0.00  0.00    +0.002 A 
ATOM     33  C   UNL     1      -1.790   2.126  -8.698  0.00  0.00    +0.026 A 
ATOM     34  C   UNL     1      -1.273   1.827  -7.407  0.00  0.00    +0.043 A 
ATOM     35  N   UNL     1      -0.550   2.540  -6.573  0.00  0.00    -0.378 N 
ATOM     36  C   UNL     1      -0.289   1.753  -5.364  0.00  0.00    +0.107 C 
ATOM     37  C   UNL     1       1.218   1.561  -5.180  0.00  0.00    +0.035 C 
ATOM     38  H   UNL     1      -0.242   3.446  -6.731  0.00  0.00    +0.160 HD
ENDBRANCH  27  28
ENDBRANCH   2  26
TORSDOF 4
