REMARK  Name = ZINC12922667
REMARK  7 active torsions:
REMARK  status: ('A' for Active; 'I' for Inactive)
REMARK    1  A    between atoms: C_1  and  C_2
REMARK    2  A    between atoms: C_5  and  N_9
REMARK    3  A    between atoms: C_10  and  C_12
REMARK    4  A    between atoms: C_12  and  N_48
REMARK    5  A    between atoms: C_16  and  C_18
REMARK    6  A    between atoms: N_20  and  C_21
REMARK    7  A    between atoms: C_21  and  C_22
REMARK                            x       y       z     vdW  Elec       q    Type
REMARK                         _______ _______ _______ _____ _____    ______ ____
ROOT
ATOM      1  C   UNL     1      -0.828  -2.235  -3.905  0.00  0.00    -0.077 C 
ATOM      2  C   UNL     1       0.496  -3.018  -4.030  0.00  0.00    -0.020 C 
ATOM      3  C   UNL     1       1.391  -2.476  -2.897  0.00  0.00    -0.008 C 
ATOM      4  C   UNL     1       0.532  -1.411  -2.182  0.00  0.00    +0.020 C 
ATOM      5  N   UNL     1      -0.439  -1.012  -3.206  0.00  0.00    +0.393 N 
ATOM      6  H   UNL     1      -0.006  -0.354  -3.865  0.00  0.00    -0.080 HD
ENDROOT
BRANCH   4   7
ATOM      7  C   UNL     1       1.389  -0.248  -1.750  0.00  0.00    +0.200 C 
ATOM      8  O   UNL     1       1.190   0.855  -2.212  0.00  0.00    -0.278 OA
ATOM      9  N   UNL     1       2.375  -0.435  -0.851  0.00  0.00    -0.310 N 
ATOM     10  H   UNL     1       2.534  -1.318  -0.481  0.00  0.00    +0.149 HD
BRANCH   9  11
ATOM     11  C   UNL     1       3.207   0.695  -0.431  0.00  0.00    +0.178 C 
BRANCH  11  12
ATOM     12  C   UNL     1       4.227   0.222   0.573  0.00  0.00    +0.122 A 
ATOM     13  C   UNL     1       5.456  -0.243   0.286  0.00  0.00    +0.046 A 
ATOM     14  C   UNL     1       6.069  -0.568   1.518  0.00  0.00    +0.041 A 
ATOM     15  C   UNL     1       5.174  -0.289   2.484  0.00  0.00    +0.195 A 
ATOM     16  O   UNL     1       4.061   0.189   1.905  0.00  0.00    -0.466 OA
ENDBRANCH  11  12
ENDBRANCH   9  11
ENDBRANCH   4   7
BRANCH   5  17
ATOM     17  C   UNL     1      -1.629  -0.360  -2.573  0.00  0.00    +0.020 C 
BRANCH  17  19
ATOM     18  N   UNL     1      -3.626   0.915  -3.283  0.00  0.00    -0.285 N 
ATOM     19  C   UNL     1      -2.488   0.282  -3.631  0.00  0.00    +0.201 C 
ATOM     20  O   UNL     1      -2.156   0.229  -4.796  0.00  0.00    -0.278 OA
ATOM     21  H   UNL     1      -3.930   0.895  -2.362  0.00  0.00    +0.155 HD
BRANCH  18  26
ATOM     22  C   UNL     1      -6.640   3.696  -7.205  0.00  0.00    +0.044 C 
ATOM     23  C   UNL     1      -5.840   2.957  -6.164  0.00  0.00    -0.048 A 
ATOM     24  C   UNL     1      -6.114   1.628  -5.898  0.00  0.00    +0.020 A 
ATOM     25  C   UNL     1      -5.382   0.948  -4.943  0.00  0.00    +0.040 A 
ATOM     26  C   UNL     1      -4.370   1.601  -4.251  0.00  0.00    +0.062 A 
ATOM     27  C   UNL     1      -4.101   2.938  -4.517  0.00  0.00    +0.040 A 
ATOM     28  C   UNL     1      -4.833   3.610  -5.477  0.00  0.00    +0.020 A 
ATOM     29 BR   UNL     1      -2.730   3.834  -3.571  0.00  0.00    -0.048 Br
ATOM     30 BR   UNL     1      -5.757  -0.870  -4.580  0.00  0.00    -0.048 Br
ENDBRANCH  18  26
ENDBRANCH  17  19
ENDBRANCH   5  17
TORSDOF 6
