REMARK  Name = ZINC35777159
REMARK  16 active torsions:
REMARK  status: ('A' for Active; 'I' for Inactive)
REMARK    1  A    between atoms: C_1  and  C_2
REMARK    2  A    between atoms: C_3  and  C_21
REMARK    3  A    between atoms: C_4  and  O_14
REMARK    4  A    between atoms: N_5  and  C_7
REMARK    5  A    between atoms: O_14  and  C_15
REMARK    6  A    between atoms: C_21  and  N_22
REMARK    7  A    between atoms: N_22  and  C_23
REMARK    8  A    between atoms: N_22  and  C_27
REMARK    9  A    between atoms: C_23  and  C_24
REMARK   10  A    between atoms: C_27  and  C_28
REMARK   11  A    between atoms: C_28  and  C_30
REMARK   12  A    between atoms: C_28  and  O_35
REMARK   13  A    between atoms: C_30  and  O_31
REMARK   14  A    between atoms: O_31  and  C_32
REMARK   15  A    between atoms: C_32  and  C_33
REMARK   16  A    between atoms: C_32  and  C_34
REMARK                            x       y       z     vdW  Elec       q    Type
REMARK                         _______ _______ _______ _____ _____    ______ ____
ROOT
ATOM      1  C   UNL     1       1.030   1.428   0.136  0.00  0.00    +0.068 C 
ATOM      2  C   UNL     1       0.707  -0.041   0.226  0.00  0.00    +0.065 A 
ATOM      3  C   UNL     1       0.226  -0.838  -0.817  0.00  0.00    +0.021 A 
ATOM      4  C   UNL     1       0.061  -2.099  -0.337  0.00  0.00    +0.225 A 
ATOM      5  N   UNL     1       0.430  -2.090   0.972  0.00  0.00    -0.200 N 
ATOM      6  N   UNL     1       0.835  -0.788   1.293  0.00  0.00    -0.168 NA
ENDROOT
BRANCH   5   7
ATOM      7  C   UNL     1       0.413  -3.188   1.842  0.00  0.00    +0.070 A 
ATOM      8  C   UNL     1      -0.665  -4.064   1.837  0.00  0.00    +0.028 A 
ATOM      9  C   UNL     1      -0.679  -5.145   2.696  0.00  0.00    +0.003 A 
ATOM     10  C   UNL     1       0.378  -5.357   3.561  0.00  0.00    +0.020 A 
ATOM     11  C   UNL     1       1.454  -4.487   3.569  0.00  0.00    +0.043 A 
ATOM     12  C   UNL     1       1.476  -3.406   2.707  0.00  0.00    +0.048 A 
ATOM     13 CL   UNL     1       2.780  -4.757   4.657  0.00  0.00    -0.083 Cl
ENDBRANCH   5   7
BRANCH   4  14
ATOM     14  O   UNL     1      -0.390  -3.172  -1.037  0.00  0.00    -0.438 OA
BRANCH  14  15
ATOM     15  C   UNL     1      -1.732  -3.366  -1.113  0.00  0.00    +0.130 A 
ATOM     16  C   UNL     1      -2.602  -2.426  -0.578  0.00  0.00    +0.046 A 
ATOM     17  C   UNL     1      -3.966  -2.625  -0.657  0.00  0.00    +0.004 A 
ATOM     18  C   UNL     1      -4.466  -3.760  -1.269  0.00  0.00    +0.000 A 
ATOM     19  C   UNL     1      -3.602  -4.698  -1.803  0.00  0.00    +0.004 A 
ATOM     20  C   UNL     1      -2.237  -4.501  -1.731  0.00  0.00    +0.046 A 
ENDBRANCH  14  15
ENDBRANCH   4  14
BRANCH   3  21
ATOM     21  C   UNL     1      -0.061  -0.380  -2.224  0.00  0.00    -0.036 C 
BRANCH  21  22
ATOM     22  N   UNL     1       1.179  -0.412  -3.012  0.00  0.00    +0.384 N 
ATOM     23  H   UNL     1       1.890   0.129  -2.542  0.00  0.00    -0.081 HD
BRANCH  22  24
ATOM     24  C   UNL     1       0.929   0.157  -4.342  0.00  0.00    -0.075 C 
BRANCH  24  25
ATOM     25  C   UNL     1       0.587   1.642  -4.205  0.00  0.00    -0.028 C 
ATOM     26  C   UNL     1      -0.802   2.092  -4.662  0.00  0.00    +0.002 C 
ATOM     27  C   UNL     1       0.430   2.453  -5.494  0.00  0.00    +0.002 C 
ENDBRANCH  24  25
ENDBRANCH  22  24
BRANCH  22  28
ATOM     28  C   UNL     1       1.634  -1.802  -3.151  0.00  0.00    -0.044 C 
BRANCH  28  29
ATOM     29  C   UNL     1       2.988  -1.826  -3.863  0.00  0.00    +0.124 C 
BRANCH  29  30
ATOM     30  O   UNL     1       3.969  -1.188  -3.043  0.00  0.00    -0.391 OA
ATOM     31  H   UNL     1       4.092  -1.607  -2.180  0.00  0.00    +0.210 HD
ENDBRANCH  29  30
BRANCH  29  32
ATOM     32  C   UNL     1       3.403  -3.276  -4.120  0.00  0.00    +0.189 C 
BRANCH  32  33
ATOM     33  O   UNL     1       4.609  -3.298  -4.886  0.00  0.00    -0.375 OA
BRANCH  33  34
ATOM     34  C   UNL     1       5.086  -4.612  -5.183  0.00  0.00    +0.112 C 
ATOM     35  C   UNL     1       4.482  -5.087  -6.506  0.00  0.00    +0.037 C 
ATOM     36  C   UNL     1       6.611  -4.587  -5.298  0.00  0.00    +0.037 C 
ENDBRANCH  33  34
ENDBRANCH  32  33
ENDBRANCH  29  32
ENDBRANCH  28  29
ENDBRANCH  22  28
ENDBRANCH  21  22
ENDBRANCH   3  21
TORSDOF 13
