REMARK  Name = ZINC43854591
REMARK  6 active torsions:
REMARK  status: ('A' for Active; 'I' for Inactive)
REMARK    1  A    between atoms: C_1  and  C_2
REMARK    2  A    between atoms: C_4  and  C_7
REMARK    3  A    between atoms: C_10  and  N_13
REMARK    4  A    between atoms: N_16  and  C_17
REMARK    5  A    between atoms: C_17  and  C_19
REMARK    6  A    between atoms: C_17  and  C_20
REMARK                            x       y       z     vdW  Elec       q    Type
REMARK                         _______ _______ _______ _____ _____    ______ ____
ROOT
ATOM      1  N   UNL     1      -5.204  -5.732  -0.005  0.00  0.00    -0.269 N 
ATOM      2  C   UNL     1      -6.462  -5.262   0.099  0.00  0.00    +0.304 C 
ATOM      3  O   UNL     1      -6.665  -4.063   0.102  0.00  0.00    -0.252 OA
ATOM      4  N   UNL     1      -7.496  -6.121   0.200  0.00  0.00    -0.293 N 
ATOM      5  H   UNL     1      -5.046  -6.687  -0.074  0.00  0.00    +0.156 HD
ATOM      6  H   UNL     1      -7.334  -7.077   0.198  0.00  0.00    +0.151 HD
ENDROOT
BRANCH   1  10
ATOM      7  C   UNL     1      -1.984  -3.082  -0.030  0.00  0.00    +0.001 A 
ATOM      8  C   UNL     1      -1.857  -4.329   0.581  0.00  0.00    +0.012 A 
ATOM      9  C   UNL     1      -2.923  -5.203   0.588  0.00  0.00    +0.024 A 
ATOM     10  C   UNL     1      -4.123  -4.843  -0.013  0.00  0.00    +0.035 A 
ATOM     11  C   UNL     1      -4.251  -3.601  -0.623  0.00  0.00    +0.024 A 
ATOM     12  C   UNL     1      -3.190  -2.720  -0.628  0.00  0.00    +0.012 A 
BRANCH   7  16
ATOM     13  C   UNL     1       0.167   1.264  -1.201  0.00  0.00    +0.073 C 
ATOM     14  C   UNL     1       0.092  -0.119  -0.609  0.00  0.00    +0.076 A 
ATOM     15  N   UNL     1      -0.923  -0.944  -0.605  0.00  0.00    -0.244 NA
ATOM     16  C   UNL     1      -0.838  -2.139  -0.039  0.00  0.00    +0.078 A 
ATOM     17  C   UNL     1       0.362  -2.458   0.537  0.00  0.00    +0.075 A 
ATOM     18  S   UNL     1       1.295  -0.974   0.200  0.00  0.00    -0.080 S 
ENDBRANCH   7  16
ENDBRANCH   1  10
BRANCH   4  19
ATOM     19  C   UNL     1      -8.864  -5.610   0.314  0.00  0.00    +0.102 C 
ATOM     20  C   UNL     1      -9.172  -5.296   1.779  0.00  0.00    +0.033 C 
BRANCH  19  21
ATOM     21  C   UNL     1      -9.832  -6.649  -0.191  0.00  0.00    -0.024 A 
ATOM     22  C   UNL     1      -9.629  -7.984   0.107  0.00  0.00    +0.009 A 
ATOM     23  C   UNL     1     -10.514  -8.941  -0.353  0.00  0.00    +0.050 A 
ATOM     24  C   UNL     1     -11.607  -8.564  -1.116  0.00  0.00    +0.166 A 
ATOM     25  C   UNL     1     -11.812  -7.220  -1.417  0.00  0.00    +0.167 A 
ATOM     26  C   UNL     1     -10.924  -6.266  -0.948  0.00  0.00    +0.055 A 
ATOM     27  O   UNL     1     -12.943  -7.109  -2.173  0.00  0.00    -0.453 OA
ATOM     28  C   UNL     1     -13.202  -8.434  -2.673  0.00  0.00    +0.466 C 
ATOM     29  O   UNL     1     -12.611  -9.296  -1.683  0.00  0.00    -0.453 OA
ENDBRANCH  19  21
ENDBRANCH   4  19
TORSDOF 4
