REMARK  Name = ZINC04849550
REMARK  7 active torsions:
REMARK  status: ('A' for Active; 'I' for Inactive)
REMARK    1  A    between atoms: C_1  and  C_2
REMARK    2  A    between atoms: C_2  and  C_3
REMARK    3  A    between atoms: C_12  and  S_13
REMARK    4  A    between atoms: S_13  and  C_14
REMARK    5  A    between atoms: C_14  and  C_15
REMARK    6  A    between atoms: N_17  and  N_18
REMARK    7  A    between atoms: C_19  and  C_21
REMARK                            x       y       z     vdW  Elec       q    Type
REMARK                         _______ _______ _______ _____ _____    ______ ____
ROOT
ATOM      1  S   UNL     1       4.985  -4.460   3.461  0.00  0.00    -0.096 S 
ENDROOT
BRANCH   1  11
ATOM      2  C   UNL     1       5.381  -1.836   2.795  0.00  0.00    -0.015 A 
ATOM      3  C   UNL     1       5.011  -0.637   2.263  0.00  0.00    +0.016 A 
ATOM      4  C   UNL     1       3.725  -0.525   1.697  0.00  0.00    +0.004 A 
ATOM      5  C   UNL     1       3.281   0.682   1.135  0.00  0.00    +0.059 A 
ATOM      6  C   UNL     1       2.030   0.760   0.595  0.00  0.00    +0.167 A 
ATOM      7  C   UNL     1       1.179  -0.358   0.597  0.00  0.00    +0.168 A 
ATOM      8  C   UNL     1       1.587  -1.544   1.138  0.00  0.00    +0.078 A 
ATOM      9  C   UNL     1       2.869  -1.654   1.701  0.00  0.00    +0.076 A 
ATOM     10  N   UNL     1       3.287  -2.806   2.238  0.00  0.00    -0.240 NA
ATOM     11  C   UNL     1       4.489  -2.917   2.768  0.00  0.00    +0.101 A 
ATOM     12  O   UNL     1       0.002  -0.004   0.002  0.00  0.00    -0.453 OA
ATOM     13  C   UNL     1      -0.017   1.435   0.010  0.00  0.00    +0.466 C 
ATOM     14  O   UNL     1       1.375   1.800  -0.001  0.00  0.00    -0.453 OA
BRANCH   2  16
ATOM     15  C   UNL     1       7.709  -2.578   2.371  0.00  0.00    +0.009 C 
ATOM     16  C   UNL     1       6.747  -2.000   3.410  0.00  0.00    +0.034 C 
ENDBRANCH   2  16
ENDBRANCH   1  11
BRANCH   1  17
ATOM     17  C   UNL     1       3.492  -5.436   3.154  0.00  0.00    +0.173 C 
BRANCH  17  18
ATOM     18  C   UNL     1       3.691  -6.835   3.678  0.00  0.00    +0.239 C 
ATOM     19  O   UNL     1       4.738  -7.141   4.207  0.00  0.00    -0.273 OA
ATOM     20  N   UNL     1       2.704  -7.746   3.560  0.00  0.00    -0.234 N 
ATOM     21  H   UNL     1       1.867  -7.501   3.137  0.00  0.00    +0.173 HD
BRANCH  20  22
ATOM     22  N   UNL     1       2.889  -9.046   4.047  0.00  0.00    -0.234 N 
ATOM     23  C   UNL     1       1.902  -9.957   3.928  0.00  0.00    +0.232 C 
ATOM     24  O   UNL     1       0.855  -9.650   3.400  0.00  0.00    -0.274 OA
ATOM     25  H   UNL     1       3.727  -9.291   4.470  0.00  0.00    +0.173 HD
BRANCH  23  26
ATOM     26  C   UNL     1       2.101 -11.355   4.453  0.00  0.00    +0.076 C 
ATOM     27  C   UNL     1       3.290 -12.003   3.740  0.00  0.00    +0.013 C 
ATOM     28  C   UNL     1       3.491 -13.424   4.272  0.00  0.00    +0.001 C 
ATOM     29  C   UNL     1       2.229 -14.249   4.013  0.00  0.00    +0.000 C 
ATOM     30  C   UNL     1       1.041 -13.601   4.726  0.00  0.00    +0.001 C 
ATOM     31  C   UNL     1       0.839 -12.181   4.194  0.00  0.00    +0.013 C 
ENDBRANCH  23  26
ENDBRANCH  20  22
ENDBRANCH  17  18
ENDBRANCH   1  17
TORSDOF 6
