REMARK  Name = ZINC19354148
REMARK  7 active torsions:
REMARK  status: ('A' for Active; 'I' for Inactive)
REMARK    1  A    between atoms: C_1  and  C_2
REMARK    2  A    between atoms: C_2  and  O_3
REMARK    3  A    between atoms: O_3  and  C_4
REMARK    4  A    between atoms: C_6  and  C_17
REMARK    5  A    between atoms: C_9  and  O_10
REMARK    6  A    between atoms: O_10  and  C_11
REMARK    7  A    between atoms: C_11  and  C_12
REMARK                            x       y       z     vdW  Elec       q    Type
REMARK                         _______ _______ _______ _____ _____    ______ ____
ROOT
ATOM      1  C   UNL     1      -0.018   1.463   0.010  0.00  0.00    +0.218 C 
ATOM      2  N   UNL     1       1.389   1.904  -0.001  0.00  0.00    -0.337 N 
ATOM      3  C   UNL     1       2.333   1.197   0.694  0.00  0.00    +0.159 C 
ATOM      4  N   UNL     1       2.216  -0.105   0.888  0.00  0.00    -0.259 N 
ATOM      5  C   UNL     1       1.095  -0.723   0.447  0.00  0.00    +0.205 A 
ATOM      6  N   UNL     1       0.002  -0.004   0.002  0.00  0.00    -0.286 N 
ATOM      7  C   UNL     1      -0.957  -0.905  -0.398  0.00  0.00    +0.076 A 
ATOM      8  C   UNL     1      -2.236  -0.787  -0.926  0.00  0.00    +0.077 A 
ATOM      9  C   UNL     1      -2.963  -1.923  -1.227  0.00  0.00    +0.164 A 
ATOM     10  C   UNL     1      -2.423  -3.187  -1.006  0.00  0.00    +0.164 A 
ATOM     11  C   UNL     1      -1.154  -3.321  -0.482  0.00  0.00    +0.079 A 
ATOM     12  C   UNL     1      -0.407  -2.180  -0.171  0.00  0.00    +0.095 A 
ATOM     13  N   UNL     1       0.840  -2.002   0.345  0.00  0.00    -0.214 NA
ATOM     14  O   UNL     1      -3.159  -4.296  -1.309  0.00  0.00    -0.488 OA
ATOM     15  C   UNL     1      -3.399  -4.527  -2.699  0.00  0.00    +0.232 C 
ATOM     16  C   UNL     1      -4.607  -3.735  -3.175  0.00  0.00    +0.082 C 
ATOM     17  C   UNL     1      -4.381  -2.233  -3.100  0.00  0.00    +0.232 C 
ATOM     18  O   UNL     1      -4.223  -1.811  -1.744  0.00  0.00    -0.488 OA
ATOM     19  N   UNL     1       3.424   1.853   1.197  0.00  0.00    -0.332 N 
ATOM     20  H   UNL     1       4.191   1.296   1.757  0.00  0.00    +0.145 HD
ATOM     21  H   UNL     1       3.018  -0.659   1.398  0.00  0.00    +0.158 HD
ATOM     22  H   UNL     1       3.534   2.936   1.042  0.00  0.00    +0.145 HD
ATOM     23  H   UNL     1       1.680   2.802  -0.567  0.00  0.00    +0.164 HD
ENDROOT
BRANCH   1  26
ATOM     24  C   UNL     1      -2.657   2.837   2.338  0.00  0.00    +0.162 A 
ATOM     25  C   UNL     1      -2.021   2.382   1.194  0.00  0.00    +0.057 A 
ATOM     26  C   UNL     1      -0.706   1.963   1.254  0.00  0.00    -0.001 A 
ATOM     27  C   UNL     1      -0.017   2.006   2.453  0.00  0.00    +0.011 A 
ATOM     28  C   UNL     1      -0.643   2.464   3.597  0.00  0.00    +0.050 A 
ATOM     29  C   UNL     1      -1.964   2.881   3.544  0.00  0.00    +0.162 A 
BRANCH  24  30
ATOM     30  O   UNL     1      -3.953   3.245   2.282  0.00  0.00    -0.489 OA
BRANCH  30  32
ATOM     31  C   UNL     1      -6.042   3.670   1.143  0.00  0.00    +0.048 C 
ATOM     32  C   UNL     1      -4.601   3.172   1.010  0.00  0.00    +0.226 C 
ENDBRANCH  30  32
ENDBRANCH  24  30
BRANCH  29  33
ATOM     33  O   UNL     1      -2.581   3.333   4.669  0.00  0.00    -0.483 OA
BRANCH  33  34
ATOM     34  C   UNL     1      -1.808   3.350   5.870  0.00  0.00    +0.271 C 
BRANCH  34  35
ATOM     35  C   UNL     1      -2.652   3.877   7.003  0.00  0.00    +0.027 A 
ATOM     36  C   UNL     1      -3.448   3.196   7.863  0.00  0.00    +0.014 A 
ATOM     37  C   UNL     1      -4.136   3.896   8.836  0.00  0.00    +0.008 A 
ATOM     38  C   UNL     1      -3.996   5.242   8.901  0.00  0.00    +0.045 A 
ATOM     39  S   UNL     1      -2.856   5.560   7.564  0.00  0.00    -0.098 S 
ENDBRANCH  34  35
ENDBRANCH  33  34
ENDBRANCH  29  33
ENDBRANCH   1  26
TORSDOF 6
