REMARK  Name = ZINC66924209
REMARK  8 active torsions:
REMARK  status: ('A' for Active; 'I' for Inactive)
REMARK    1  A    between atoms: C_1  and  N_2
REMARK    2  A    between atoms: N_2  and  C_3
REMARK    3  A    between atoms: N_2  and  C_24
REMARK    4  A    between atoms: C_3  and  C_4
REMARK    5  A    between atoms: C_4  and  N_5
REMARK    6  A    between atoms: C_6  and  C_8
REMARK    7  A    between atoms: N_10  and  C_17
REMARK    8  A    between atoms: C_11  and  C_14
REMARK                            x       y       z     vdW  Elec       q    Type
REMARK                         _______ _______ _______ _____ _____    ______ ____
ROOT
ATOM      1  C   UNL     1       4.911  -0.778   3.643  0.00  0.00    +0.123 C 
ATOM      2  N   UNL     1       4.379  -1.466   4.603  0.00  0.00    -0.178 NA
ATOM      3  N   UNL     1       5.271  -1.805   5.618  0.00  0.00    -0.212 N 
ATOM      4  C   UNL     1       6.598  -1.263   5.288  0.00  0.00    +0.189 C 
ATOM      5  C   UNL     1       6.378  -0.559   3.935  0.00  0.00    +0.096 C 
ENDROOT
BRANCH   3   6
ATOM      6  C   UNL     1       4.955  -2.540   6.763  0.00  0.00    +0.053 A 
ATOM      7  C   UNL     1       5.936  -2.809   7.710  0.00  0.00    +0.028 A 
ATOM      8  C   UNL     1       5.622  -3.535   8.841  0.00  0.00    +0.040 A 
ATOM      9  C   UNL     1       4.330  -3.997   9.033  0.00  0.00    +0.124 A 
ATOM     10  C   UNL     1       3.351  -3.730   8.091  0.00  0.00    +0.040 A 
ATOM     11  C   UNL     1       3.659  -2.999   6.961  0.00  0.00    +0.028 A 
ATOM     12  F   UNL     1       4.026  -4.708  10.140  0.00  0.00    -0.205 F 
ENDBRANCH   3   6
BRANCH   4  13
ATOM     13  C   UNL     1       7.605  -2.376   5.148  0.00  0.00    +0.233 C 
ATOM     14  O   UNL     1       7.229  -3.515   4.969  0.00  0.00    -0.274 OA
ATOM     15  N   UNL     1       8.923  -2.105   5.220  0.00  0.00    -0.328 N 
ATOM     16  H   UNL     1       9.224  -1.194   5.363  0.00  0.00    +0.145 HD
ATOM     17  H   UNL     1       9.571  -2.821   5.130  0.00  0.00    +0.145 HD
ENDBRANCH   4  13
BRANCH   1  19
ATOM     18  N   UNL     1       2.889  -0.551   2.306  0.00  0.00    -0.312 N 
ATOM     19  C   UNL     1       4.203  -0.293   2.458  0.00  0.00    +0.260 C 
ATOM     20  O   UNL     1       4.801   0.342   1.610  0.00  0.00    -0.269 OA
ATOM     21  H   UNL     1       2.412  -1.058   2.982  0.00  0.00    +0.149 HD
BRANCH  18  22
ATOM     22  C   UNL     1       2.180  -0.066   1.119  0.00  0.00    +0.086 C 
BRANCH  22  23
ATOM     23  C   UNL     1       0.713  -0.491   1.192  0.00  0.00    -0.060 C 
BRANCH  23  25
ATOM     24  C   UNL     1      -0.018   1.465   0.010  0.00  0.00    -0.096 C 
ATOM     25  N   UNL     1       0.002  -0.004   0.002  0.00  0.00    +0.381 N 
ATOM     26  H   UNL     1       0.474  -0.330  -0.828  0.00  0.00    -0.082 HD
BRANCH  25  27
ATOM     27  C   UNL     1      -1.376  -0.512   0.012  0.00  0.00    -0.069 C 
ATOM     28  C   UNL     1      -1.756  -1.546  -1.050  0.00  0.00    -0.017 C 
ATOM     29  C   UNL     1      -2.285  -0.114  -1.152  0.00  0.00    -0.017 C 
ENDBRANCH  25  27
ENDBRANCH  23  25
ENDBRANCH  22  23
ENDBRANCH  18  22
ENDBRANCH   1  19
TORSDOF 7
