REMARK  Name = ZINC30882884
REMARK  11 active torsions:
REMARK  status: ('A' for Active; 'I' for Inactive)
REMARK    1  A    between atoms: C_1  and  C_2
REMARK    2  A    between atoms: C_4  and  C_26
REMARK    3  A    between atoms: C_6  and  C_23
REMARK    4  A    between atoms: C_9  and  C_11
REMARK    5  A    between atoms: C_11  and  C_12
REMARK    6  A    between atoms: C_15  and  C_17
REMARK    7  A    between atoms: C_23  and  C_24
REMARK    8  A    between atoms: C_23  and  C_25
REMARK    9  A    between atoms: C_26  and  N_27
REMARK   10  A    between atoms: C_30  and  C_33
REMARK   11  A    between atoms: C_33  and  O_34
REMARK                            x       y       z     vdW  Elec       q    Type
REMARK                         _______ _______ _______ _____ _____    ______ ____
ROOT
ATOM      1  C   UNL     1      -3.681  -1.354  -1.064  0.00  0.00    +0.039 C 
ATOM      2  C   UNL     1      -4.152  -2.765  -1.305  0.00  0.00    -0.073 C 
ATOM      3  C   UNL     1      -3.274  -3.643  -1.673  0.00  0.00    -0.026 C 
ATOM      4  C   UNL     1      -3.592  -5.081  -1.960  0.00  0.00    -0.002 C 
ATOM      5  C   UNL     1      -4.952  -5.449  -1.361  0.00  0.00    -0.003 C 
ATOM      6  C   UNL     1      -5.973  -4.386  -1.786  0.00  0.00    +0.012 C 
ATOM      7  C   UNL     1      -5.608  -3.066  -1.104  0.00  0.00    +0.024 C 
ENDROOT
BRANCH   5   8
ATOM      8  C   UNL     1      -5.389  -6.820  -1.883  0.00  0.00    -0.014 C 
ATOM      9  C   UNL     1      -6.692  -7.235  -1.196  0.00  0.00    +0.007 C 
ATOM     10  C   UNL     1      -5.612  -6.742  -3.395  0.00  0.00    +0.007 C 
ENDBRANCH   5   8
BRANCH   7  11
ATOM     11  C   UNL     1      -5.902  -3.170   0.394  0.00  0.00    +0.105 C 
BRANCH  11  12
ATOM     12  C   UNL     1      -5.661  -1.834   1.047  0.00  0.00    +0.218 A 
ATOM     13  N   UNL     1      -6.539  -0.882   1.202  0.00  0.00    -0.112 NA
ATOM     14  N   UNL     1      -5.990   0.116   1.800  0.00  0.00    -0.107 NA
ATOM     15  C   UNL     1      -4.732  -0.166   2.048  0.00  0.00    +0.250 A 
ATOM     16  O   UNL     1      -4.499  -1.405   1.571  0.00  0.00    -0.420 OA
BRANCH  15  17
ATOM     17  C   UNL     1      -3.752   0.714   2.720  0.00  0.00    +0.057 A 
ATOM     18  C   UNL     1      -4.128   1.986   3.168  0.00  0.00    +0.016 A 
ATOM     19  C   UNL     1      -3.172   2.772   3.786  0.00  0.00    +0.020 A 
ATOM     20  C   UNL     1      -1.889   2.280   3.943  0.00  0.00    +0.111 A 
ATOM     21  N   UNL     1      -1.564   1.075   3.515  0.00  0.00    -0.263 NA
ATOM     22  C   UNL     1      -2.439   0.289   2.921  0.00  0.00    +0.124 A 
ENDBRANCH  15  17
ENDBRANCH  11  12
ENDBRANCH   7  11
BRANCH   4  23
ATOM     23  C   UNL     1      -2.510  -5.970  -1.344  0.00  0.00    -0.071 C 
BRANCH  23  24
ATOM     24  N   UNL     1      -1.438  -6.187  -2.325  0.00  0.00    +0.380 N 
ATOM     25  C   UNL     1      -1.120  -4.945  -3.041  0.00  0.00    -0.078 C 
ATOM     26  C   UNL     1      -0.108  -5.239  -4.151  0.00  0.00    -0.013 C 
ATOM     27  C   UNL     1       1.161  -5.834  -3.533  0.00  0.00    +0.011 C 
ATOM     28  C   UNL     1       0.794  -7.100  -2.753  0.00  0.00    -0.013 C 
ATOM     29  C   UNL     1      -0.244  -6.752  -1.684  0.00  0.00    -0.078 C 
ATOM     30  H   UNL     1      -1.799  -6.918  -3.065  0.00  0.00    -0.082 HD
BRANCH  27  31
ATOM     31  C   UNL     1       2.153  -6.187  -4.643  0.00  0.00    +0.159 C 
BRANCH  31  32
ATOM     32  O   UNL     1       2.584  -4.990  -5.295  0.00  0.00    -0.395 OA
ATOM     33  H   UNL     1       3.303  -5.045  -6.125  0.00  0.00    +0.209 HD
ENDBRANCH  31  32
ENDBRANCH  27  31
ENDBRANCH  23  24
ENDBRANCH   4  23
TORSDOF 8
