REMARK  Name = ZINC07830177
REMARK  7 active torsions:
REMARK  status: ('A' for Active; 'I' for Inactive)
REMARK    1  A    between atoms: C_1  and  C_2
REMARK    2  A    between atoms: C_5  and  C_8
REMARK    3  A    between atoms: C_11  and  S_14
REMARK    4  A    between atoms: N_12  and  N_13
REMARK    5  A    between atoms: S_14  and  C_15
REMARK    6  A    between atoms: C_15  and  C_16
REMARK    7  A    between atoms: C_18  and  C_21
REMARK                            x       y       z     vdW  Elec       q    Type
REMARK                         _______ _______ _______ _____ _____    ______ ____
ROOT
ATOM      1  C   UNL     1      -0.018   1.474   0.010  0.00  0.00    +0.182 A 
ATOM      2  N   UNL     1       1.027   2.269   0.004  0.00  0.00    -0.127 NA
ATOM      3  N   UNL     1       0.645   3.496   0.015  0.00  0.00    -0.121 NA
ATOM      4  C   UNL     1      -0.668   3.560   0.028  0.00  0.00    +0.209 A 
ATOM      5  N   UNL     1      -1.135   2.277   0.019  0.00  0.00    -0.224 N 
ENDROOT
BRANCH   1  10
ATOM      6  C   UNL     1       0.060  -4.280  -0.022  0.00  0.00    +0.044 C 
ATOM      7  C   UNL     1       0.040  -2.773  -0.013  0.00  0.00    -0.050 A 
ATOM      8  C   UNL     1       1.192  -2.070   0.291  0.00  0.00    +0.004 A 
ATOM      9  C   UNL     1       1.180  -0.691   0.300  0.00  0.00    +0.012 A 
ATOM     10  C   UNL     1       0.002  -0.004   0.002  0.00  0.00    +0.021 A 
ATOM     11  C   UNL     1      -1.158  -0.719  -0.298  0.00  0.00    +0.012 A 
ATOM     12  C   UNL     1      -1.132  -2.098  -0.309  0.00  0.00    +0.004 A 
ENDBRANCH   1  10
BRANCH   5  13
ATOM     13  N   UNL     1      -2.441   1.874   0.022  0.00  0.00    -0.295 N 
ATOM     14  H   UNL     1      -2.783   1.762   0.964  0.00  0.00    +0.163 HD
ATOM     15  H   UNL     1      -3.019   2.517  -0.498  0.00  0.00    +0.163 HD
ENDBRANCH   5  13
BRANCH   4  16
ATOM     16  S   UNL     1      -1.642   5.027   0.045  0.00  0.00    -0.078 S 
BRANCH  16  17
ATOM     17  C   UNL     1      -0.331   6.276   0.040  0.00  0.00    +0.136 C 
BRANCH  17  18
ATOM     18  C   UNL     1      -0.947   7.651   0.053  0.00  0.00    +0.094 A 
ATOM     19  C   UNL     1      -1.282   8.418   1.193  0.00  0.00    +0.071 A 
ATOM     20  C   UNL     1      -1.797   9.560   0.679  0.00  0.00    +0.134 A 
ATOM     21  O   UNL     1      -1.749   9.432  -0.655  0.00  0.00    -0.360 OA
ATOM     22  N   UNL     1      -1.270   8.371  -0.982  0.00  0.00    -0.082 NA
ATOM     23  C   UNL     1      -2.321  10.742   1.453  0.00  0.00    +0.089 C 
ENDBRANCH  17  18
ENDBRANCH  16  17
ENDBRANCH   4  16
TORSDOF 5
