REMARK  Name = ZINC14972186
REMARK  13 active torsions:
REMARK  status: ('A' for Active; 'I' for Inactive)
REMARK    1  A    between atoms: C_1  and  C_2
REMARK    2  A    between atoms: C_2  and  N_3
REMARK    3  A    between atoms: N_3  and  C_4
REMARK    4  A    between atoms: C_4  and  C_5
REMARK    5  A    between atoms: C_6  and  C_8
REMARK    6  A    between atoms: N_13  and  C_15
REMARK    7  A    between atoms: C_15  and  C_16
REMARK    8  A    between atoms: N_23  and  C_27
REMARK    9  A    between atoms: C_27  and  C_28
REMARK   10  A    between atoms: C_30  and  O_36
REMARK   11  A    between atoms: C_32  and  O_34
REMARK   12  A    between atoms: O_34  and  C_35
REMARK   13  A    between atoms: O_36  and  C_37
REMARK                            x       y       z     vdW  Elec       q    Type
REMARK                         _______ _______ _______ _____ _____    ______ ____
ROOT
ATOM      1  C   UNL     1      -5.658  -0.793  -4.782  0.00  0.00    -0.063 A 
ATOM      2  C   UNL     1      -6.529  -1.827  -4.493  0.00  0.00    +0.005 A 
ATOM      3  C   UNL     1      -7.892  -1.600  -4.462  0.00  0.00    +0.046 A 
ATOM      4  C   UNL     1      -8.382  -0.327  -4.718  0.00  0.00    +0.125 A 
ATOM      5  C   UNL     1      -7.507   0.706  -4.991  0.00  0.00    +0.008 A 
ATOM      6  C   UNL     1      -6.147   0.478  -5.029  0.00  0.00    +0.010 A 
ATOM      7  C   UNL     1      -8.052   2.104  -5.213  0.00  0.00    +0.123 C 
ATOM      8  N   UNL     1      -8.801   2.123  -6.475  0.00  0.00    -0.291 NA
ATOM      9  C   UNL     1     -10.179   1.668  -6.315  0.00  0.00    +0.126 C 
ATOM     10  C   UNL     1     -10.298   0.193  -5.997  0.00  0.00    +0.244 C 
ATOM     11  O   UNL     1      -9.724  -0.098  -4.716  0.00  0.00    -0.490 OA
ENDROOT
BRANCH   1  12
ATOM     12  C   UNL     1      -4.173  -1.049  -4.824  0.00  0.00    -0.043 C 
BRANCH  12  17
ATOM     13  C   UNL     1      -1.535  -0.660  -2.184  0.00  0.00    +0.059 C 
ATOM     14  C   UNL     1      -2.086  -1.657  -1.160  0.00  0.00    +0.009 C 
ATOM     15  C   UNL     1      -3.615  -1.571  -1.150  0.00  0.00    -0.018 C 
ATOM     16  C   UNL     1      -4.144  -1.838  -2.561  0.00  0.00    -0.078 C 
ATOM     17  N   UNL     1      -3.602  -0.837  -3.488  0.00  0.00    +0.383 N 
ATOM     18  C   UNL     1      -2.141  -0.959  -3.557  0.00  0.00    -0.066 C 
ATOM     19  H   UNL     1      -3.845   0.087  -3.163  0.00  0.00    -0.081 HD
BRANCH  13  21
ATOM     20  N   UNL     1       0.738  -0.211  -1.317  0.00  0.00    -0.302 N 
ATOM     21  C   UNL     1      -0.035  -0.790  -2.256  0.00  0.00    +0.217 C 
ATOM     22  O   UNL     1       0.476  -1.417  -3.160  0.00  0.00    -0.275 OA
BRANCH  20  24
ATOM     23  C   UNL     1       2.732  -1.550  -0.858  0.00  0.00    +0.024 C 
ATOM     24  C   UNL     1       2.197  -0.243  -1.447  0.00  0.00    +0.104 C 
ENDBRANCH  20  24
BRANCH  20  25
ATOM     25  C   UNL     1       0.119   0.451  -0.166  0.00  0.00    +0.104 C 
ATOM     26  C   UNL     1      -0.006   1.950  -0.446  0.00  0.00    +0.024 C 
ENDBRANCH  20  25
ENDBRANCH  13  21
ENDBRANCH  12  17
ENDBRANCH   1  12
BRANCH   8  27
ATOM     27  C   UNL     1      -8.754   3.455  -7.094  0.00  0.00    +0.120 C 
BRANCH  27  28
ATOM     28  C   UNL     1      -9.316   3.379  -8.490  0.00  0.00    -0.026 A 
ATOM     29  C   UNL     1      -8.481   3.103  -9.556  0.00  0.00    +0.050 A 
ATOM     30  C   UNL     1      -8.996   3.033 -10.842  0.00  0.00    +0.124 A 
ATOM     31  C   UNL     1     -10.350   3.241 -11.058  0.00  0.00    +0.091 A 
ATOM     32  C   UNL     1     -11.185   3.518  -9.988  0.00  0.00    +0.124 A 
ATOM     33  C   UNL     1     -10.666   3.582  -8.702  0.00  0.00    +0.050 A 
BRANCH  32  34
ATOM     34  O   UNL     1     -12.513   3.723 -10.196  0.00  0.00    -0.495 OA
ATOM     35  C   UNL     1     -12.978   3.637 -11.544  0.00  0.00    +0.277 C 
ENDBRANCH  32  34
BRANCH  30  36
ATOM     36  O   UNL     1      -8.174   2.761 -11.890  0.00  0.00    -0.495 OA
ATOM     37  C   UNL     1      -8.773   2.704 -13.187  0.00  0.00    +0.277 C 
ENDBRANCH  30  36
ENDBRANCH  27  28
ENDBRANCH   8  27
TORSDOF 9
