REMARK  Name = ZINC13552868
REMARK  10 active torsions:
REMARK  status: ('A' for Active; 'I' for Inactive)
REMARK    1  A    between atoms: C_1  and  C_2
REMARK    2  A    between atoms: C_10  and  C_12
REMARK    3  A    between atoms: C_15  and  O_20
REMARK    4  A    between atoms: C_16  and  O_18
REMARK    5  A    between atoms: O_18  and  C_19
REMARK    6  A    between atoms: C_24  and  C_27
REMARK    7  A    between atoms: C_30  and  O_35
REMARK    8  A    between atoms: C_31  and  O_33
REMARK    9  A    between atoms: O_33  and  C_34
REMARK   10  A    between atoms: O_35  and  C_36
REMARK                            x       y       z     vdW  Elec       q    Type
REMARK                         _______ _______ _______ _____ _____    ______ ____
ROOT
ATOM      1  C   UNL     1      -0.018   1.503   0.010  0.00  0.00    +0.069 C 
ATOM      2  C   UNL     1       0.002  -0.004   0.002  0.00  0.00    +0.087 A 
ATOM      3  C   UNL     1       0.008  -0.816  -1.130  0.00  0.00    +0.049 A 
ATOM      4  C   UNL     1       0.026  -2.118  -0.716  0.00  0.00    +0.226 A 
ATOM      5  O   UNL     1       0.035  -2.127   0.616  0.00  0.00    -0.339 OA
ATOM      6  N   UNL     1       0.023  -0.778   1.057  0.00  0.00    -0.081 NA
ATOM      7  N   UNL     1       0.028  -3.163  -1.623  0.00  0.00    -0.286 N 
ATOM      8  C   UNL     1      -0.295  -2.898  -2.932  0.00  0.00    +0.019 C 
ATOM      9  C   UNL     1      -0.324  -1.644  -3.428  0.00  0.00    +0.024 C 
ATOM     10  C   UNL     1      -0.000  -0.431  -2.583  0.00  0.00    +0.091 C 
ATOM     11  C   UNL     1      -0.656  -1.407  -4.775  0.00  0.00    +0.162 C 
ATOM     12  O   UNL     1      -0.697  -0.263  -5.184  0.00  0.00    -0.292 OA
ATOM     13  C   UNL     1      -0.962  -2.536  -5.719  0.00  0.00    +0.088 C 
ATOM     14  C   UNL     1      -0.214  -3.790  -5.251  0.00  0.00    +0.032 C 
ATOM     15  C   UNL     1      -0.628  -4.084  -3.808  0.00  0.00    +0.059 C 
ATOM     16  H   UNL     1       0.253  -4.063  -1.341  0.00  0.00    +0.155 HD
ENDROOT
BRANCH  10  17
ATOM     17  C   UNL     1       1.355   0.103  -2.968  0.00  0.00    -0.032 A 
ATOM     18  C   UNL     1       2.473  -0.701  -2.845  0.00  0.00    +0.008 A 
ATOM     19  C   UNL     1       3.719  -0.217  -3.198  0.00  0.00    +0.049 A 
ATOM     20  C   UNL     1       3.849   1.078  -3.675  0.00  0.00    +0.158 A 
ATOM     21  C   UNL     1       2.724   1.887  -3.799  0.00  0.00    +0.162 A 
ATOM     22  C   UNL     1       1.478   1.393  -3.449  0.00  0.00    +0.054 A 
BRANCH  21  23
ATOM     23  O   UNL     1       2.847   3.158  -4.267  0.00  0.00    -0.491 OA
ATOM     24  C   UNL     1       1.649   3.931  -4.367  0.00  0.00    +0.277 C 
ENDBRANCH  21  23
BRANCH  20  25
ATOM     25  O   UNL     1       5.074   1.556  -4.022  0.00  0.00    -0.503 OA
ATOM     26  H   UNL     1       5.309   1.402  -4.947  0.00  0.00    +0.292 HD
ENDBRANCH  20  25
ENDBRANCH  10  17
BRANCH  14  27
ATOM     27  C   UNL     1      -0.578  -4.956  -6.133  0.00  0.00    -0.040 A 
ATOM     28  C   UNL     1      -1.895  -5.365  -6.227  0.00  0.00    +0.008 A 
ATOM     29  C   UNL     1      -2.234  -6.435  -7.035  0.00  0.00    +0.049 A 
ATOM     30  C   UNL     1      -1.253  -7.099  -7.752  0.00  0.00    +0.161 A 
ATOM     31  C   UNL     1       0.073  -6.688  -7.658  0.00  0.00    +0.162 A 
ATOM     32  C   UNL     1       0.405  -5.612  -6.851  0.00  0.00    +0.053 A 
BRANCH  31  33
ATOM     33  O   UNL     1       1.040  -7.337  -8.361  0.00  0.00    -0.491 OA
ATOM     34  C   UNL     1       2.379  -6.859  -8.215  0.00  0.00    +0.277 C 
ENDBRANCH  31  33
BRANCH  30  35
ATOM     35  O   UNL     1      -1.585  -8.152  -8.547  0.00  0.00    -0.491 OA
ATOM     36  C   UNL     1      -2.965  -8.520  -8.594  0.00  0.00    +0.277 C 
ENDBRANCH  30  35
ENDBRANCH  14  27
TORSDOF 6
