REMARK  Name = ZINC15860513
REMARK  9 active torsions:
REMARK  status: ('A' for Active; 'I' for Inactive)
REMARK    1  A    between atoms: C_1  and  C_2
REMARK    2  A    between atoms: C_9  and  C_14
REMARK    3  A    between atoms: C_12  and  C_13
REMARK    4  A    between atoms: N_16  and  C_17
REMARK    5  A    between atoms: C_17  and  C_18
REMARK    6  A    between atoms: C_18  and  C_20
REMARK    7  A    between atoms: C_18  and  N_61
REMARK    8  A    between atoms: C_23  and  C_25
REMARK    9  A    between atoms: C_28  and  C_31
REMARK                            x       y       z     vdW  Elec       q    Type
REMARK                         _______ _______ _______ _____ _____    ______ ____
ROOT
ATOM      1  C   UNL     1      -6.662   0.613   4.042  0.00  0.00    +0.279 C 
ATOM      2  O   UNL     1      -6.241  -0.517   4.188  0.00  0.00    -0.267 OA
ATOM      3  N   UNL     1      -5.826   1.599   3.661  0.00  0.00    -0.310 N 
ATOM      4  H   UNL     1      -6.162   2.502   3.545  0.00  0.00    +0.149 HD
ENDROOT
BRANCH   1  13
ATOM      5  C   UNL     1     -11.947   5.640   4.117  0.00  0.00    +0.044 C 
ATOM      6  C   UNL     1     -11.524   4.209   4.324  0.00  0.00    -0.044 A 
ATOM      7  C   UNL     1     -12.462   3.266   4.718  0.00  0.00    +0.004 A 
ATOM      8  C   UNL     1     -12.095   1.963   4.911  0.00  0.00    +0.015 A 
ATOM      9  C   UNL     1     -10.769   1.582   4.709  0.00  0.00    +0.064 A 
ATOM     10  C   UNL     1     -10.332   0.186   4.906  0.00  0.00    +0.193 A 
ATOM     11  O   UNL     1     -11.112  -0.684   5.251  0.00  0.00    -0.287 OA
ATOM     12  C   UNL     1      -8.911  -0.104   4.666  0.00  0.00    +0.103 A 
ATOM     13  C   UNL     1      -8.094   0.907   4.284  0.00  0.00    +0.193 A 
ATOM     14  O   UNL     1      -8.530   2.165   4.121  0.00  0.00    -0.450 OA
ATOM     15  C   UNL     1      -9.812   2.531   4.310  0.00  0.00    +0.143 A 
ATOM     16  C   UNL     1     -10.208   3.851   4.120  0.00  0.00    -0.005 A 
ATOM     17  C   UNL     1      -9.202   4.888   3.693  0.00  0.00    +0.048 C 
ENDBRANCH   1  13
BRANCH   3  18
ATOM     18  C   UNL     1      -4.410   1.308   3.422  0.00  0.00    +0.097 C 
BRANCH  18  19
ATOM     19  C   UNL     1      -3.666   2.611   3.122  0.00  0.00    +0.016 C 
BRANCH  19  26
ATOM     20  C   UNL     1      -3.584   4.518   1.633  0.00  0.00    -0.078 C 
ATOM     21  C   UNL     1      -4.372   5.290   0.572  0.00  0.00    -0.015 C 
ATOM     22  C   UNL     1      -4.579   4.397  -0.654  0.00  0.00    -0.018 C 
ATOM     23  C   UNL     1      -5.309   3.120  -0.228  0.00  0.00    -0.015 C 
ATOM     24  C   UNL     1      -4.494   2.410   0.856  0.00  0.00    -0.078 C 
ATOM     25  C   UNL     1      -5.419   5.142  -1.694  0.00  0.00    +0.007 C 
ATOM     26  N   UNL     1      -4.351   3.313   2.018  0.00  0.00    +0.387 N 
ATOM     27  H   UNL     1      -5.285   3.600   2.333  0.00  0.00    -0.081 HD
ENDBRANCH  19  26
BRANCH  19  28
ATOM     28  C   UNL     1      -2.240   2.300   2.748  0.00  0.00    +0.093 A 
ATOM     29  C   UNL     1      -1.174   2.396   3.563  0.00  0.00    +0.043 A 
ATOM     30  C   UNL     1      -0.043   2.010   2.806  0.00  0.00    +0.044 A 
ATOM     31  C   UNL     1      -0.486   1.701   1.574  0.00  0.00    +0.102 A 
ATOM     32  O   UNL     1      -1.816   1.884   1.543  0.00  0.00    -0.466 OA
ATOM     33  C   UNL     1       0.366   1.235   0.422  0.00  0.00    +0.086 C 
ENDBRANCH  19  28
ENDBRANCH  18  19
ENDBRANCH   3  18
TORSDOF 5
