REMARK  Name = ZINC32910362
REMARK  8 active torsions:
REMARK  status: ('A' for Active; 'I' for Inactive)
REMARK    1  A    between atoms: C_1  and  C_2
REMARK    2  A    between atoms: C_3  and  C_12
REMARK    3  A    between atoms: C_12  and  C_14
REMARK    4  A    between atoms: C_14  and  C_16
REMARK    5  A    between atoms: C_14  and  O_17
REMARK    6  A    between atoms: O_17  and  C_18
REMARK    7  A    between atoms: C_18  and  C_20
REMARK    8  A    between atoms: C_34  and  C_35
REMARK                            x       y       z     vdW  Elec       q    Type
REMARK                         _______ _______ _______ _____ _____    ______ ____
ROOT
ATOM      1  C   UNL     1      -2.163   3.256  -5.780  0.00  0.00    +0.073 A 
ATOM      2  C   UNL     1      -3.487   2.723  -6.105  0.00  0.00    +0.015 A 
ATOM      3  C   UNL     1      -4.365   2.287  -5.107  0.00  0.00    +0.011 A 
ATOM      4  C   UNL     1      -5.590   1.798  -5.454  0.00  0.00    +0.001 A 
ATOM      5  C   UNL     1      -5.978   1.726  -6.790  0.00  0.00    +0.002 A 
ATOM      6  C   UNL     1      -5.147   2.141  -7.786  0.00  0.00    +0.028 A 
ATOM      7  C   UNL     1      -3.875   2.652  -7.466  0.00  0.00    +0.072 A 
ATOM      8  N   UNL     1      -3.040   3.065  -8.419  0.00  0.00    -0.247 NA
ATOM      9  C   UNL     1      -1.837   3.551  -8.152  0.00  0.00    +0.072 A 
ATOM     10  C   UNL     1      -1.361   3.674  -6.833  0.00  0.00    -0.007 A 
ATOM     11  C   UNL     1      -0.004   4.246  -6.529  0.00  0.00    +0.038 C 
ATOM     12  C   UNL     1       0.924   4.140  -7.735  0.00  0.00    +0.009 C 
ATOM     13  C   UNL     1       0.254   4.795  -8.950  0.00  0.00    +0.037 C 
ATOM     14  C   UNL     1      -0.980   3.977  -9.276  0.00  0.00    -0.021 C 
ATOM     15  C   UNL     1      -1.294   3.663 -10.551  0.00  0.00    +0.020 C 
ENDROOT
BRANCH  15  16
ATOM     16  C   UNL     1      -0.545   4.260 -11.658  0.00  0.00    +0.013 A 
ATOM     17  C   UNL     1      -0.613   3.975 -13.013  0.00  0.00    +0.015 A 
ATOM     18  C   UNL     1       0.201   4.678 -13.868  0.00  0.00    +0.008 A 
ATOM     19  C   UNL     1       1.040   5.623 -13.364  0.00  0.00    +0.046 A 
ATOM     20  S   UNL     1       0.689   5.549 -11.615  0.00  0.00    -0.097 S 
ENDBRANCH  15  16
BRANCH   1  21
ATOM     21  C   UNL     1      -1.700   3.353  -4.380  0.00  0.00    +0.341 C 
ATOM     22  O   UNL     1      -1.921   4.359  -3.735  0.00  0.00    -0.245 OA
BRANCH  21  23
ATOM     23  O   UNL     1      -1.032   2.326  -3.819  0.00  0.00    -0.450 OA
BRANCH  23  24
ATOM     24  C   UNL     1      -0.614   2.489  -2.462  0.00  0.00    +0.244 C 
ATOM     25  C   UNL     1       0.783   3.111  -2.430  0.00  0.00    +0.061 C 
BRANCH  24  26
ATOM     26  C   UNL     1      -0.581   1.144  -1.783  0.00  0.00    +0.205 C 
ATOM     27  O   UNL     1      -0.655   0.128  -2.443  0.00  0.00    -0.288 OA
BRANCH  26  30
ATOM     28  C   UNL     1      -2.959   0.968   0.198  0.00  0.00    +0.064 C 
ATOM     29  C   UNL     1      -1.492   0.986   0.541  0.00  0.00    +0.025 A 
ATOM     30  C   UNL     1      -0.463   1.065  -0.372  0.00  0.00    +0.049 A 
ATOM     31  C   UNL     1       0.787   1.052   0.413  0.00  0.00    +0.011 A 
ATOM     32  C   UNL     1       2.138   1.105   0.082  0.00  0.00    +0.011 A 
ATOM     33  C   UNL     1       3.087   1.072   1.080  0.00  0.00    +0.001 A 
ATOM     34  C   UNL     1       2.700   0.984   2.410  0.00  0.00    +0.002 A 
ATOM     35  C   UNL     1       1.367   0.930   2.751  0.00  0.00    +0.026 A 
ATOM     36  C   UNL     1       0.394   0.963   1.757  0.00  0.00    +0.047 A 
ATOM     37  N   UNL     1      -0.986   0.932   1.788  0.00  0.00    -0.358 N 
ATOM     38  H   UNL     1      -1.518   0.876   2.598  0.00  0.00    +0.166 HD
ENDBRANCH  26  30
ENDBRANCH  24  26
ENDBRANCH  23  24
ENDBRANCH  21  23
ENDBRANCH   1  21
TORSDOF 6
