REMARK  Name = ZINC64103195
REMARK  7 active torsions:
REMARK  status: ('A' for Active; 'I' for Inactive)
REMARK    1  A    between atoms: C_1  and  O_2
REMARK    2  A    between atoms: O_2  and  C_3
REMARK    3  A    between atoms: C_3  and  C_5
REMARK    4  A    between atoms: C_8  and  N_21
REMARK    5  A    between atoms: N_11  and  C_12
REMARK    6  A    between atoms: C_22  and  C_24
REMARK    7  A    between atoms: C_26  and  C_35
REMARK                            x       y       z     vdW  Elec       q    Type
REMARK                         _______ _______ _______ _____ _____    ______ ____
ROOT
ATOM      1  N   UNL     1      -1.296  -5.080   3.288  0.00  0.00    -0.309 N 
ATOM      2  C   UNL     1      -2.246  -6.034   3.212  0.00  0.00    +0.240 C 
ATOM      3  O   UNL     1      -2.020  -7.070   2.625  0.00  0.00    -0.273 OA
ATOM      4  H   UNL     1      -1.449  -4.284   3.821  0.00  0.00    +0.149 HD
ENDROOT
BRANCH   2   5
ATOM      5  C   UNL     1      -3.590  -5.811   3.858  0.00  0.00    +0.198 C 
ATOM      6  C   UNL     1      -3.552  -6.253   5.304  0.00  0.00    -0.000 C 
ATOM      7  C   UNL     1      -4.495  -7.261   5.413  0.00  0.00    +0.006 A 
ATOM      8  C   UNL     1      -4.919  -8.060   6.502  0.00  0.00    +0.030 A 
ATOM      9  C   UNL     1      -5.884  -8.994   6.314  0.00  0.00    +0.042 A 
ATOM     10  C   UNL     1      -6.481  -9.192   5.063  0.00  0.00    +0.022 A 
ATOM     11  C   UNL     1      -6.126  -8.466   3.978  0.00  0.00    +0.027 A 
ATOM     12  C   UNL     1      -5.121  -7.467   4.093  0.00  0.00    +0.044 A 
ATOM     13  N   UNL     1      -4.607  -6.642   3.206  0.00  0.00    -0.370 N 
ATOM     14 CL   UNL     1      -6.394  -9.966   7.659  0.00  0.00    -0.084 Cl
ATOM     15  H   UNL     1      -4.860  -6.591   2.271  0.00  0.00    +0.161 HD
BRANCH   6  16
ATOM     16  C   UNL     1      -2.696  -5.724   6.368  0.00  0.00    -0.019 A 
ATOM     17  C   UNL     1      -2.075  -6.597   7.273  0.00  0.00    +0.008 A 
ATOM     18  C   UNL     1      -1.271  -6.090   8.271  0.00  0.00    +0.001 A 
ATOM     19  C   UNL     1      -1.075  -4.724   8.381  0.00  0.00    +0.000 A 
ATOM     20  C   UNL     1      -1.684  -3.854   7.492  0.00  0.00    +0.001 A 
ATOM     21  C   UNL     1      -2.487  -4.342   6.485  0.00  0.00    +0.008 A 
ENDBRANCH   6  16
ENDBRANCH   2   5
BRANCH   1  24
ATOM     22  C   UNL     1       1.298  -4.345   0.753  0.00  0.00    +0.168 C 
ATOM     23  C   UNL     1      -0.154  -4.728   1.108  0.00  0.00    +0.054 C 
ATOM     24  C   UNL     1      -0.033  -5.247   2.565  0.00  0.00    +0.089 C 
ATOM     25  C   UNL     1       1.062  -4.314   3.139  0.00  0.00    +0.107 C 
ATOM     26  N   UNL     1       2.015  -4.116   2.022  0.00  0.00    -0.285 NA
BRANCH  26  27
ATOM     27  C   UNL     1       3.170  -5.016   2.143  0.00  0.00    +0.066 C 
ATOM     28  C   UNL     1       3.927  -4.761   3.464  0.00  0.00    +0.054 C 
ATOM     29  C   UNL     1       5.387  -4.979   3.131  0.00  0.00    -0.043 A 
ATOM     30  C   UNL     1       6.474  -5.198   3.962  0.00  0.00    +0.004 A 
ATOM     31  C   UNL     1       7.734  -5.372   3.425  0.00  0.00    +0.000 A 
ATOM     32  C   UNL     1       7.913  -5.328   2.055  0.00  0.00    +0.000 A 
ATOM     33  C   UNL     1       6.831  -5.110   1.226  0.00  0.00    +0.004 A 
ATOM     34  C   UNL     1       5.566  -4.935   1.762  0.00  0.00    -0.043 A 
ATOM     35  C   UNL     1       4.238  -4.685   1.080  0.00  0.00    +0.054 C 
ENDBRANCH  26  27
BRANCH  22  36
ATOM     36  C   UNL     1       1.309  -3.086  -0.076  0.00  0.00    +0.324 C 
ATOM     37  O   UNL     1       1.862  -2.095   0.338  0.00  0.00    -0.249 OA
BRANCH  36  39
ATOM     38  C   UNL     1       0.753  -1.840  -2.006  0.00  0.00    +0.280 C 
ATOM     39  O   UNL     1       0.704  -3.067  -1.274  0.00  0.00    -0.467 OA
ENDBRANCH  36  39
ENDBRANCH  22  36
ENDBRANCH   1  24
TORSDOF 6
