REMARK  Name = ZINC33059086
REMARK  14 active torsions:
REMARK  status: ('A' for Active; 'I' for Inactive)
REMARK    1  A    between atoms: C_1  and  C_2
REMARK    2  A    between atoms: C_2  and  N_3
REMARK    3  A    between atoms: N_3  and  C_4
REMARK    4  A    between atoms: C_4  and  C_5
REMARK    5  A    between atoms: C_5  and  N_6
REMARK    6  A    between atoms: N_6  and  C_7
REMARK    7  A    between atoms: N_6  and  C_8
REMARK    8  A    between atoms: C_9  and  C_11
REMARK    9  A    between atoms: N_16  and  S_18
REMARK   10  A    between atoms: S_18  and  C_21
REMARK   11  A    between atoms: C_22  and  C_35
REMARK   12  A    between atoms: C_25  and  C_26
REMARK   13  A    between atoms: C_27  and  C_28
REMARK   14  A    between atoms: C_31  and  C_34
REMARK                            x       y       z     vdW  Elec       q    Type
REMARK                         _______ _______ _______ _____ _____    ______ ____
ROOT
ATOM      1  S   UNL     1       4.695   2.987   4.532  0.00  0.00    +0.066 S 
ATOM      2  O   UNL     1       3.733   3.481   5.454  0.00  0.00    -0.153 OA
ATOM      3  O   UNL     1       5.377   1.756   4.729  0.00  0.00    -0.153 OA
ENDROOT
BRANCH   1   8
ATOM      4  C   UNL     1       1.614   2.789   2.312  0.00  0.00    +0.091 C 
ATOM      5  C   UNL     1       2.093   1.934   1.136  0.00  0.00    +0.015 C 
ATOM      6  C   UNL     1       3.264   1.057   1.585  0.00  0.00    +0.018 C 
ATOM      7  C   UNL     1       4.423   1.952   2.035  0.00  0.00    +0.109 C 
ATOM      8  N   UNL     1       3.933   2.877   3.066  0.00  0.00    -0.176 NA
ATOM      9  C   UNL     1       2.754   3.703   2.771  0.00  0.00    +0.122 C 
BRANCH   4  11
ATOM     10  N   UNL     1      -0.741   3.041   1.598  0.00  0.00    -0.303 N 
ATOM     11  C   UNL     1       0.440   3.628   1.879  0.00  0.00    +0.220 C 
ATOM     12  O   UNL     1       0.557   4.831   1.782  0.00  0.00    -0.275 OA
BRANCH  10  14
ATOM     13  C   UNL     1      -0.857   0.922   0.383  0.00  0.00    +0.024 C 
ATOM     14  C   UNL     1      -0.895   1.593   1.757  0.00  0.00    +0.104 C 
ENDBRANCH  10  14
BRANCH  10  15
ATOM     15  C   UNL     1      -1.869   3.852   1.134  0.00  0.00    +0.089 C 
BRANCH  15  16
ATOM     16  C   UNL     1      -2.684   4.329   2.338  0.00  0.00    -0.060 C 
BRANCH  16  17
ATOM     17  N   UNL     1      -3.816   5.142   1.873  0.00  0.00    +0.377 N 
ATOM     18  C   UNL     1      -4.751   5.420   2.971  0.00  0.00    -0.097 C 
ATOM     19  C   UNL     1      -3.348   6.388   1.251  0.00  0.00    -0.097 C 
ATOM     20  H   UNL     1      -4.355   4.564   1.108  0.00  0.00    -0.083 HD
ENDBRANCH  16  17
ENDBRANCH  15  16
ENDBRANCH  10  15
ENDBRANCH   4  11
ENDBRANCH   1   8
BRANCH   1  21
ATOM     21  C   UNL     1       5.934   4.231   4.383  0.00  0.00    +0.174 A 
ATOM     22  C   UNL     1       7.278   4.076   3.993  0.00  0.00    +0.107 A 
ATOM     23  N   UNL     1       7.816   5.263   4.024  0.00  0.00    -0.081 NA
ATOM     24  O   UNL     1       7.027   6.109   4.374  0.00  0.00    -0.353 OA
ATOM     25  C   UNL     1       5.816   5.578   4.626  0.00  0.00    +0.187 A 
ATOM     26  C   UNL     1       7.961   2.788   3.611  0.00  0.00    +0.071 C 
BRANCH  25  27
ATOM     27  C   UNL     1       4.615   6.292   5.069  0.00  0.00    +0.051 C 
ATOM     28  C   UNL     1       4.657   7.624   5.266  0.00  0.00    +0.011 C 
BRANCH  28  29
ATOM     29  C   UNL     1       3.451   8.341   5.711  0.00  0.00    -0.025 A 
ATOM     30  C   UNL     1       2.258   7.644   5.925  0.00  0.00    +0.008 A 
ATOM     31  C   UNL     1       1.134   8.322   6.348  0.00  0.00    +0.004 A 
ATOM     32  C   UNL     1       1.181   9.691   6.548  0.00  0.00    -0.050 A 
ATOM     33  C   UNL     1       2.357  10.388   6.333  0.00  0.00    +0.004 A 
ATOM     34  C   UNL     1       3.491   9.723   5.916  0.00  0.00    +0.008 A 
ATOM     35  C   UNL     1      -0.053  10.425   7.004  0.00  0.00    +0.044 C 
ENDBRANCH  28  29
ENDBRANCH  25  27
ENDBRANCH   1  21
TORSDOF 9
