REMARK  Name = ZINC34775910
REMARK  12 active torsions:
REMARK  status: ('A' for Active; 'I' for Inactive)
REMARK    1  A    between atoms: C_1  and  C_2
REMARK    2  A    between atoms: C_2  and  C_3
REMARK    3  A    between atoms: C_3  and  C_4
REMARK    4  A    between atoms: C_4  and  N_5
REMARK    5  A    between atoms: C_9  and  C_31
REMARK    6  A    between atoms: C_10  and  C_26
REMARK    7  A    between atoms: N_13  and  C_16
REMARK    8  A    between atoms: C_16  and  C_17
REMARK    9  A    between atoms: N_19  and  C_20
REMARK   10  A    between atoms: C_26  and  O_28
REMARK   11  A    between atoms: O_28  and  C_29
REMARK   12  A    between atoms: C_29  and  C_30
REMARK                            x       y       z     vdW  Elec       q    Type
REMARK                         _______ _______ _______ _____ _____    ______ ____
ROOT
ATOM      1  N   UNL     1      -2.787  -2.571   0.015  0.00  0.00    -0.260 N 
ATOM      2  C   UNL     1      -3.391  -2.798   1.194  0.00  0.00    +0.265 A 
ATOM      3  O   UNL     1      -2.804  -2.585   2.239  0.00  0.00    -0.267 OA
ATOM      4  C   UNL     1      -4.783  -3.311   1.207  0.00  0.00    +0.074 A 
ATOM      5  C   UNL     1      -5.593  -3.614   2.308  0.00  0.00    -0.015 A 
ATOM      6  C   UNL     1      -6.851  -4.076   2.047  0.00  0.00    +0.102 A 
ATOM      7  S   UNL     1      -6.903  -4.088   0.266  0.00  0.00    -0.063 S 
ATOM      8  C   UNL     1      -5.364  -3.520  -0.053  0.00  0.00    +0.098 A 
ATOM      9  N   UNL     1      -4.671  -3.260  -1.201  0.00  0.00    -0.278 N 
ATOM     10  C   UNL     1      -3.411  -2.790  -1.154  0.00  0.00    +0.333 A 
ATOM     11  O   UNL     1      -2.822  -2.564  -2.193  0.00  0.00    -0.246 OA
ATOM     12  C   UNL     1      -5.098  -3.437   3.720  0.00  0.00    +0.046 C 
ENDROOT
BRANCH   6  13
ATOM     13  C   UNL     1      -7.897  -4.464   2.994  0.00  0.00    +0.346 C 
ATOM     14  O   UNL     1      -7.690  -4.393   4.191  0.00  0.00    -0.244 OA
BRANCH  13  15
ATOM     15  O   UNL     1      -9.089  -4.902   2.540  0.00  0.00    -0.461 OA
BRANCH  15  16
ATOM     16  C   UNL     1     -10.064  -5.264   3.520  0.00  0.00    +0.229 C 
ATOM     17  C   UNL     1     -11.342  -5.732   2.821  0.00  0.00    +0.048 C 
ENDBRANCH  15  16
ENDBRANCH  13  15
ENDBRANCH   6  13
BRANCH   1  18
ATOM     18  C   UNL     1      -1.413  -2.063   0.004  0.00  0.00    +0.130 C 
BRANCH  18  19
ATOM     19  C   UNL     1      -1.433  -0.534   0.013  0.00  0.00    +0.022 C 
BRANCH  19  21
ATOM     20  C   UNL     1      -0.019   1.526   0.010  0.00  0.00    +0.004 C 
ATOM     21  C   UNL     1       0.002  -0.004   0.002  0.00  0.00    -0.002 C 
ENDBRANCH  19  21
ENDBRANCH  18  19
ENDBRANCH   1  18
BRANCH   9  22
ATOM     22  C   UNL     1      -5.310  -3.490  -2.499  0.00  0.00    +0.223 C 
BRANCH  22  23
ATOM     23  C   UNL     1      -6.020  -2.236  -2.939  0.00  0.00    +0.233 C 
ATOM     24  O   UNL     1      -5.995  -1.247  -2.237  0.00  0.00    -0.274 OA
ATOM     25  N   UNL     1      -6.683  -2.213  -4.112  0.00  0.00    -0.311 N 
ATOM     26  H   UNL     1      -6.702  -3.004  -4.674  0.00  0.00    +0.149 HD
BRANCH  25  27
ATOM     27  C   UNL     1      -7.373  -0.994  -4.540  0.00  0.00    +0.073 C 
ATOM     28  C   UNL     1      -6.382  -0.068  -5.249  0.00  0.00    +0.022 C 
ATOM     29  C   UNL     1      -7.103   1.205  -5.696  0.00  0.00    +0.002 C 
ATOM     30  C   UNL     1      -8.237   0.839  -6.656  0.00  0.00    +0.000 C 
ATOM     31  C   UNL     1      -9.228  -0.086  -5.947  0.00  0.00    +0.002 C 
ATOM     32  C   UNL     1      -8.507  -1.359  -5.500  0.00  0.00    +0.022 C 
ENDBRANCH  25  27
ENDBRANCH  22  23
ENDBRANCH   9  22
TORSDOF 9
