REMARK  Name = ZINC55748990
REMARK  11 active torsions:
REMARK  status: ('A' for Active; 'I' for Inactive)
REMARK    1  A    between atoms: C_1  and  C_2
REMARK    2  A    between atoms: C_5  and  C_31
REMARK    3  A    between atoms: N_8  and  C_10
REMARK    4  A    between atoms: C_10  and  C_11
REMARK    5  A    between atoms: C_11  and  C_13
REMARK    6  A    between atoms: C_11  and  N_14
REMARK    7  A    between atoms: C_15  and  C_17
REMARK    8  A    between atoms: C_19  and  N_27
REMARK    9  A    between atoms: C_21  and  N_23
REMARK   10  A    between atoms: C_24  and  C_26
REMARK   11  A    between atoms: C_28  and  C_30
REMARK                            x       y       z     vdW  Elec       q    Type
REMARK                         _______ _______ _______ _____ _____    ______ ____
ROOT
ATOM      1  N   UNL     1       2.944  -2.950   1.237  0.00  0.00    -0.311 N 
ATOM      2  C   UNL     1       3.970  -2.338   0.613  0.00  0.00    +0.244 C 
ATOM      3  O   UNL     1       4.466  -1.338   1.095  0.00  0.00    -0.270 OA
ATOM      4  H   UNL     1       2.549  -3.748   0.852  0.00  0.00    +0.149 HD
ENDROOT
BRANCH   2   5
ATOM      5  C   UNL     1       4.493  -2.883  -0.659  0.00  0.00    +0.040 A 
ATOM      6  C   UNL     1       3.922  -4.027  -1.216  0.00  0.00    +0.036 A 
ATOM      7  C   UNL     1       4.415  -4.535  -2.409  0.00  0.00    +0.036 A 
ATOM      8  C   UNL     1       5.475  -3.906  -3.047  0.00  0.00    +0.046 A 
ATOM      9  C   UNL     1       6.046  -2.768  -2.495  0.00  0.00    +0.036 A 
ATOM     10  C   UNL     1       5.555  -2.251  -1.306  0.00  0.00    +0.036 A 
BRANCH   9  11
ATOM     11  N   UNL     1       7.116  -2.138  -3.142  0.00  0.00    -0.286 N 
ATOM     12  C   UNL     1       8.092  -1.556  -2.419  0.00  0.00    +0.214 C 
ATOM     13  O   UNL     1       8.096  -1.660  -1.210  0.00  0.00    -0.276 OA
ATOM     14  C   UNL     1       9.179  -0.775  -3.111  0.00  0.00    +0.109 C 
ATOM     15  H   UNL     1       7.154  -2.121  -4.111  0.00  0.00    +0.155 HD
ENDBRANCH   9  11
BRANCH   7  16
ATOM     16  N   UNL     1       3.842  -5.683  -2.969  0.00  0.00    -0.286 N 
ATOM     17  C   UNL     1       3.756  -5.808  -4.308  0.00  0.00    +0.214 C 
ATOM     18  O   UNL     1       4.085  -4.887  -5.026  0.00  0.00    -0.276 OA
ATOM     19  C   UNL     1       3.251  -7.092  -4.914  0.00  0.00    +0.109 C 
ATOM     20  H   UNL     1       3.507  -6.388  -2.394  0.00  0.00    +0.155 HD
ENDBRANCH   7  16
ENDBRANCH   2   5
BRANCH   1  21
ATOM     21  C   UNL     1       2.426  -2.410   2.496  0.00  0.00    +0.054 C 
ATOM     22  C   UNL     1       3.261  -2.943   3.662  0.00  0.00    +0.026 C 
BRANCH  21  23
ATOM     23  C   UNL     1       0.969  -2.840   2.674  0.00  0.00    -0.057 C 
BRANCH  23  29
ATOM     24  C   UNL     1      -0.604   0.992   0.065  0.00  0.00    +0.005 C 
ATOM     25  C   UNL     1      -0.577  -0.536   0.147  0.00  0.00    -0.031 C 
ATOM     26  C   UNL     1      -2.010  -1.072   0.193  0.00  0.00    +0.003 C 
ATOM     27  C   UNL     1      -1.971  -2.594   0.354  0.00  0.00    -0.031 C 
ATOM     28  C   UNL     1      -1.179  -2.948   1.615  0.00  0.00    -0.076 C 
ATOM     29  N   UNL     1       0.190  -2.431   1.498  0.00  0.00    +0.381 N 
ATOM     30  C   UNL     1       0.165  -0.966   1.414  0.00  0.00    -0.076 C 
ATOM     31  C   UNL     1      -1.295  -3.220  -0.868  0.00  0.00    +0.005 C 
ATOM     32  H   UNL     1       0.620  -2.806   0.665  0.00  0.00    -0.082 HD
ENDBRANCH  23  29
ENDBRANCH  21  23
ENDBRANCH   1  21
TORSDOF 6
