REMARK  Name = ZINC61682498
REMARK  7 active torsions:
REMARK  status: ('A' for Active; 'I' for Inactive)
REMARK    1  A    between atoms: C_1  and  C_2
REMARK    2  A    between atoms: C_2  and  C_3
REMARK    3  A    between atoms: C_2  and  N_4
REMARK    4  A    between atoms: C_6  and  N_9
REMARK    5  A    between atoms: N_9  and  S_10
REMARK    6  A    between atoms: S_10  and  C_13
REMARK    7  A    between atoms: C_16  and  N_20
REMARK                            x       y       z     vdW  Elec       q    Type
REMARK                         _______ _______ _______ _____ _____    ______ ____
ROOT
ATOM      1  S   UNL     1       2.057  -0.881  -5.732  0.00  0.00    +0.075 S 
ATOM      2  O   UNL     1       1.636  -1.366  -7.000  0.00  0.00    -0.150 OA
ATOM      3  O   UNL     1       2.264   0.501  -5.476  0.00  0.00    -0.150 OA
ENDROOT
BRANCH   1   4
ATOM      4  C   UNL     1       3.573  -1.697  -5.359  0.00  0.00    +0.136 A 
ATOM      5  C   UNL     1       4.468  -1.120  -4.475  0.00  0.00    +0.047 A 
ATOM      6  C   UNL     1       5.658  -1.757  -4.180  0.00  0.00    +0.040 A 
ATOM      7  C   UNL     1       5.957  -2.977  -4.773  0.00  0.00    +0.027 A 
ATOM      8  C   UNL     1       5.057  -3.554  -5.660  0.00  0.00    +0.040 A 
ATOM      9  C   UNL     1       3.865  -2.915  -5.947  0.00  0.00    +0.047 A 
ATOM     10 BR   UNL     1       2.636  -3.702  -7.149  0.00  0.00    -0.048 Br
ATOM     11 BR   UNL     1       4.061   0.541  -3.668  0.00  0.00    -0.048 Br
BRANCH   7  12
ATOM     12  N   UNL     1       7.160  -3.623  -4.478  0.00  0.00    -0.358 N 
ATOM     13  H   UNL     1       7.787  -3.219  -3.859  0.00  0.00    +0.142 HD
ATOM     14  H   UNL     1       7.367  -4.475  -4.893  0.00  0.00    +0.142 HD
ENDBRANCH   7  12
ENDBRANCH   1   4
BRANCH   1  15
ATOM     15  N   UNL     1       0.936  -1.404  -4.630  0.00  0.00    -0.213 N 
ATOM     16  H   UNL     1       0.170  -1.921  -4.925  0.00  0.00    +0.174 HD
BRANCH  15  19
ATOM     17  N   UNL     1       0.688  -0.476  -1.203  0.00  0.00    -0.267 N 
ATOM     18  C   UNL     1       0.125  -0.649  -2.429  0.00  0.00    +0.133 A 
ATOM     19  C   UNL     1       1.095  -1.097  -3.265  0.00  0.00    +0.085 A 
ATOM     20  C   UNL     1       2.284  -1.202  -2.529  0.00  0.00    +0.158 A 
ATOM     21  N   UNL     1       2.041  -0.825  -1.299  0.00  0.00    -0.177 NA
BRANCH  17  23
ATOM     22  C   UNL     1      -0.019   1.526   0.010  0.00  0.00    +0.032 C 
ATOM     23  C   UNL     1       0.002  -0.004   0.002  0.00  0.00    +0.101 C 
ATOM     24  C   UNL     1      -1.433  -0.534   0.013  0.00  0.00    +0.032 C 
ENDBRANCH  17  23
ENDBRANCH  15  19
ENDBRANCH   1  15
TORSDOF 5
