REMARK  Name = ZINC01273998
REMARK  8 active torsions:
REMARK  status: ('A' for Active; 'I' for Inactive)
REMARK    1  A    between atoms: C_1  and  C_2
REMARK    2  A    between atoms: C_5  and  S_9
REMARK    3  A    between atoms: C_7  and  C_8
REMARK    4  A    between atoms: S_9  and  C_12
REMARK    5  A    between atoms: N_23  and  N_26
REMARK    6  A    between atoms: C_24  and  N_25
REMARK    7  A    between atoms: C_27  and  C_28
REMARK    8  A    between atoms: C_32  and  O_34
REMARK                            x       y       z     vdW  Elec       q    Type
REMARK                         _______ _______ _______ _____ _____    ______ ____
ROOT
ATOM      1  C   UNL     1      -1.276   9.464  -0.715  0.00  0.00    +0.162 A 
ATOM      2  C   UNL     1      -1.264   9.539   0.699  0.00  0.00    +0.137 A 
ATOM      3  C   UNL     1      -1.242   8.151   1.177  0.00  0.00    +0.184 A 
ATOM      4  N   UNL     1      -1.231   7.907   2.468  0.00  0.00    -0.224 NA
ATOM      5  C   UNL     1      -1.244   8.924   3.339  0.00  0.00    +0.092 A 
ATOM      6  C   UNL     1      -1.233   8.671   4.723  0.00  0.00    +0.030 A 
ATOM      7  C   UNL     1      -1.247   9.710   5.601  0.00  0.00    +0.002 A 
ATOM      8  C   UNL     1      -1.272  11.029   5.151  0.00  0.00    +0.002 A 
ATOM      9  C   UNL     1      -1.283  11.313   3.821  0.00  0.00    +0.030 A 
ATOM     10  C   UNL     1      -1.269  10.265   2.881  0.00  0.00    +0.090 A 
ATOM     11  N   UNL     1      -1.273  10.535   1.571  0.00  0.00    -0.240 NA
ATOM     12  N   UNL     1      -1.233   7.354   0.049  0.00  0.00    -0.197 N 
ATOM     13  C   UNL     1      -1.257   8.157  -1.067  0.00  0.00    +0.148 A 
ENDROOT
BRANCH   1  14
ATOM     14  S   UNL     1      -1.309  10.833  -1.823  0.00  0.00    +0.030 S 
ATOM     15  O   UNL     1      -0.770  11.941  -1.116  0.00  0.00    -0.164 OA
ATOM     16  O   UNL     1      -0.762  10.374  -3.052  0.00  0.00    -0.164 OA
BRANCH  14  21
ATOM     17  C   UNL     1      -7.105  12.125  -2.892  0.00  0.00    +0.044 C 
ATOM     18  C   UNL     1      -5.658  11.802  -2.625  0.00  0.00    -0.047 A 
ATOM     19  C   UNL     1      -4.997  12.407  -1.572  0.00  0.00    +0.005 A 
ATOM     20  C   UNL     1      -3.670  12.111  -1.327  0.00  0.00    +0.027 A 
ATOM     21  C   UNL     1      -3.002  11.210  -2.135  0.00  0.00    +0.094 A 
ATOM     22  C   UNL     1      -3.660  10.609  -3.192  0.00  0.00    +0.031 A 
ATOM     23  C   UNL     1      -4.990  10.902  -3.434  0.00  0.00    -0.046 A 
ATOM     24  C   UNL     1      -5.709  10.243  -4.583  0.00  0.00    +0.044 C 
ENDBRANCH  14  21
ENDBRANCH   1  14
BRANCH  13  25
ATOM     25  N   UNL     1      -1.262   7.693  -2.371  0.00  0.00    -0.341 N 
ATOM     26  H   UNL     1      -1.248   6.739  -2.546  0.00  0.00    +0.144 HD
ATOM     27  H   UNL     1      -1.280   8.321  -3.109  0.00  0.00    +0.144 HD
ENDBRANCH  13  25
BRANCH  12  28
ATOM     28  N   UNL     1      -1.210   5.953   0.042  0.00  0.00    -0.171 NA
ATOM     29  C   UNL     1      -0.076   5.323   0.029  0.00  0.00    +0.141 C 
BRANCH  29  30
ATOM     30  C   UNL     1      -0.051   3.849   0.022  0.00  0.00    -0.002 A 
ATOM     31  C   UNL     1      -1.248   3.127   0.030  0.00  0.00    +0.010 A 
ATOM     32  C   UNL     1      -1.221   1.748   0.017  0.00  0.00    +0.004 A 
ATOM     33  C   UNL     1      -0.013   1.076   0.008  0.00  0.00    +0.045 A 
ATOM     34  C   UNL     1       1.182   1.784   0.000  0.00  0.00    +0.117 A 
ATOM     35  C   UNL     1       1.167   3.168   0.007  0.00  0.00    +0.055 A 
BRANCH  34  36
ATOM     36  O   UNL     1       2.366   1.117  -0.014  0.00  0.00    -0.507 OA
ATOM     37  H   UNL     1       2.700   0.928  -0.902  0.00  0.00    +0.292 HD
ENDBRANCH  34  36
ENDBRANCH  29  30
ENDBRANCH  12  28
TORSDOF 6
