REMARK  Name = ZINC45526915
REMARK  11 active torsions:
REMARK  status: ('A' for Active; 'I' for Inactive)
REMARK    1  A    between atoms: C_1  and  C_2
REMARK    2  A    between atoms: C_3  and  N_15
REMARK    3  A    between atoms: N_6  and  C_9
REMARK    4  A    between atoms: N_7  and  C_8
REMARK    5  A    between atoms: C_16  and  C_18
REMARK    6  A    between atoms: C_18  and  S_19
REMARK    7  A    between atoms: S_19  and  C_20
REMARK    8  A    between atoms: N_24  and  C_25
REMARK    9  A    between atoms: C_28  and  C_31
REMARK   10  A    between atoms: C_31  and  C_32
REMARK   11  A    between atoms: C_31  and  C_33
REMARK                            x       y       z     vdW  Elec       q    Type
REMARK                         _______ _______ _______ _____ _____    ______ ____
ROOT
ATOM      1  N   UNL     1       0.122  -0.219  -2.458  0.00  0.00    -0.279 N 
ATOM      2  C   UNL     1       0.643  -0.894  -3.501  0.00  0.00    +0.228 C 
ATOM      3  O   UNL     1       1.158  -1.978  -3.326  0.00  0.00    -0.275 OA
ATOM      4  H   UNL     1      -0.225   0.678  -2.585  0.00  0.00    +0.155 HD
ENDROOT
BRANCH   1   7
ATOM      5  C   UNL     1      -2.433  -0.669  -0.820  0.00  0.00    +0.067 C 
ATOM      6  C   UNL     1      -1.022  -1.031  -0.432  0.00  0.00    +0.059 A 
ATOM      7  C   UNL     1       0.082  -0.816  -1.182  0.00  0.00    +0.121 A 
ATOM      8  C   UNL     1       1.227  -1.319  -0.422  0.00  0.00    +0.293 A 
ATOM      9  O   UNL     1       2.393  -1.300  -0.771  0.00  0.00    -0.264 OA
ATOM     10  N   UNL     1       0.744  -1.806   0.740  0.00  0.00    -0.216 N 
ATOM     11  N   UNL     1      -0.644  -1.627   0.742  0.00  0.00    -0.282 N 
ATOM     12  C   UNL     1      -1.549  -2.016   1.826  0.00  0.00    +0.171 C 
BRANCH  10  13
ATOM     13  C   UNL     1       1.499  -2.385   1.764  0.00  0.00    +0.067 A 
ATOM     14  C   UNL     1       1.100  -3.592   2.325  0.00  0.00    +0.028 A 
ATOM     15  C   UNL     1       1.848  -4.161   3.337  0.00  0.00    +0.002 A 
ATOM     16  C   UNL     1       2.992  -3.531   3.792  0.00  0.00    +0.000 A 
ATOM     17  C   UNL     1       3.391  -2.330   3.235  0.00  0.00    +0.002 A 
ATOM     18  C   UNL     1       2.651  -1.758   2.219  0.00  0.00    +0.028 A 
ENDBRANCH  10  13
ENDBRANCH   1   7
BRANCH   2  19
ATOM     19  C   UNL     1       0.587  -0.301  -4.886  0.00  0.00    +0.173 C 
BRANCH  19  20
ATOM     20  S   UNL     1       1.365  -1.441  -6.064  0.00  0.00    -0.076 S 
BRANCH  20  21
ATOM     21  C   UNL     1       1.220  -0.616  -7.614  0.00  0.00    +0.196 A 
ATOM     22  N   UNL     1       0.673   0.559  -7.825  0.00  0.00    -0.122 NA
ATOM     23  N   UNL     1       0.740   0.854  -9.074  0.00  0.00    -0.137 NA
ATOM     24  C   UNL     1       1.329  -0.105  -9.732  0.00  0.00    +0.230 A 
ATOM     25  N   UNL     1       1.662  -1.075  -8.824  0.00  0.00    -0.277 N 
BRANCH  25  26
ATOM     26  C   UNL     1       2.317  -2.288  -9.083  0.00  0.00    +0.050 A 
ATOM     27  C   UNL     1       3.411  -2.665  -8.316  0.00  0.00    +0.026 A 
ATOM     28  C   UNL     1       4.054  -3.860  -8.573  0.00  0.00    +0.006 A 
ATOM     29  C   UNL     1       3.609  -4.681  -9.592  0.00  0.00    -0.045 A 
ATOM     30  C   UNL     1       2.519  -4.309 -10.358  0.00  0.00    +0.006 A 
ATOM     31  C   UNL     1       1.869  -3.117 -10.102  0.00  0.00    +0.026 A 
BRANCH  29  32
ATOM     32  C   UNL     1       4.313  -5.984  -9.870  0.00  0.00    +0.013 C 
ATOM     33  C   UNL     1       3.328  -7.142  -9.700  0.00  0.00    +0.012 C 
ATOM     34  C   UNL     1       4.851  -5.978 -11.303  0.00  0.00    +0.012 C 
ENDBRANCH  29  32
ENDBRANCH  25  26
ENDBRANCH  20  21
ENDBRANCH  19  20
ENDBRANCH   2  19
TORSDOF 7
