REMARK  Name = ZINC64871056
REMARK  4 active torsions:
REMARK  status: ('A' for Active; 'I' for Inactive)
REMARK    1  A    between atoms: C_5  and  C_7
REMARK    2  A    between atoms: C_7  and  N_8
REMARK    3  A    between atoms: C_14  and  C_21
REMARK    4  A    between atoms: C_24  and  C_28
REMARK                            x       y       z     vdW  Elec       q    Type
REMARK                         _______ _______ _______ _____ _____    ______ ____
ROOT
ATOM      1  N   UNL     1       1.606  -2.677   1.306  0.00  0.00    -0.256 N 
ATOM      2  C   UNL     1       2.914  -2.780   1.627  0.00  0.00    +0.265 A 
ATOM      3  O   UNL     1       3.778  -2.471   0.829  0.00  0.00    -0.267 OA
ATOM      4  C   UNL     1       3.267  -3.276   2.969  0.00  0.00    +0.063 A 
ATOM      5  C   UNL     1       4.592  -3.411   3.376  0.00  0.00    +0.016 A 
ATOM      6  C   UNL     1       4.870  -3.879   4.643  0.00  0.00    +0.008 A 
ATOM      7  C   UNL     1       3.840  -4.216   5.508  0.00  0.00    -0.000 A 
ATOM      8  C   UNL     1       2.522  -4.087   5.117  0.00  0.00    +0.034 A 
ATOM      9  C   UNL     1       2.224  -3.617   3.847  0.00  0.00    +0.056 A 
ATOM     10  N   UNL     1       0.913  -3.473   3.415  0.00  0.00    -0.307 N 
ATOM     11  H   UNL     1       0.183  -3.704   4.011  0.00  0.00    +0.170 HD
ATOM     12  C   UNL     1       0.645  -3.010   2.182  0.00  0.00    +0.330 A 
ATOM     13  O   UNL     1      -0.516  -2.894   1.844  0.00  0.00    -0.246 OA
ENDROOT
BRANCH   7  14
ATOM     14  C   UNL     1       4.163  -4.727   6.888  0.00  0.00    +0.242 C 
ATOM     15  N   UNL     1       5.478  -5.419   6.889  0.00  0.00    -0.265 NA
ATOM     16  C   UNL     1       5.896  -5.322   8.313  0.00  0.00    +0.180 C 
ATOM     17  N   UNL     1       5.412  -3.984   8.728  0.00  0.00    -0.177 NA
ATOM     18  O   UNL     1       4.321  -3.629   7.805  0.00  0.00    -0.274 OA
ATOM     19  H   UNL     1       5.379  -6.383   6.607  0.00  0.00    +0.127 HD
ATOM     20  H   UNL     1       5.086  -3.997   9.682  0.00  0.00    +0.156 HD
BRANCH  16  21
ATOM     21  C   UNL     1       7.396  -5.406   8.432  0.00  0.00    -0.010 A 
ATOM     22  C   UNL     1       8.122  -6.130   7.505  0.00  0.00    +0.010 A 
ATOM     23  C   UNL     1       9.498  -6.210   7.609  0.00  0.00    +0.050 A 
ATOM     24  C   UNL     1      10.153  -5.564   8.645  0.00  0.00    +0.166 A 
ATOM     25  C   UNL     1       9.422  -4.835   9.579  0.00  0.00    +0.167 A 
ATOM     26  C   UNL     1       8.044  -4.755   9.465  0.00  0.00    +0.056 A 
ATOM     27  O   UNL     1      10.288  -4.300  10.489  0.00  0.00    -0.453 OA
ATOM     28  C   UNL     1      11.512  -5.044  10.339  0.00  0.00    +0.466 C 
ATOM     29  O   UNL     1      11.477  -5.487   8.969  0.00  0.00    -0.453 OA
ENDBRANCH  16  21
ENDBRANCH   7  14
BRANCH   1  30
ATOM     30  C   UNL     1       1.229  -2.186  -0.022  0.00  0.00    +0.166 C 
BRANCH  30  35
ATOM     31  C   UNL     1      -0.692   1.046   0.319  0.00  0.00    +0.000 A 
ATOM     32  C   UNL     1       0.319   1.982   0.206  0.00  0.00    +0.001 A 
ATOM     33  C   UNL     1       1.625   1.570   0.019  0.00  0.00    +0.020 A 
ATOM     34  C   UNL     1       1.920   0.220  -0.055  0.00  0.00    +0.046 A 
ATOM     35  C   UNL     1       0.908  -0.716   0.059  0.00  0.00    -0.009 A 
ATOM     36  C   UNL     1      -0.398  -0.302   0.245  0.00  0.00    +0.007 A 
ATOM     37 CL   UNL     1       3.560  -0.298  -0.290  0.00  0.00    -0.083 Cl
ENDBRANCH  30  35
ENDBRANCH   1  30
TORSDOF 4
