REMARK  Name = ZINC20134742
REMARK  2 active torsions:
REMARK  status: ('A' for Active; 'I' for Inactive)
REMARK    1  A    between atoms: C_5  and  N_15
REMARK    2  A    between atoms: C_6  and  C_7
REMARK                            x       y       z     vdW  Elec       q    Type
REMARK                         _______ _______ _______ _____ _____    ______ ____
ROOT
ATOM      1  C   UNL     1       1.567   6.145   0.267  0.00  0.00    +0.027 A 
ATOM      2  C   UNL     1       1.555   7.519   0.137  0.00  0.00    +0.020 A 
ATOM      3  C   UNL     1       0.364   8.189  -0.085  0.00  0.00    +0.032 A 
ATOM      4  C   UNL     1      -0.824   7.489  -0.183  0.00  0.00    +0.040 A 
ATOM      5  C   UNL     1      -0.828   6.106  -0.059  0.00  0.00    +0.049 A 
ATOM      6  C   UNL     1       0.377   5.426   0.165  0.00  0.00    +0.032 A 
ATOM      7 BR   UNL     1      -2.444   8.415  -0.486  0.00  0.00    -0.048 Br
ATOM      8 BR   UNL     1       3.172   8.491   0.269  0.00  0.00    -0.050 Br
ENDROOT
BRANCH   6   9
ATOM      9  C   UNL     1       0.384   3.953   0.298  0.00  0.00    +0.134 A 
ATOM     10  N   UNL     1       1.377   3.161   0.615  0.00  0.00    -0.156 NA
ATOM     11  N   UNL     1       1.202   1.786   0.695  0.00  0.00    -0.193 N 
ATOM     12  C   UNL     1       1.926   0.646   0.977  0.00  0.00    +0.249 A 
ATOM     13  N   UNL     1       1.126  -0.378   0.871  0.00  0.00    -0.135 NA
ATOM     14  N   UNL     1      -0.054   0.018   0.541  0.00  0.00    -0.121 NA
ATOM     15  C   UNL     1      -0.058   1.311   0.424  0.00  0.00    +0.218 A 
ATOM     16  S   UNL     1      -0.960   2.799   0.072  0.00  0.00    -0.026 S 
ENDBRANCH   6   9
BRANCH   5  17
ATOM     17  N   UNL     1      -2.025   5.398  -0.158  0.00  0.00    -0.357 N 
ATOM     18  H   UNL     1      -2.025   4.303  -0.060  0.00  0.00    +0.142 HD
ATOM     19  H   UNL     1      -2.968   5.935  -0.333  0.00  0.00    +0.142 HD
ENDBRANCH   5  17
TORSDOF 2
