REMARK  Name = ZINC33958688
REMARK  11 active torsions:
REMARK  status: ('A' for Active; 'I' for Inactive)
REMARK    1  A    between atoms: C_1  and  C_2
REMARK    2  A    between atoms: C_3  and  N_32
REMARK    3  A    between atoms: C_4  and  C_31
REMARK    4  A    between atoms: N_5  and  C_7
REMARK    5  A    between atoms: C_7  and  C_9
REMARK    6  A    between atoms: C_7  and  C_10
REMARK    7  A    between atoms: N_12  and  N_13
REMARK    8  A    between atoms: C_14  and  C_15
REMARK    9  A    between atoms: C_19  and  O_21
REMARK   10  A    between atoms: O_21  and  C_22
REMARK   11  A    between atoms: C_22  and  C_24
REMARK                            x       y       z     vdW  Elec       q    Type
REMARK                         _______ _______ _______ _____ _____    ______ ____
ROOT
ATOM      1  N   UNL     1       2.514  -4.169   4.193  0.00  0.00    -0.188 NA
ATOM      2  C   UNL     1       2.751  -5.126   5.037  0.00  0.00    +0.138 C 
ENDROOT
BRANCH   2   3
ATOM      3  C   UNL     1       4.014  -5.141   5.799  0.00  0.00    -0.002 A 
ATOM      4  C   UNL     1       4.954  -4.123   5.619  0.00  0.00    +0.010 A 
ATOM      5  C   UNL     1       6.133  -4.140   6.335  0.00  0.00    +0.004 A 
ATOM      6  C   UNL     1       6.389  -5.162   7.230  0.00  0.00    +0.046 A 
ATOM      7  C   UNL     1       5.461  -6.178   7.416  0.00  0.00    +0.133 A 
ATOM      8  C   UNL     1       4.271  -6.168   6.708  0.00  0.00    +0.055 A 
BRANCH   7   9
ATOM      9  O   UNL     1       5.719  -7.180   8.297  0.00  0.00    -0.422 OA
BRANCH   9  10
ATOM     10  C   UNL     1       5.952  -8.412   7.804  0.00  0.00    +0.346 C 
ATOM     11  O   UNL     1       6.031  -8.581   6.603  0.00  0.00    -0.244 OA
BRANCH  10  12
ATOM     12  C   UNL     1       6.111  -9.558   8.722  0.00  0.00    +0.073 A 
ATOM     13  C   UNL     1       6.014  -9.369  10.103  0.00  0.00    +0.016 A 
ATOM     14  C   UNL     1       6.163 -10.443  10.955  0.00  0.00    +0.001 A 
ATOM     15  C   UNL     1       6.409 -11.706  10.445  0.00  0.00    +0.001 A 
ATOM     16  C   UNL     1       6.506 -11.902   9.080  0.00  0.00    +0.016 A 
ATOM     17  C   UNL     1       6.352 -10.837   8.214  0.00  0.00    +0.032 A 
ATOM     18 BR   UNL     1       6.476 -11.107   6.346  0.00  0.00    -0.049 Br
ENDBRANCH  10  12
ENDBRANCH   9  10
ENDBRANCH   7   9
ENDBRANCH   2   3
BRANCH   1  21
ATOM     19  C   UNL     1       1.069  -3.161   2.592  0.00  0.00    +0.256 C 
ATOM     20  O   UNL     1       1.886  -2.279   2.430  0.00  0.00    -0.272 OA
ATOM     21  N   UNL     1       1.315  -4.155   3.469  0.00  0.00    -0.205 N 
ATOM     22  H   UNL     1       0.662  -4.860   3.598  0.00  0.00    +0.177 HD
BRANCH  19  23
ATOM     23  C   UNL     1      -0.221  -3.146   1.813  0.00  0.00    +0.191 C 
ATOM     24  C   UNL     1      -1.402  -3.084   2.783  0.00  0.00    +0.042 C 
BRANCH  23  29
ATOM     25  C   UNL     1      -0.184   1.628   0.263  0.00  0.00    +0.070 C 
ATOM     26  C   UNL     1      -0.230   0.122   0.280  0.00  0.00    +0.090 A 
ATOM     27  C   UNL     1      -0.336  -0.708  -0.841  0.00  0.00    +0.169 A 
ATOM     28  C   UNL     1      -0.345  -1.991  -0.410  0.00  0.00    +0.067 A 
ATOM     29  N   UNL     1      -0.248  -1.973   0.935  0.00  0.00    -0.254 N 
ATOM     30  N   UNL     1      -0.171  -0.636   1.345  0.00  0.00    -0.173 NA
ATOM     31  C   UNL     1      -0.447  -3.219  -1.278  0.00  0.00    +0.068 C 
BRANCH  27  32
ATOM     32  N   UNL     1      -0.425  -0.262  -2.250  0.00  0.00    +0.060 N 
ATOM     33  O   UNL     1       0.583  -0.112  -2.901  0.00  0.00    -0.126 OA
ATOM     34  O   UNL     1      -1.505  -0.048  -2.749  0.00  0.00    -0.126 OA
ENDBRANCH  27  32
ENDBRANCH  23  29
ENDBRANCH  19  23
ENDBRANCH   1  21
TORSDOF 8
