REMARK  Name = ZINC13358598
REMARK  9 active torsions:
REMARK  status: ('A' for Active; 'I' for Inactive)
REMARK    1  A    between atoms: C_1  and  S_2
REMARK    2  A    between atoms: S_2  and  C_3
REMARK    3  A    between atoms: C_3  and  C_4
REMARK    4  A    between atoms: C_4  and  C_5
REMARK    5  A    between atoms: C_5  and  C_7
REMARK    6  A    between atoms: C_5  and  N_9
REMARK    7  A    between atoms: N_9  and  S_10
REMARK    8  A    between atoms: S_10  and  C_13
REMARK    9  A    between atoms: C_17  and  C_19
REMARK                            x       y       z     vdW  Elec       q    Type
REMARK                         _______ _______ _______ _____ _____    ______ ____
ROOT
ATOM      1  S   UNL     1       0.118  -3.922   1.237  0.00  0.00    +0.059 S 
ATOM      2  O   UNL     1       0.574  -4.115   2.569  0.00  0.00    -0.153 OA
ATOM      3  O   UNL     1      -0.624  -4.909   0.535  0.00  0.00    -0.153 OA
ENDROOT
BRANCH   1   4
ATOM      4  C   UNL     1       1.545  -3.576   0.262  0.00  0.00    +0.106 A 
ATOM      5  C   UNL     1       1.529  -3.829  -1.099  0.00  0.00    +0.029 A 
ATOM      6  C   UNL     1       2.642  -3.556  -1.873  0.00  0.00    +0.018 A 
ATOM      7  C   UNL     1       3.782  -3.040  -1.290  0.00  0.00    +0.032 A 
ATOM      8  C   UNL     1       3.807  -2.788   0.084  0.00  0.00    +0.079 A 
ATOM      9  C   UNL     1       2.676  -3.061   0.858  0.00  0.00    +0.044 A 
ATOM     10 BR   UNL     1       5.306  -2.674  -2.348  0.00  0.00    -0.049 Br
BRANCH   8  11
ATOM     11  C   UNL     1       5.022  -2.235   0.715  0.00  0.00    +0.388 C 
ATOM     12  O   UNL     1       6.003  -1.998   0.040  0.00  0.00    -0.241 OA
ATOM     13  O   UNL     1       5.042  -1.992   2.041  0.00  0.00    -0.241 OA
ENDBRANCH   8  11
ENDBRANCH   1   4
BRANCH   1  14
ATOM     14  N   UNL     1      -0.810  -2.550   1.248  0.00  0.00    -0.176 NA
ATOM     15  H   UNL     1      -0.956  -2.070   2.078  0.00  0.00    +0.149 HD
BRANCH  14  16
ATOM     16  C   UNL     1      -1.413  -2.063   0.004  0.00  0.00    +0.190 C 
BRANCH  16  17
ATOM     17  C   UNL     1      -2.822  -2.584  -0.109  0.00  0.00    +0.374 C 
ATOM     18  O   UNL     1      -3.277  -3.290   0.760  0.00  0.00    -0.245 OA
ATOM     19  O   UNL     1      -3.572  -2.264  -1.175  0.00  0.00    -0.245 OA
ENDBRANCH  16  17
BRANCH  16  20
ATOM     20  C   UNL     1      -1.433  -0.534   0.013  0.00  0.00    +0.042 C 
BRANCH  20  21
ATOM     21  C   UNL     1       0.002  -0.004   0.002  0.00  0.00    +0.071 C 
BRANCH  21  23
ATOM     22  C   UNL     1       1.731   2.272  -0.002  0.00  0.00    +0.084 C 
ATOM     23  S   UNL     1      -0.022   1.810   0.012  0.00  0.00    -0.164 S 
ENDBRANCH  21  23
ENDBRANCH  20  21
ENDBRANCH  16  20
ENDBRANCH  14  16
ENDBRANCH   1  14
TORSDOF 8
