REMARK  Name = ZINC39923042
REMARK  7 active torsions:
REMARK  status: ('A' for Active; 'I' for Inactive)
REMARK    1  A    between atoms: C_3  and  C_8
REMARK    2  A    between atoms: N_9  and  N_10
REMARK    3  A    between atoms: C_11  and  C_13
REMARK    4  A    between atoms: C_16  and  C_19
REMARK    5  A    between atoms: C_22  and  O_25
REMARK    6  A    between atoms: O_25  and  C_26
REMARK    7  A    between atoms: C_26  and  C_27
REMARK                            x       y       z     vdW  Elec       q    Type
REMARK                         _______ _______ _______ _____ _____    ______ ____
ROOT
ATOM      1  C   UNL     1       5.988  -2.039   0.235  0.00  0.00    +0.240 C 
ATOM      2  C   UNL     1       6.040  -2.567  -1.187  0.00  0.00    +0.041 C 
ATOM      3  C   UNL     1       7.202  -3.246  -1.237  0.00  0.00    +0.092 C 
ATOM      4  N   UNL     1       7.838  -3.187  -0.038  0.00  0.00    -0.153 NA
ATOM      5  N   UNL     1       7.237  -2.543   0.830  0.00  0.00    -0.170 NA
ENDROOT
BRANCH   3   6
ATOM      6  C   UNL     1       7.716  -3.958  -2.433  0.00  0.00    +0.002 A 
ATOM      7  C   UNL     1       6.983  -3.950  -3.619  0.00  0.00    +0.013 A 
ATOM      8  C   UNL     1       7.463  -4.612  -4.729  0.00  0.00    +0.046 A 
ATOM      9  C   UNL     1       8.675  -5.286  -4.667  0.00  0.00    +0.121 A 
ATOM     10  C   UNL     1       9.407  -5.296  -3.487  0.00  0.00    +0.046 A 
ATOM     11  C   UNL     1       8.935  -4.631  -2.375  0.00  0.00    +0.013 A 
BRANCH   9  12
ATOM     12  O   UNL     1       9.146  -5.939  -5.762  0.00  0.00    -0.487 OA
BRANCH  12  13
ATOM     13  C   UNL     1      10.399  -6.612  -5.628  0.00  0.00    +0.264 C 
BRANCH  13  14
ATOM     14  C   UNL     1      10.756  -7.273  -6.934  0.00  0.00    -0.010 A 
ATOM     15  C   UNL     1      10.344  -8.568  -7.189  0.00  0.00    +0.008 A 
ATOM     16  C   UNL     1      10.672  -9.175  -8.386  0.00  0.00    +0.020 A 
ATOM     17  C   UNL     1      11.412  -8.486  -9.331  0.00  0.00    +0.041 A 
ATOM     18  C   UNL     1      11.824  -7.190  -9.075  0.00  0.00    +0.020 A 
ATOM     19  C   UNL     1      11.491  -6.582  -7.879  0.00  0.00    +0.008 A 
ATOM     20 CL   UNL     1      11.825  -9.248 -10.835  0.00  0.00    -0.084 Cl
ENDBRANCH  13  14
ENDBRANCH  12  13
ENDBRANCH   9  12
ENDBRANCH   3   6
BRANCH   1  22
ATOM     21  N   UNL     1       4.805   0.126   0.055  0.00  0.00    -0.205 N 
ATOM     22  C   UNL     1       5.966  -0.532   0.243  0.00  0.00    +0.263 C 
ATOM     23  O   UNL     1       6.993   0.089   0.418  0.00  0.00    -0.271 OA
ATOM     24  H   UNL     1       3.983  -0.370  -0.085  0.00  0.00    +0.177 HD
BRANCH  21  26
ATOM     25  C   UNL     1       3.652   2.159   0.008  0.00  0.00    +0.138 C 
ATOM     26  N   UNL     1       4.784   1.527   0.062  0.00  0.00    -0.188 NA
BRANCH  25  29
ATOM     27  C   UNL     1       1.343  -0.240   1.739  0.00  0.00    +0.002 A 
ATOM     28  C   UNL     1       2.499   0.362   1.286  0.00  0.00    +0.009 A 
ATOM     29  C   UNL     1       2.421   1.510   0.495  0.00  0.00    -0.004 A 
ATOM     30  C   UNL     1       1.171   2.041   0.168  0.00  0.00    +0.024 A 
ATOM     31  C   UNL     1       0.023   1.429   0.628  0.00  0.00    +0.018 A 
ATOM     32  C   UNL     1       0.109   0.290   1.411  0.00  0.00    +0.015 A 
ATOM     33 BR   UNL     1      -1.670   2.146   0.186  0.00  0.00    -0.050 Br
ENDBRANCH  25  29
ENDBRANCH  21  26
ENDBRANCH   1  22
TORSDOF 7
