REMARK  Name = ZINC40983833
REMARK  14 active torsions:
REMARK  status: ('A' for Active; 'I' for Inactive)
REMARK    1  A    between atoms: C_1  and  C_2
REMARK    2  A    between atoms: C_2  and  O_3
REMARK    3  A    between atoms: O_3  and  C_4
REMARK    4  A    between atoms: C_7  and  C_12
REMARK    5  A    between atoms: C_9  and  O_10
REMARK    6  A    between atoms: O_10  and  C_11
REMARK    7  A    between atoms: C_14  and  C_18
REMARK    8  A    between atoms: C_15  and  C_17
REMARK    9  A    between atoms: C_18  and  N_19
REMARK   10  A    between atoms: C_22  and  C_25
REMARK   11  A    between atoms: C_31  and  C_34
REMARK   12  A    between atoms: C_34  and  O_36
REMARK   13  A    between atoms: O_36  and  C_37
REMARK   14  A    between atoms: C_37  and  C_38
REMARK                            x       y       z     vdW  Elec       q    Type
REMARK                         _______ _______ _______ _____ _____    ______ ____
ROOT
ATOM      1  N   UNL     1      -0.729  -9.912  -1.357  0.00  0.00    +0.383 N 
ATOM      2  C   UNL     1      -0.648 -10.182  -2.797  0.00  0.00    -0.078 C 
ATOM      3  C   UNL     1      -2.034 -10.558  -3.327  0.00  0.00    -0.006 C 
ATOM      4  C   UNL     1      -2.531 -11.810  -2.599  0.00  0.00    +0.072 C 
ATOM      5  C   UNL     1      -2.540 -11.541  -1.091  0.00  0.00    -0.006 C 
ATOM      6  C   UNL     1      -1.136 -11.129  -0.644  0.00  0.00    -0.078 C 
ATOM      7  H   UNL     1      -1.406  -9.184  -1.190  0.00  0.00    -0.081 HD
ENDROOT
BRANCH   4   8
ATOM      8  C   UNL     1      -3.927 -12.140  -3.060  0.00  0.00    +0.219 C 
ATOM      9  O   UNL     1      -4.884 -11.751  -2.424  0.00  0.00    -0.275 OA
ATOM     10  N   UNL     1      -4.112 -12.868  -4.179  0.00  0.00    -0.300 N 
ATOM     11  C   UNL     1      -2.966 -13.438  -4.900  0.00  0.00    +0.108 C 
ATOM     12  C   UNL     1      -3.039 -13.002  -6.366  0.00  0.00    +0.020 C 
ATOM     13  C   UNL     1      -4.402 -13.393  -6.943  0.00  0.00    +0.018 C 
ATOM     14  C   UNL     1      -5.510 -12.674  -6.170  0.00  0.00    +0.115 C 
ATOM     15  C   UNL     1      -5.465 -13.112  -4.698  0.00  0.00    +0.122 C 
BRANCH  14  16
ATOM     16  C   UNL     1      -6.849 -13.034  -6.760  0.00  0.00    +0.312 C 
ATOM     17  O   UNL     1      -7.684 -13.578  -6.077  0.00  0.00    -0.250 OA
BRANCH  16  18
ATOM     18  O   UNL     1      -7.114 -12.750  -8.045  0.00  0.00    -0.465 OA
BRANCH  18  19
ATOM     19  C   UNL     1      -8.404 -13.119  -8.538  0.00  0.00    +0.229 C 
ATOM     20  C   UNL     1      -8.521 -12.718 -10.010  0.00  0.00    +0.048 C 
ENDBRANCH  18  19
ENDBRANCH  16  18
ENDBRANCH  14  16
ENDBRANCH   4   8
BRANCH   1  21
ATOM     21  C   UNL     1       0.587  -9.477  -0.868  0.00  0.00    -0.019 C 
BRANCH  21  24
ATOM     22  C   UNL     1       1.140  -6.043  -1.857  0.00  0.00    +0.228 A 
ATOM     23  N   UNL     1       0.663  -6.943  -1.029  0.00  0.00    -0.216 NA
ATOM     24  C   UNL     1       0.951  -8.163  -1.508  0.00  0.00    +0.066 A 
ATOM     25  C   UNL     1       1.623  -8.004  -2.663  0.00  0.00    +0.124 A 
ATOM     26  O   UNL     1       1.735  -6.678  -2.881  0.00  0.00    -0.440 OA
ATOM     27  C   UNL     1       2.147  -9.103  -3.550  0.00  0.00    +0.088 C 
BRANCH  22  31
ATOM     28  C   UNL     1       0.835  -1.829  -1.382  0.00  0.00    +0.162 A 
ATOM     29  C   UNL     1       0.290  -2.676  -0.428  0.00  0.00    +0.050 A 
ATOM     30  C   UNL     1       0.387  -4.043  -0.579  0.00  0.00    +0.017 A 
ATOM     31  C   UNL     1       1.034  -4.578  -1.694  0.00  0.00    +0.041 A 
ATOM     32  C   UNL     1       1.583  -3.726  -2.655  0.00  0.00    +0.062 A 
ATOM     33  C   UNL     1       1.477  -2.357  -2.501  0.00  0.00    +0.162 A 
BRANCH  33  34
ATOM     34  O   UNL     1       2.004  -1.524  -3.438  0.00  0.00    -0.491 OA
ATOM     35  C   UNL     1       2.648  -2.133  -4.558  0.00  0.00    +0.277 C 
ENDBRANCH  33  34
BRANCH  28  36
ATOM     36  O   UNL     1       0.737  -0.482  -1.229  0.00  0.00    -0.489 OA
BRANCH  36  38
ATOM     37  C   UNL     1       0.055   1.520  -0.060  0.00  0.00    +0.048 C 
ATOM     38  C   UNL     1       0.066  -0.010  -0.059  0.00  0.00    +0.226 C 
ENDBRANCH  36  38
ENDBRANCH  28  36
ENDBRANCH  22  31
ENDBRANCH  21  24
ENDBRANCH   1  21
TORSDOF 10
