REMARK  Name = ZINC49490803
REMARK  7 active torsions:
REMARK  status: ('A' for Active; 'I' for Inactive)
REMARK    1  A    between atoms: N_9  and  C_11
REMARK    2  A    between atoms: C_11  and  C_13
REMARK    3  A    between atoms: C_11  and  C_26
REMARK    4  A    between atoms: C_13  and  N_14
REMARK    5  A    between atoms: C_15  and  C_17
REMARK    6  A    between atoms: N_19  and  C_20
REMARK    7  A    between atoms: C_20  and  C_21
REMARK                            x       y       z     vdW  Elec       q    Type
REMARK                         _______ _______ _______ _____ _____    ______ ____
ROOT
ATOM      1  C   UNL     1       4.715  -2.742   0.450  0.00  0.00    +0.140 C 
ENDROOT
BRANCH   1  10
ATOM      2  C   UNL     1      -1.267  -0.793   1.766  0.00  0.00    +0.000 A 
ATOM      3  C   UNL     1      -1.291  -1.560   0.616  0.00  0.00    +0.000 A 
ATOM      4  C   UNL     1      -0.130  -2.150   0.159  0.00  0.00    +0.005 A 
ATOM      5  C   UNL     1       1.062  -1.978   0.847  0.00  0.00    -0.030 A 
ATOM      6  C   UNL     1       1.086  -1.210   1.991  0.00  0.00    -0.042 A 
ATOM      7  C   UNL     1      -0.081  -0.620   2.451  0.00  0.00    +0.004 A 
ATOM      8  C   UNL     1       2.360  -0.984   2.765  0.00  0.00    +0.051 C 
ATOM      9  C   UNL     1       3.408  -2.019   2.359  0.00  0.00    +0.090 C 
ATOM     10  N   UNL     1       3.503  -2.038   0.891  0.00  0.00    -0.287 NA
ATOM     11  C   UNL     1       2.301  -2.646   0.312  0.00  0.00    +0.120 C 
ENDBRANCH   1  10
BRANCH   1  12
ATOM     12  C   UNL     1       4.691  -4.156   0.972  0.00  0.00    +0.123 A 
ATOM     13  C   UNL     1       5.086  -5.250   0.296  0.00  0.00    +0.046 A 
ATOM     14  C   UNL     1       4.893  -6.355   1.157  0.00  0.00    +0.041 A 
ATOM     15  C   UNL     1       4.391  -5.870   2.307  0.00  0.00    +0.195 A 
ATOM     16  O   UNL     1       4.276  -4.537   2.191  0.00  0.00    -0.466 OA
ENDBRANCH   1  12
BRANCH   1  17
ATOM     17  C   UNL     1       5.950  -2.020   0.992  0.00  0.00    +0.131 C 
BRANCH  17  18
ATOM     18  N   UNL     1       5.923  -0.619   0.565  0.00  0.00    -0.306 N 
ATOM     19  C   UNL     1       6.860   0.240   1.012  0.00  0.00    +0.299 C 
ATOM     20  O   UNL     1       7.727  -0.147   1.767  0.00  0.00    -0.265 OA
ATOM     21  H   UNL     1       5.230  -0.309  -0.039  0.00  0.00    +0.149 HD
BRANCH  19  22
ATOM     22  C   UNL     1       6.832   1.669   0.576  0.00  0.00    +0.299 C 
ATOM     23  O   UNL     1       5.965   2.057  -0.179  0.00  0.00    -0.265 OA
ATOM     24  N   UNL     1       7.770   2.528   1.023  0.00  0.00    -0.303 N 
ATOM     25  H   UNL     1       8.463   2.219   1.627  0.00  0.00    +0.149 HD
BRANCH  24  26
ATOM     26  C   UNL     1       7.742   3.930   0.596  0.00  0.00    +0.140 C 
BRANCH  26  27
ATOM     27  C   UNL     1       8.890   4.671   1.233  0.00  0.00    -0.023 A 
ATOM     28  C   UNL     1       8.734   5.282   2.463  0.00  0.00    +0.013 A 
ATOM     29  C   UNL     1       9.786   5.941   3.008  0.00  0.00    +0.045 A 
ATOM     30  S   UNL     1      11.049   5.709   1.768  0.00  0.00    -0.105 S 
ATOM     31  C   UNL     1      10.091   4.744   0.610  0.00  0.00    +0.050 A 
ENDBRANCH  26  27
ENDBRANCH  24  26
ENDBRANCH  19  22
ENDBRANCH  17  18
ENDBRANCH   1  17
TORSDOF 7
