REMARK  Name = ZINC09309536
REMARK  15 active torsions:
REMARK  status: ('A' for Active; 'I' for Inactive)
REMARK    1  A    between atoms: C_1  and  C_2
REMARK    2  A    between atoms: C_2  and  N_70
REMARK    3  A    between atoms: C_3  and  C_4
REMARK    4  A    between atoms: C_3  and  N_70
REMARK    5  A    between atoms: C_5  and  C_6
REMARK    6  A    between atoms: C_5  and  N_70
REMARK    7  A    between atoms: C_6  and  N_7
REMARK    8  A    between atoms: C_14  and  C_18
REMARK    9  A    between atoms: C_18  and  C_19
REMARK   10  A    between atoms: C_19  and  C_20
REMARK   11  A    between atoms: C_19  and  C_21
REMARK   12  A    between atoms: C_24  and  C_26
REMARK   13  A    between atoms: C_24  and  C_27
REMARK   14  A    between atoms: C_29  and  S_31
REMARK   15  A    between atoms: S_31  and  C_32
REMARK                            x       y       z     vdW  Elec       q    Type
REMARK                         _______ _______ _______ _____ _____    ______ ____
ROOT
ATOM      1  N   UNL     1      -1.248   4.353  -0.136  0.00  0.00    -0.330 N 
ATOM      2  C   UNL     1      -1.599   3.116  -0.653  0.00  0.00    +0.138 A 
ATOM      3  C   UNL     1      -0.626   2.228  -1.093  0.00  0.00    +0.080 A 
ATOM      4  C   UNL     1      -0.974   0.978  -1.617  0.00  0.00    +0.094 A 
ATOM      5  C   UNL     1       0.149   0.127  -2.055  0.00  0.00    +0.037 A 
ATOM      6  C   UNL     1       0.084  -1.169  -2.615  0.00  0.00    -0.026 A 
ATOM      7  C   UNL     1       1.246  -1.809  -2.967  0.00  0.00    +0.003 A 
ATOM      8  C   UNL     1       2.470  -1.182  -2.766  0.00  0.00    +0.048 A 
ATOM      9  N   UNL     1       2.525   0.026  -2.241  0.00  0.00    -0.244 NA
ATOM     10  C   UNL     1       1.434   0.674  -1.893  0.00  0.00    +0.111 A 
ATOM     11  S   UNL     1       1.143   2.274  -1.179  0.00  0.00    -0.064 S 
ATOM     12  C   UNL     1       1.228  -3.188  -3.577  0.00  0.00    +0.197 C 
ATOM     13  O   UNL     1      -0.042  -3.804  -3.361  0.00  0.00    -0.369 OA
ATOM     14  C   UNL     1      -1.145  -2.988  -3.771  0.00  0.00    +0.068 C 
ATOM     15  C   UNL     1      -1.264  -1.810  -2.800  0.00  0.00    +0.070 C 
ATOM     16  C   UNL     1      -0.897  -2.463  -5.187  0.00  0.00    +0.041 C 
ATOM     17  C   UNL     1      -2.433  -3.813  -3.746  0.00  0.00    +0.041 C 
ATOM     18  N   UNL     1      -2.296   0.696  -1.658  0.00  0.00    -0.221 NA
ATOM     19  C   UNL     1      -3.194   1.558  -1.229  0.00  0.00    +0.190 A 
ATOM     20  N   UNL     1      -2.877   2.747  -0.731  0.00  0.00    -0.206 NA
ATOM     21  H   UNL     1      -0.314   4.607  -0.078  0.00  0.00    +0.147 HD
ENDROOT
BRANCH  19  22
ATOM     22  S   UNL     1      -4.896   1.113  -1.319  0.00  0.00    -0.089 S 
ATOM     23  C   UNL     1      -5.649   2.605  -0.624  0.00  0.00    +0.093 C 
ENDBRANCH  19  22
BRANCH   1  24
ATOM     24  C   UNL     1      -2.289   5.277   0.323  0.00  0.00    +0.084 C 
BRANCH  24  25
ATOM     25  C   UNL     1      -1.638   6.560   0.843  0.00  0.00    -0.060 C 
BRANCH  25  26
ATOM     26  N   UNL     1      -2.700   7.489   1.282  0.00  0.00    +0.380 N 
ATOM     27  H   UNL     1      -3.386   7.593   0.525  0.00  0.00    -0.082 HD
BRANCH  26  29
ATOM     28  C   UNL     1      -2.392   6.786   3.632  0.00  0.00    -0.017 C 
ATOM     29  C   UNL     1      -3.382   6.949   2.477  0.00  0.00    -0.082 C 
ENDBRANCH  26  29
BRANCH  26  30
ATOM     30  C   UNL     1      -2.119   8.813   1.588  0.00  0.00    -0.082 C 
ATOM     31  C   UNL     1      -3.256   9.822   1.766  0.00  0.00    -0.017 C 
ENDBRANCH  26  30
ENDBRANCH  25  26
ENDBRANCH  24  25
ENDBRANCH   1  24
BRANCH   8  32
ATOM     32  C   UNL     1       3.744  -1.888  -3.152  0.00  0.00    +0.058 C 
BRANCH  32  33
ATOM     33  C   UNL     1       4.033  -1.645  -4.635  0.00  0.00    -0.011 C 
ATOM     34  C   UNL     1       4.323  -0.160  -4.862  0.00  0.00    +0.007 C 
ATOM     35  C   UNL     1       5.248  -2.473  -5.059  0.00  0.00    +0.007 C 
ENDBRANCH  32  33
ENDBRANCH   8  32
TORSDOF 8
