REMARK  Name = ZINC61592523
REMARK  7 active torsions:
REMARK  status: ('A' for Active; 'I' for Inactive)
REMARK    1  A    between atoms: C_1  and  C_2
REMARK    2  A    between atoms: C_2  and  C_4
REMARK    3  A    between atoms: C_2  and  N_21
REMARK    4  A    between atoms: C_4  and  C_6
REMARK    5  A    between atoms: C_4  and  S_12
REMARK    6  A    between atoms: S_12  and  C_13
REMARK    7  A    between atoms: N_19  and  C_20
REMARK                            x       y       z     vdW  Elec       q    Type
REMARK                         _______ _______ _______ _____ _____    ______ ____
ROOT
ATOM      1  C   UNL     1       0.854  -0.524   1.162  0.00  0.00    +0.076 C 
ENDROOT
BRANCH   1   2
ATOM      2  C   UNL     1       0.973  -2.002   0.894  0.00  0.00    +0.003 A 
ATOM      3  C   UNL     1       0.622  -3.044   1.687  0.00  0.00    +0.027 A 
ATOM      4  C   UNL     1       0.825  -4.333   1.229  0.00  0.00    +0.025 A 
ATOM      5  C   UNL     1       1.369  -4.516   0.001  0.00  0.00    +0.060 A 
ATOM      6  S   UNL     1       1.604  -2.835  -0.553  0.00  0.00    -0.099 S 
ATOM      7 BR   UNL     1       0.352  -5.818   2.301  0.00  0.00    -0.050 Br
ENDBRANCH   1   2
BRANCH   1   9
ATOM      8  C   UNL     1      -0.225   1.602   0.416  0.00  0.00    -0.013 C 
ATOM      9  C   UNL     1      -0.049   0.115   0.104  0.00  0.00    -0.060 C 
BRANCH   9  10
ATOM     10  N   UNL     1      -1.360  -0.546   0.116  0.00  0.00    +0.381 N 
ATOM     11  H   UNL     1      -1.956  -0.125  -0.581  0.00  0.00    -0.090 HD
ATOM     12  H   UNL     1      -1.244  -1.528  -0.089  0.00  0.00    -0.090 HD
ATOM     13  H   UNL     1      -1.782  -0.441   1.027  0.00  0.00    -0.090 HD
ENDBRANCH   9  10
ENDBRANCH   1   9
BRANCH   1  14
ATOM     14  S   UNL     1       2.499   0.237   1.092  0.00  0.00    -0.079 S 
BRANCH  14  15
ATOM     15  C   UNL     1       3.339  -0.435   2.488  0.00  0.00    +0.192 A 
ATOM     16  N   UNL     1       2.809  -1.205   3.394  0.00  0.00    -0.145 NA
ATOM     17  N   UNL     1       3.804  -1.521   4.330  0.00  0.00    -0.226 N 
ATOM     18  H   UNL     1       3.697  -2.080   5.115  0.00  0.00    +0.194 HD
ATOM     19  C   UNL     1       4.939  -0.906   3.937  0.00  0.00    +0.345 A 
ATOM     20  O   UNL     1       6.016  -0.950   4.504  0.00  0.00    -0.245 OA
ATOM     21  N   UNL     1       4.665  -0.237   2.799  0.00  0.00    -0.274 N 
ATOM     22  C   UNL     1       5.617   0.566   2.026  0.00  0.00    +0.156 C 
ENDBRANCH  14  15
ENDBRANCH   1  14
TORSDOF 5
