REMARK  Name = ZINC01944303
REMARK  13 active torsions:
REMARK  status: ('A' for Active; 'I' for Inactive)
REMARK    1  A    between atoms: C_1  and  C_2
REMARK    2  A    between atoms: C_2  and  O_3
REMARK    3  A    between atoms: O_3  and  C_4
REMARK    4  A    between atoms: C_7  and  C_10
REMARK    5  A    between atoms: C_13  and  N_20
REMARK    6  A    between atoms: C_14  and  C_15
REMARK    7  A    between atoms: C_15  and  O_17
REMARK    8  A    between atoms: O_17  and  C_18
REMARK    9  A    between atoms: C_18  and  C_19
REMARK   10  A    between atoms: C_21  and  C_23
REMARK   11  A    between atoms: C_23  and  O_24
REMARK   12  A    between atoms: O_24  and  C_25
REMARK   13  A    between atoms: C_30  and  N_31
REMARK                            x       y       z     vdW  Elec       q    Type
REMARK                         _______ _______ _______ _____ _____    ______ ____
ROOT
ATOM      1  C   UNL     1      -1.290  -2.848  -1.236  0.00  0.00    +0.005 A 
ATOM      2  C   UNL     1      -1.341  -4.200  -1.127  0.00  0.00    +0.056 A 
ATOM      3  S   UNL     1      -1.334  -4.469   0.633  0.00  0.00    -0.080 S 
ATOM      4  C   UNL     1      -1.259  -2.829   1.181  0.00  0.00    +0.086 A 
ATOM      5  C   UNL     1      -1.248  -2.095   0.003  0.00  0.00    +0.095 A 
ENDROOT
BRANCH   1   9
ATOM      6  C   UNL     1      -1.253  -0.917  -5.025  0.00  0.00    +0.121 A 
ATOM      7  C   UNL     1      -0.368  -1.955  -4.768  0.00  0.00    +0.046 A 
ATOM      8  C   UNL     1      -0.377  -2.583  -3.541  0.00  0.00    +0.012 A 
ATOM      9  C   UNL     1      -1.277  -2.175  -2.557  0.00  0.00    -0.016 A 
ATOM     10  C   UNL     1      -2.168  -1.135  -2.820  0.00  0.00    +0.012 A 
ATOM     11  C   UNL     1      -2.150  -0.508  -4.048  0.00  0.00    +0.046 A 
BRANCH   6  12
ATOM     12  O   UNL     1      -1.242  -0.300  -6.236  0.00  0.00    -0.492 OA
BRANCH  12  14
ATOM     13  C   UNL     1      -2.019   1.327  -7.845  0.00  0.00    +0.048 C 
ATOM     14  C   UNL     1      -2.180   0.760  -6.433  0.00  0.00    +0.225 C 
ENDBRANCH  12  14
ENDBRANCH   6  12
ENDBRANCH   1   9
BRANCH   4  15
ATOM     15  N   UNL     1      -1.222  -2.361   2.485  0.00  0.00    -0.277 N 
ATOM     16  C   UNL     1      -1.240  -3.230   3.514  0.00  0.00    +0.255 C 
ATOM     17  O   UNL     1      -1.290  -4.423   3.300  0.00  0.00    -0.272 OA
ATOM     18  H   UNL     1      -1.177  -1.279   2.680  0.00  0.00    +0.155 HD
BRANCH  16  19
ATOM     19  C   UNL     1      -1.200  -2.721   4.932  0.00  0.00    +0.325 C 
BRANCH  19  20
ATOM     20  O   UNL     1      -1.230  -3.827   5.837  0.00  0.00    -0.480 OA
BRANCH  20  21
ATOM     21  C   UNL     1      -1.199  -3.538   7.165  0.00  0.00    +0.151 A 
ATOM     22  C   UNL     1      -1.136  -2.219   7.588  0.00  0.00    +0.048 A 
ATOM     23  C   UNL     1      -1.109  -1.928   8.938  0.00  0.00    +0.004 A 
ATOM     24  C   UNL     1      -1.135  -2.952   9.867  0.00  0.00    +0.002 A 
ATOM     25  C   UNL     1      -1.193  -4.268   9.448  0.00  0.00    +0.036 A 
ATOM     26  C   UNL     1      -1.225  -4.564   8.098  0.00  0.00    +0.168 A 
BRANCH  26  27
ATOM     27  N   UNL     1      -1.286  -5.973   7.650  0.00  0.00    +0.060 N 
ATOM     28  O   UNL     1      -1.309  -6.872   8.471  0.00  0.00    -0.126 OA
ATOM     29  O   UNL     1      -1.314  -6.233   6.460  0.00  0.00    -0.126 OA
ENDBRANCH  26  27
ENDBRANCH  20  21
ENDBRANCH  19  20
ENDBRANCH  16  19
ENDBRANCH   4  15
BRANCH   5  30
ATOM     30  C   UNL     1      -1.191  -0.633   0.010  0.00  0.00    +0.342 C 
ATOM     31  O   UNL     1      -2.220   0.016   0.023  0.00  0.00    -0.245 OA
BRANCH  30  32
ATOM     32  O   UNL     1       0.002  -0.004   0.002  0.00  0.00    -0.461 OA
BRANCH  32  33
ATOM     33  C   UNL     1      -0.018   1.448   0.010  0.00  0.00    +0.229 C 
ATOM     34  C   UNL     1       1.418   1.977  -0.001  0.00  0.00    +0.048 C 
ENDBRANCH  32  33
ENDBRANCH  30  32
ENDBRANCH   5  30
TORSDOF 11
