REMARK  Name = ZINC38547717
REMARK  13 active torsions:
REMARK  status: ('A' for Active; 'I' for Inactive)
REMARK    1  A    between atoms: C_1  and  C_2
REMARK    2  A    between atoms: C_6  and  N_8
REMARK    3  A    between atoms: N_8  and  C_9
REMARK    4  A    between atoms: C_9  and  C_11
REMARK    5  A    between atoms: C_9  and  C_21
REMARK    6  A    between atoms: C_13  and  O_19
REMARK    7  A    between atoms: C_16  and  O_17
REMARK    8  A    between atoms: O_17  and  C_18
REMARK    9  A    between atoms: O_19  and  C_20
REMARK   10  A    between atoms: C_22  and  C_35
REMARK   11  A    between atoms: C_23  and  C_34
REMARK   12  A    between atoms: C_25  and  N_26
REMARK   13  A    between atoms: C_27  and  C_29
REMARK                            x       y       z     vdW  Elec       q    Type
REMARK                         _______ _______ _______ _____ _____    ______ ____
ROOT
ATOM      1  C   UNL     1      -0.058  -4.330   2.493  0.00  0.00    +0.138 C 
ENDROOT
BRANCH   1   2
ATOM      2  C   UNL     1       0.709  -4.546   3.772  0.00  0.00    +0.009 A 
ATOM      3  C   UNL     1       1.802  -5.394   3.803  0.00  0.00    -0.033 A 
ATOM      4  C   UNL     1       2.469  -5.565   4.969  0.00  0.00    -0.008 A 
ATOM      5  S   UNL     1       1.554  -4.511   6.081  0.00  0.00    -0.078 S 
ATOM      6  C   UNL     1       0.343  -3.906   4.917  0.00  0.00    +0.078 A 
ATOM      7  C   UNL     1       3.674  -6.424   5.254  0.00  0.00    +0.052 C 
ATOM      8  C   UNL     1       2.243  -6.117   2.557  0.00  0.00    +0.045 C 
BRANCH   6   9
ATOM      9  N   UNL     1      -0.708  -3.010   5.127  0.00  0.00    -0.273 N 
ATOM     10  C   UNL     1      -0.838  -2.390   6.316  0.00  0.00    +0.284 C 
ATOM     11  O   UNL     1      -0.040  -2.611   7.208  0.00  0.00    -0.266 OA
ATOM     12  H   UNL     1      -1.345  -2.835   4.416  0.00  0.00    +0.156 HD
BRANCH  10  13
ATOM     13  C   UNL     1      -1.942  -1.450   6.537  0.00  0.00    +0.189 A 
ATOM     14  C   UNL     1      -2.186  -0.754   7.686  0.00  0.00    +0.054 A 
ATOM     15  C   UNL     1      -3.333   0.020   7.453  0.00  0.00    +0.042 A 
ATOM     16  C   UNL     1      -3.735  -0.235   6.188  0.00  0.00    +0.196 A 
ATOM     17  O   UNL     1      -2.891  -1.118   5.637  0.00  0.00    -0.458 OA
ENDBRANCH  10  13
ENDBRANCH   6   9
ENDBRANCH   1   2
BRANCH   1  18
ATOM     18  C   UNL     1      -1.407  -4.993   2.599  0.00  0.00    +0.022 A 
ATOM     19  C   UNL     1      -2.527  -4.238   2.888  0.00  0.00    +0.055 A 
ATOM     20  C   UNL     1      -3.769  -4.848   2.985  0.00  0.00    +0.121 A 
ATOM     21  C   UNL     1      -3.887  -6.216   2.791  0.00  0.00    +0.049 A 
ATOM     22  C   UNL     1      -2.767  -6.971   2.502  0.00  0.00    +0.049 A 
ATOM     23  C   UNL     1      -1.526  -6.361   2.400  0.00  0.00    +0.126 A 
BRANCH  23  24
ATOM     24  O   UNL     1      -0.424  -7.103   2.109  0.00  0.00    -0.495 OA
ATOM     25  C   UNL     1      -0.620  -8.505   1.917  0.00  0.00    +0.277 C 
ENDBRANCH  23  24
BRANCH  20  26
ATOM     26  O   UNL     1      -4.871  -4.105   3.271  0.00  0.00    -0.495 OA
ATOM     27  C   UNL     1      -6.118  -4.798   3.355  0.00  0.00    +0.277 C 
ENDBRANCH  20  26
ENDBRANCH   1  18
BRANCH   1  28
ATOM     28  N   UNL     1      -0.236  -2.894   2.267  0.00  0.00    -0.319 N 
ATOM     29  H   UNL     1      -0.148  -2.272   3.006  0.00  0.00    +0.148 HD
BRANCH  28  35
ATOM     30  C   UNL     1      -1.146   0.854  -0.570  0.00  0.00    +0.063 C 
ATOM     31  C   UNL     1      -0.973  -0.633  -0.397  0.00  0.00    +0.014 A 
ATOM     32  C   UNL     1      -1.111  -1.467  -1.490  0.00  0.00    +0.021 A 
ATOM     33  C   UNL     1      -0.951  -2.836  -1.325  0.00  0.00    +0.005 A 
ATOM     34  C   UNL     1      -0.656  -3.319  -0.062  0.00  0.00    +0.041 A 
ATOM     35  C   UNL     1      -0.532  -2.422   0.993  0.00  0.00    +0.097 A 
ATOM     36  N   UNL     1      -0.687  -1.122   0.794  0.00  0.00    -0.347 N 
ATOM     37  H   UNL     1      -0.591  -0.514   1.544  0.00  0.00    +0.167 HD
ENDBRANCH  28  35
ENDBRANCH   1  28
TORSDOF 8
