REMARK  Name = ZINC02718055
REMARK  8 active torsions:
REMARK  status: ('A' for Active; 'I' for Inactive)
REMARK    1  A    between atoms: C_1  and  C_2
REMARK    2  A    between atoms: C_5  and  N_9
REMARK    3  A    between atoms: C_7  and  C_8
REMARK    4  A    between atoms: C_12  and  S_19
REMARK    5  A    between atoms: S_19  and  C_20
REMARK    6  A    between atoms: C_20  and  C_21
REMARK    7  A    between atoms: C_26  and  C_29
REMARK    8  A    between atoms: C_29  and  C_30
REMARK                            x       y       z     vdW  Elec       q    Type
REMARK                         _______ _______ _______ _____ _____    ______ ____
ROOT
ATOM      1  N   UNL     1       0.057  -4.171  -0.021  0.00  0.00    -0.214 N 
ATOM      2  C   UNL     1      -0.567  -4.975  -0.932  0.00  0.00    +0.171 A 
ATOM      3  N   UNL     1      -1.324  -4.758  -2.005  0.00  0.00    -0.202 NA
ATOM      4  C   UNL     1      -1.800  -5.772  -2.709  0.00  0.00    +0.194 A 
ATOM      5  N   UNL     1      -1.554  -7.038  -2.390  0.00  0.00    -0.183 NA
ATOM      6  C   UNL     1      -0.810  -7.348  -1.337  0.00  0.00    +0.285 A 
ATOM      7  O   UNL     1      -0.566  -8.641  -1.020  0.00  0.00    -0.265 OA
ATOM      8  C   UNL     1      -0.282  -6.303  -0.557  0.00  0.00    +0.105 A 
ATOM      9  C   UNL     1       0.528  -6.241   0.599  0.00  0.00    +0.150 A 
ATOM     10  N   UNL     1       0.724  -4.989   0.900  0.00  0.00    -0.172 NA
ENDROOT
BRANCH   1  15
ATOM     11  C   UNL     1      -0.018   1.503   0.010  0.00  0.00    +0.044 C 
ATOM     12  C   UNL     1       0.002  -0.004   0.002  0.00  0.00    -0.047 A 
ATOM     13  C   UNL     1       0.006  -0.688  -1.200  0.00  0.00    +0.006 A 
ATOM     14  C   UNL     1       0.024  -2.068  -1.211  0.00  0.00    +0.028 A 
ATOM     15  C   UNL     1       0.039  -2.771  -0.013  0.00  0.00    +0.068 A 
ATOM     16  C   UNL     1       0.036  -2.082   1.192  0.00  0.00    +0.031 A 
ATOM     17  C   UNL     1       0.023  -0.700   1.196  0.00  0.00    -0.046 A 
ATOM     18  C   UNL     1       0.025   0.049   2.504  0.00  0.00    +0.044 C 
ENDBRANCH   1  15
BRANCH   4  19
ATOM     19  S   UNL     1      -2.796  -5.430  -4.122  0.00  0.00    -0.077 S 
BRANCH  19  20
ATOM     20  C   UNL     1      -3.220  -7.072  -4.767  0.00  0.00    +0.173 C 
BRANCH  20  21
ATOM     21  C   UNL     1      -4.083  -6.923  -5.993  0.00  0.00    +0.226 C 
ATOM     22  O   UNL     1      -4.383  -5.817  -6.393  0.00  0.00    -0.275 OA
ATOM     23  N   UNL     1      -4.521  -8.017  -6.646  0.00  0.00    -0.301 N 
ATOM     24  C   UNL     1      -4.172  -9.363  -6.170  0.00  0.00    +0.108 C 
ATOM     25  C   UNL     1      -5.459 -10.173  -5.994  0.00  0.00    +0.023 C 
ATOM     26  C   UNL     1      -6.253 -10.155  -7.302  0.00  0.00    -0.004 C 
ATOM     27  C   UNL     1      -6.633  -8.715  -7.651  0.00  0.00    +0.023 C 
ATOM     28  C   UNL     1      -5.363  -7.888  -7.843  0.00  0.00    +0.108 C 
BRANCH  26  29
ATOM     29  C   UNL     1      -7.523 -10.993  -7.140  0.00  0.00    +0.038 C 
BRANCH  29  30
ATOM     30  C   UNL     1      -8.241 -11.077  -8.462  0.00  0.00    -0.047 A 
ATOM     31  C   UNL     1      -9.184 -10.124  -8.798  0.00  0.00    +0.003 A 
ATOM     32  C   UNL     1      -9.843 -10.201 -10.011  0.00  0.00    +0.000 A 
ATOM     33  C   UNL     1      -9.559 -11.231 -10.888  0.00  0.00    +0.000 A 
ATOM     34  C   UNL     1      -8.616 -12.184 -10.552  0.00  0.00    +0.000 A 
ATOM     35  C   UNL     1      -7.954 -12.105  -9.341  0.00  0.00    +0.003 A 
ENDBRANCH  29  30
ENDBRANCH  26  29
ENDBRANCH  20  21
ENDBRANCH  19  20
ENDBRANCH   4  19
TORSDOF 6
