REMARK  Name = ZINC05918614
REMARK  13 active torsions:
REMARK  status: ('A' for Active; 'I' for Inactive)
REMARK    1  A    between atoms: C_1  and  C_2
REMARK    2  A    between atoms: C_2  and  C_3
REMARK    3  A    between atoms: C_3  and  C_4
REMARK    4  A    between atoms: C_4  and  C_5
REMARK    5  A    between atoms: C_5  and  O_6
REMARK    6  A    between atoms: O_6  and  C_7
REMARK    7  A    between atoms: C_10  and  C_15
REMARK    8  A    between atoms: C_12  and  O_13
REMARK    9  A    between atoms: O_13  and  C_14
REMARK   10  A    between atoms: C_17  and  C_18
REMARK   11  A    between atoms: C_18  and  C_19
REMARK   12  A    between atoms: N_31  and  C_32
REMARK   13  A    between atoms: C_32  and  C_33
REMARK                            x       y       z     vdW  Elec       q    Type
REMARK                         _______ _______ _______ _____ _____    ______ ____
ROOT
ATOM      1  C   UNL     1      -8.102  -6.592   0.142  0.00  0.00    +0.145 C 
ATOM      2  C   UNL     1      -8.710  -6.665   1.523  0.00  0.00    +0.076 C 
ATOM      3  C   UNL     1      -9.884  -5.995   1.469  0.00  0.00    +0.249 C 
ATOM      4  O   UNL     1     -10.739  -5.827   2.503  0.00  0.00    -0.282 OA
ATOM      5  C   UNL     1     -10.084  -5.474   0.099  0.00  0.00    +0.288 C 
ATOM      6  O   UNL     1     -11.044  -4.828  -0.268  0.00  0.00    -0.266 OA
ATOM      7  N   UNL     1      -9.043  -5.822  -0.680  0.00  0.00    -0.276 N 
ENDROOT
BRANCH   1  11
ATOM      8  C   UNL     1      -4.324  -4.594   0.304  0.00  0.00    +0.162 A 
ATOM      9  C   UNL     1      -5.498  -3.859   0.253  0.00  0.00    +0.050 A 
ATOM     10  C   UNL     1      -6.718  -4.508   0.200  0.00  0.00    +0.009 A 
ATOM     11  C   UNL     1      -6.769  -5.890   0.199  0.00  0.00    -0.019 A 
ATOM     12  C   UNL     1      -5.602  -6.628   0.251  0.00  0.00    +0.055 A 
ATOM     13  C   UNL     1      -4.376  -5.984   0.297  0.00  0.00    +0.162 A 
BRANCH  13  14
ATOM     14  O   UNL     1      -3.227  -6.710   0.342  0.00  0.00    -0.491 OA
ATOM     15  C   UNL     1      -3.350  -8.129   0.228  0.00  0.00    +0.277 C 
ENDBRANCH  13  14
BRANCH   8  16
ATOM     16  O   UNL     1      -3.123  -3.957   0.356  0.00  0.00    -0.488 OA
BRANCH  16  17
ATOM     17  C   UNL     1      -3.147  -2.528   0.360  0.00  0.00    +0.229 C 
BRANCH  17  18
ATOM     18  C   UNL     1      -1.714  -1.995   0.421  0.00  0.00    +0.041 C 
BRANCH  18  19
ATOM     19  C   UNL     1      -1.738  -0.466   0.425  0.00  0.00    +0.003 C 
BRANCH  19  21
ATOM     20  C   UNL     1      -0.330   1.597   0.490  0.00  0.00    +0.004 C 
ATOM     21  C   UNL     1      -0.305   0.067   0.486  0.00  0.00    -0.003 C 
ENDBRANCH  19  21
ENDBRANCH  18  19
ENDBRANCH  17  18
ENDBRANCH  16  17
ENDBRANCH   8  16
ENDBRANCH   1  11
BRANCH   2  22
ATOM     22  C   UNL     1      -8.138  -7.334   2.696  0.00  0.00    +0.195 C 
ATOM     23  O   UNL     1      -7.769  -6.677   3.651  0.00  0.00    -0.287 OA
BRANCH  22  24
ATOM     24  C   UNL     1      -8.010  -8.806   2.717  0.00  0.00    +0.022 A 
ATOM     25  C   UNL     1      -8.352  -9.556   1.590  0.00  0.00    +0.014 A 
ATOM     26  C   UNL     1      -8.230 -10.929   1.615  0.00  0.00    +0.039 A 
ATOM     27  C   UNL     1      -7.769 -11.565   2.759  0.00  0.00    +0.123 A 
ATOM     28  C   UNL     1      -7.429 -10.825   3.881  0.00  0.00    +0.039 A 
ATOM     29  C   UNL     1      -7.541  -9.452   3.864  0.00  0.00    +0.014 A 
ATOM     30  F   UNL     1      -7.653 -12.911   2.779  0.00  0.00    -0.205 F 
ENDBRANCH  22  24
ENDBRANCH   2  22
BRANCH   7  31
ATOM     31  C   UNL     1      -8.879  -5.489  -2.097  0.00  0.00    +0.183 C 
BRANCH  31  32
ATOM     32  C   UNL     1      -9.491  -6.576  -2.942  0.00  0.00    +0.122 A 
ATOM     33  C   UNL     1     -10.764  -6.613  -3.375  0.00  0.00    +0.046 A 
ATOM     34  C   UNL     1     -10.906  -7.800  -4.129  0.00  0.00    +0.041 A 
ATOM     35  C   UNL     1      -9.712  -8.418  -4.112  0.00  0.00    +0.195 A 
ATOM     36  O   UNL     1      -8.857  -7.669  -3.396  0.00  0.00    -0.466 OA
ENDBRANCH  31  32
ENDBRANCH   7  31
TORSDOF 11
