REMARK  Name = ZINC02423458
REMARK  7 active torsions:
REMARK  status: ('A' for Active; 'I' for Inactive)
REMARK    1  A    between atoms: C_1  and  C_2
REMARK    2  A    between atoms: C_2  and  C_32
REMARK    3  A    between atoms: C_7  and  C_31
REMARK    4  A    between atoms: C_10  and  N_11
REMARK    5  A    between atoms: C_10  and  N_62
REMARK    6  A    between atoms: N_19  and  N_20
REMARK    7  A    between atoms: C_21  and  C_23
REMARK                            x       y       z     vdW  Elec       q    Type
REMARK                         _______ _______ _______ _____ _____    ______ ____
ROOT
ATOM      1  N   UNL     1      -2.695   4.824  -0.688  0.00  0.00    -0.282 N 
ATOM      2  C   UNL     1      -3.667   4.723   0.302  0.00  0.00    +0.044 A 
ATOM      3  C   UNL     1      -4.385   3.634   0.784  0.00  0.00    +0.024 A 
ATOM      4  C   UNL     1      -5.311   3.806   1.793  0.00  0.00    +0.002 A 
ATOM      5  C   UNL     1      -5.536   5.059   2.337  0.00  0.00    +0.001 A 
ATOM      6  C   UNL     1      -4.826   6.150   1.878  0.00  0.00    +0.012 A 
ATOM      7  C   UNL     1      -3.895   5.988   0.858  0.00  0.00    +0.028 A 
ATOM      8  C   UNL     1      -3.000   6.927   0.143  0.00  0.00    +0.153 C 
ATOM      9  N   UNL     1      -2.882   8.219   0.333  0.00  0.00    -0.174 NA
ATOM     10  C   UNL     1      -2.269   6.091  -0.830  0.00  0.00    +0.270 C 
ATOM     11  O   UNL     1      -1.429   6.479  -1.620  0.00  0.00    -0.268 OA
ENDROOT
BRANCH   9  12
ATOM     12  N   UNL     1      -1.979   8.961  -0.439  0.00  0.00    -0.202 N 
ATOM     13  C   UNL     1      -1.858  10.289  -0.244  0.00  0.00    +0.263 C 
ATOM     14  O   UNL     1      -2.533  10.843   0.601  0.00  0.00    -0.268 OA
ATOM     15  H   UNL     1      -1.440   8.519  -1.114  0.00  0.00    +0.178 HD
BRANCH  13  16
ATOM     16  C   UNL     1      -0.906  11.072  -1.059  0.00  0.00    +0.038 A 
ATOM     17  C   UNL     1      -0.125  10.437  -2.027  0.00  0.00    +0.013 A 
ATOM     18  C   UNL     1       0.758  11.175  -2.788  0.00  0.00    +0.001 A 
ATOM     19  C   UNL     1       0.880  12.538  -2.585  0.00  0.00    +0.000 A 
ATOM     20  C   UNL     1       0.113  13.172  -1.623  0.00  0.00    +0.001 A 
ATOM     21  C   UNL     1      -0.778  12.448  -0.860  0.00  0.00    +0.013 A 
ENDBRANCH  13  16
ENDBRANCH   9  12
BRANCH   1  22
ATOM     22  C   UNL     1      -2.203   3.694  -1.480  0.00  0.00    +0.039 C 
BRANCH  22  33
ATOM     23  C   UNL     1      -1.191   1.532  -4.028  0.00  0.00    +0.011 C 
ATOM     24  C   UNL     1       0.143   1.631  -3.262  0.00  0.00    -0.036 C 
ATOM     25  C   UNL     1       0.321   3.046  -2.757  0.00  0.00    -0.009 C 
ATOM     26  C   UNL     1       0.222   3.253  -1.255  0.00  0.00    -0.065 C 
ATOM     27  C   UNL     1       1.043   2.119  -0.577  0.00  0.00    -0.011 C 
ATOM     28  C   UNL     1       0.067   0.931  -0.798  0.00  0.00    -0.048 C 
ATOM     29  C   UNL     1       0.216   0.501  -2.256  0.00  0.00    +0.011 C 
ATOM     30  C   UNL     1      -1.331   1.569  -0.621  0.00  0.00    -0.070 C 
ATOM     31  C   UNL     1       0.312  -0.219   0.190  0.00  0.00    +0.009 C 
ATOM     32  C   UNL     1       1.256   1.378  -4.312  0.00  0.00    +0.011 C 
ATOM     33  N   UNL     1      -1.123   3.015  -0.685  0.00  0.00    +0.393 N 
ATOM     34  H   UNL     1      -1.146   3.395   0.268  0.00  0.00    -0.079 HD
ENDBRANCH  22  33
ENDBRANCH   1  22
TORSDOF 4
