REMARK  Name = ZINC08617342
REMARK  11 active torsions:
REMARK  status: ('A' for Active; 'I' for Inactive)
REMARK    1  A    between atoms: C_1  and  C_2
REMARK    2  A    between atoms: C_4  and  C_33
REMARK    3  A    between atoms: C_7  and  C_13
REMARK    4  A    between atoms: C_8  and  O_12
REMARK    5  A    between atoms: C_13  and  N_61
REMARK    6  A    between atoms: C_14  and  C_15
REMARK    7  A    between atoms: C_14  and  N_61
REMARK    8  A    between atoms: C_20  and  C_21
REMARK    9  A    between atoms: C_20  and  N_61
REMARK   10  A    between atoms: N_25  and  C_26
REMARK   11  A    between atoms: C_26  and  C_27
REMARK                            x       y       z     vdW  Elec       q    Type
REMARK                         _______ _______ _______ _____ _____    ______ ____
ROOT
ATOM      1  N   UNL     1      -1.017   5.876  -1.403  0.00  0.00    +0.390 N 
ATOM      2  H   UNL     1      -1.671   5.241  -1.875  0.00  0.00    -0.080 HD
ENDROOT
BRANCH   1   3
ATOM      3  C   UNL     1      -1.547   7.254  -1.478  0.00  0.00    -0.037 C 
BRANCH   3  10
ATOM      4  C   UNL     1      -8.704   7.666   1.905  0.00  0.00    +0.044 C 
ATOM      5  C   UNL     1      -7.266   7.690   1.456  0.00  0.00    -0.048 A 
ATOM      6  C   UNL     1      -6.295   8.232   2.295  0.00  0.00    +0.007 A 
ATOM      7  C   UNL     1      -4.987   8.267   1.919  0.00  0.00    -0.041 A 
ATOM      8  C   UNL     1      -4.610   7.753   0.668  0.00  0.00    +0.004 A 
ATOM      9  C   UNL     1      -3.266   7.767   0.245  0.00  0.00    +0.017 A 
ATOM     10  C   UNL     1      -2.970   7.255  -0.983  0.00  0.00    -0.002 A 
ATOM     11  C   UNL     1      -3.991   6.724  -1.782  0.00  0.00    +0.214 A 
ATOM     12  N   UNL     1      -5.243   6.709  -1.380  0.00  0.00    -0.213 NA
ATOM     13  C   UNL     1      -5.596   7.202  -0.187  0.00  0.00    +0.075 A 
ATOM     14  C   UNL     1      -6.935   7.183   0.237  0.00  0.00    +0.031 A 
ATOM     15  C   UNL     1      -3.949   8.856   2.839  0.00  0.00    +0.044 C 
BRANCH  11  16
ATOM     16  O   UNL     1      -3.680   6.215  -2.999  0.00  0.00    -0.492 OA
ATOM     17  H   UNL     1      -3.463   5.272  -2.987  0.00  0.00    +0.294 HD
ENDBRANCH  11  16
ENDBRANCH   3  10
ENDBRANCH   1   3
BRANCH   1  18
ATOM     18  C   UNL     1      -0.882   5.464   0.010  0.00  0.00    -0.035 C 
BRANCH  18  19
ATOM     19  C   UNL     1      -0.424   4.029   0.058  0.00  0.00    -0.027 A 
ATOM     20  C   UNL     1       0.835   3.532  -0.006  0.00  0.00    +0.009 A 
ATOM     21  C   UNL     1       1.020   2.164   0.058  0.00  0.00    +0.008 A 
ATOM     22  C   UNL     1      -0.063   1.359   0.183  0.00  0.00    +0.045 A 
ATOM     23  S   UNL     1      -1.400   2.541   0.208  0.00  0.00    -0.103 S 
ENDBRANCH  18  19
ENDBRANCH   1  18
BRANCH   1  24
ATOM     24  C   UNL     1       0.296   5.803  -2.077  0.00  0.00    +0.001 C 
BRANCH  24  25
ATOM     25  C   UNL     1       0.114   6.130  -3.537  0.00  0.00    +0.135 A 
ATOM     26  N   UNL     1       0.046   7.327  -4.068  0.00  0.00    -0.115 NA
ATOM     27  N   UNL     1      -0.112   7.190  -5.339  0.00  0.00    -0.023 NA
ATOM     28  N   UNL     1      -0.147   5.937  -5.633  0.00  0.00    -0.044 NA
ATOM     29  N   UNL     1      -0.006   5.252  -4.549  0.00  0.00    -0.229 N 
BRANCH  29  30
ATOM     30  C   UNL     1       0.016   3.791  -4.440  0.00  0.00    +0.178 C 
BRANCH  30  31
ATOM     31  C   UNL     1      -1.418   3.258  -4.432  0.00  0.00    +0.140 C 
ATOM     32  C   UNL     1      -1.417   1.710  -4.366  0.00  0.00    +0.035 C 
ATOM     33  C   UNL     1      -2.809   1.442  -3.731  0.00  0.00    +0.031 C 
ATOM     34  C   UNL     1      -2.976   2.649  -2.783  0.00  0.00    +0.160 C 
ATOM     35  O   UNL     1      -2.102   3.686  -3.244  0.00  0.00    -0.375 OA
ENDBRANCH  30  31
ENDBRANCH  29  30
ENDBRANCH  24  25
ENDBRANCH   1  24
TORSDOF 9
