REMARK  Name = ZINC34749681
REMARK  7 active torsions:
REMARK  status: ('A' for Active; 'I' for Inactive)
REMARK    1  A    between atoms: C_1  and  C_2
REMARK    2  A    between atoms: C_2  and  C_3
REMARK    3  A    between atoms: C_2  and  C_4
REMARK    4  A    between atoms: C_4  and  N_5
REMARK    5  A    between atoms: C_15  and  C_18
REMARK    6  A    between atoms: N_26  and  C_27
REMARK    7  A    between atoms: C_27  and  C_28
REMARK                            x       y       z     vdW  Elec       q    Type
REMARK                         _______ _______ _______ _____ _____    ______ ____
ROOT
ATOM      1  N   UNL     1       3.099   0.434   0.207  0.00  0.00    +0.382 N 
ATOM      2  C   UNL     1       4.399   0.584   0.874  0.00  0.00    -0.060 C 
ATOM      3  C   UNL     1       5.498   0.740  -0.182  0.00  0.00    +0.089 C 
ATOM      4  N   UNL     1       5.419  -0.399  -1.110  0.00  0.00    -0.304 N 
ATOM      5  C   UNL     1       4.111  -0.723  -1.700  0.00  0.00    +0.089 C 
ATOM      6  C   UNL     1       3.078  -0.810  -0.572  0.00  0.00    -0.060 C 
ATOM      7  C   UNL     1       6.534  -1.139  -1.415  0.00  0.00    +0.202 A 
ATOM      8  N   UNL     1       7.303  -1.586  -0.444  0.00  0.00    -0.208 NA
ATOM      9  C   UNL     1       8.388  -2.305  -0.710  0.00  0.00    +0.118 A 
ATOM     10  C   UNL     1       8.768  -2.623  -2.025  0.00  0.00    +0.080 A 
ATOM     11  C   UNL     1       9.986  -3.420  -2.140  0.00  0.00    +0.004 A 
ATOM     12  C   UNL     1      10.637  -3.782  -1.010  0.00  0.00    +0.056 A 
ATOM     13  S   UNL     1       9.644  -3.067   0.286  0.00  0.00    -0.076 S 
ATOM     14  C   UNL     1       7.915  -2.123  -3.057  0.00  0.00    +0.264 A 
ATOM     15  O   UNL     1       8.166  -2.350  -4.229  0.00  0.00    -0.267 OA
ATOM     16  N   UNL     1       6.828  -1.406  -2.720  0.00  0.00    -0.276 N 
ATOM     17  H   UNL     1       2.947   1.218  -0.409  0.00  0.00    -0.082 HD
ENDROOT
BRANCH  11  18
ATOM     18  C   UNL     1      10.499  -3.825  -3.470  0.00  0.00    -0.017 A 
ATOM     19  C   UNL     1       9.645  -4.419  -4.399  0.00  0.00    +0.008 A 
ATOM     20  C   UNL     1      10.129  -4.794  -5.636  0.00  0.00    +0.001 A 
ATOM     21  C   UNL     1      11.459  -4.582  -5.955  0.00  0.00    +0.000 A 
ATOM     22  C   UNL     1      12.310  -3.994  -5.037  0.00  0.00    +0.001 A 
ATOM     23  C   UNL     1      11.837  -3.609  -3.800  0.00  0.00    +0.008 A 
ENDBRANCH  11  18
BRANCH   1  24
ATOM     24  C   UNL     1       2.035   0.395   1.219  0.00  0.00    -0.076 C 
BRANCH  24  26
ATOM     25  C   UNL     1       1.559   2.834   0.965  0.00  0.00    +0.005 C 
ATOM     26  C   UNL     1       1.974   1.738   1.948  0.00  0.00    -0.034 C 
ATOM     27  C   UNL     1       0.952   1.657   3.084  0.00  0.00    +0.005 C 
ENDBRANCH  24  26
ENDBRANCH   1  24
BRANCH  16  28
ATOM     28  C   UNL     1       5.947  -0.897  -3.774  0.00  0.00    +0.163 C 
BRANCH  28  29
ATOM     29  C   UNL     1       6.432   0.457  -4.224  0.00  0.00    -0.027 A 
ATOM     30  C   UNL     1       5.892   1.603  -3.671  0.00  0.00    +0.007 A 
ATOM     31  C   UNL     1       6.337   2.845  -4.083  0.00  0.00    +0.020 A 
ATOM     32  C   UNL     1       7.323   2.941  -5.050  0.00  0.00    +0.041 A 
ATOM     33  C   UNL     1       7.862   1.793  -5.603  0.00  0.00    +0.020 A 
ATOM     34  C   UNL     1       7.421   0.552  -5.185  0.00  0.00    +0.007 A 
ATOM     35 CL   UNL     1       7.881   4.500  -5.569  0.00  0.00    -0.084 Cl
ENDBRANCH  28  29
ENDBRANCH  16  28
TORSDOF 5
