REMARK  Name = ZINC15699743
REMARK  5 active torsions:
REMARK  status: ('A' for Active; 'I' for Inactive)
REMARK    1  A    between atoms: C_6  and  N_7
REMARK    2  A    between atoms: C_8  and  C_10
REMARK    3  A    between atoms: C_10  and  C_11
REMARK    4  A    between atoms: C_11  and  N_12
REMARK    5  A    between atoms: N_15  and  C_16
REMARK                            x       y       z     vdW  Elec       q    Type
REMARK                         _______ _______ _______ _____ _____    ______ ____
ROOT
ATOM      1  C   UNL     1       0.002  -0.004   0.009  0.00  0.00    +0.115 C 
ENDROOT
BRANCH   1   3
ATOM      2  N   UNL     1       1.139   2.192   0.003  0.00  0.00    -0.285 N 
ATOM      3  C   UNL     1      -0.018   1.503   0.009  0.00  0.00    +0.219 C 
ATOM      4  O   UNL     1      -1.077   2.095   0.008  0.00  0.00    -0.275 OA
ATOM      5  H   UNL     1       1.985   1.721   0.067  0.00  0.00    +0.155 HD
BRANCH   2  11
ATOM      6  C   UNL     1       2.125   4.249  -0.793  0.00  0.00    +0.027 A 
ATOM      7  C   UNL     1       2.107   5.628  -0.894  0.00  0.00    +0.051 A 
ATOM      8  C   UNL     1       1.096   6.354  -0.292  0.00  0.00    +0.167 A 
ATOM      9  C   UNL     1       0.089   5.695   0.415  0.00  0.00    +0.169 A 
ATOM     10  C   UNL     1       0.104   4.316   0.511  0.00  0.00    +0.072 A 
ATOM     11  C   UNL     1       1.122   3.590  -0.095  0.00  0.00    +0.037 A 
ATOM     12  O   UNL     1      -0.777   6.635   0.909  0.00  0.00    -0.447 OA
ATOM     13  C   UNL     1      -0.547   7.784   0.082  0.00  0.00    +0.254 C 
ATOM     14  O   UNL     1       0.850   7.702  -0.234  0.00  0.00    -0.448 OA
ATOM     15  C   UNL     1      -0.870   9.081   0.834  0.00  0.00    +0.093 C 
ATOM     16  C   UNL     1      -1.441  10.017  -0.263  0.00  0.00    +0.008 C 
ATOM     17  C   UNL     1      -2.256   9.047  -1.155  0.00  0.00    +0.008 C 
ATOM     18  C   UNL     1      -1.411   7.753  -1.178  0.00  0.00    +0.093 C 
ENDBRANCH   2  11
ENDBRANCH   1   3
BRANCH   1  19
ATOM     19  C   UNL     1      -1.433  -0.534   0.016  0.00  0.00    +0.115 C 
BRANCH  19  20
ATOM     20  N   UNL     1      -1.413  -1.999   0.016  0.00  0.00    -0.299 N 
ATOM     21  C   UNL     1      -2.571  -2.689   0.022  0.00  0.00    +0.300 C 
ATOM     22  O   UNL     1      -3.632  -2.095   0.027  0.00  0.00    -0.253 OA
ATOM     23  N   UNL     1      -2.552  -4.036   0.022  0.00  0.00    -0.294 N 
ATOM     24  H   UNL     1      -0.566  -2.472   0.012  0.00  0.00    +0.150 HD
ATOM     25  H   UNL     1      -1.706  -4.510   0.018  0.00  0.00    +0.151 HD
BRANCH  23  26
ATOM     26  C   UNL     1      -3.811  -4.786   0.028  0.00  0.00    +0.037 C 
ATOM     27  C   UNL     1      -4.612  -4.427   1.281  0.00  0.00    +0.029 C 
ATOM     28  C   UNL     1      -5.927  -5.210   1.288  0.00  0.00    -0.008 C 
ATOM     29  C   UNL     1      -5.627  -6.710   1.287  0.00  0.00    +0.007 C 
ATOM     30  C   UNL     1      -4.825  -7.069   0.034  0.00  0.00    -0.008 C 
ATOM     31  C   UNL     1      -3.511  -6.286   0.027  0.00  0.00    +0.029 C 
ATOM     32  C   UNL     1      -5.638  -6.711  -1.212  0.00  0.00    +0.007 C 
ATOM     33  C   UNL     1      -5.938  -5.211  -1.211  0.00  0.00    -0.008 C 
ATOM     34  C   UNL     1      -6.740  -4.852   0.042  0.00  0.00    +0.007 C 
ATOM     35  C   UNL     1      -4.624  -4.428  -1.217  0.00  0.00    +0.029 C 
ENDBRANCH  23  26
ENDBRANCH  19  20
ENDBRANCH   1  19
TORSDOF 5
