REMARK  Name = ZINC18196144
REMARK  2 active torsions:
REMARK  status: ('A' for Active; 'I' for Inactive)
REMARK    1  A    between atoms: C_11  and  C_22
REMARK    2  A    between atoms: C_19  and  O_20
REMARK                            x       y       z     vdW  Elec       q    Type
REMARK                         _______ _______ _______ _____ _____    ______ ____
ROOT
ATOM      1  C   UNL     1      -0.017   1.393   0.010  0.00  0.00    +0.001 A 
ATOM      2  C   UNL     1       1.140   2.136   0.003  0.00  0.00    +0.001 A 
ATOM      3  C   UNL     1       2.403   1.536  -0.012  0.00  0.00    +0.012 A 
ATOM      4  C   UNL     1       2.437   0.154  -0.019  0.00  0.00    +0.031 A 
ATOM      5  C   UNL     1       1.246  -0.615  -0.014  0.00  0.00    +0.007 A 
ATOM      6  C   UNL     1       0.002  -0.004   0.002  0.00  0.00    +0.010 A 
ATOM      7  C   UNL     1       1.643  -2.029  -0.029  0.00  0.00    +0.048 C 
ATOM      8  C   UNL     1       3.014  -2.107  -0.040  0.00  0.00    +0.034 C 
ATOM      9  C   UNL     1       3.562  -0.805  -0.034  0.00  0.00    +0.193 C 
ATOM     10  O   UNL     1       4.745  -0.524  -0.041  0.00  0.00    -0.287 OA
ATOM     11  C   UNL     1       3.787  -3.407  -0.054  0.00  0.00    +0.097 C 
ATOM     12  C   UNL     1       2.802  -4.520  -0.320  0.00  0.00    +0.067 A 
ATOM     13  C   UNL     1       1.443  -4.358  -0.299  0.00  0.00    +0.126 A 
ATOM     14  N   UNL     1       0.882  -5.555  -0.574  0.00  0.00    -0.260 N 
ATOM     15  H   UNL     1      -0.068  -5.743  -0.623  0.00  0.00    +0.190 HD
ATOM     16  N   UNL     1       1.920  -6.478  -0.774  0.00  0.00    -0.134 NA
ATOM     17  C   UNL     1       3.067  -5.855  -0.621  0.00  0.00    +0.237 A 
ATOM     18  N   UNL     1       0.821  -3.137  -0.037  0.00  0.00    -0.299 N 
ATOM     19  H   UNL     1      -0.132  -3.072   0.130  0.00  0.00    +0.154 HD
ENDROOT
BRANCH  11  20
ATOM     20  C   UNL     1       4.454  -3.620   1.280  0.00  0.00    +0.018 A 
ATOM     21  C   UNL     1       3.689  -3.711   2.430  0.00  0.00    +0.129 A 
ATOM     22  C   UNL     1       4.304  -3.906   3.655  0.00  0.00    +0.039 A 
ATOM     23  C   UNL     1       5.680  -4.011   3.729  0.00  0.00    +0.004 A 
ATOM     24  C   UNL     1       6.444  -3.921   2.581  0.00  0.00    +0.020 A 
ATOM     25  C   UNL     1       5.831  -3.731   1.355  0.00  0.00    +0.048 A 
ATOM     26 CL   UNL     1       6.790  -3.625  -0.088  0.00  0.00    -0.083 Cl
ATOM     27  F   UNL     1       2.344  -3.608   2.357  0.00  0.00    -0.205 F 
ENDBRANCH  11  20
BRANCH  17  29
ATOM     28  H   UNL     1       4.649  -6.774   0.090  0.00  0.00    +0.294 HD
ATOM     29  O   UNL     1       4.301  -6.416  -0.738  0.00  0.00    -0.491 OA
ENDBRANCH  17  29
TORSDOF 2
