REMARK  Name = ZINC64623274
REMARK  8 active torsions:
REMARK  status: ('A' for Active; 'I' for Inactive)
REMARK    1  A    between atoms: C_1  and  C_2
REMARK    2  A    between atoms: C_5  and  C_8
REMARK    3  A    between atoms: C_15  and  O_20
REMARK    4  A    between atoms: O_20  and  C_21
REMARK    5  A    between atoms: N_27  and  C_28
REMARK    6  A    between atoms: C_32  and  C_34
REMARK    7  A    between atoms: C_34  and  O_36
REMARK    8  A    between atoms: O_36  and  C_37
REMARK                            x       y       z     vdW  Elec       q    Type
REMARK                         _______ _______ _______ _____ _____    ______ ____
ROOT
ATOM      1  C   UNL     1       0.463  -3.690   0.083  0.00  0.00    +0.134 C 
ATOM      2  C   UNL     1      -0.994  -4.162   0.131  0.00  0.00    +0.131 C 
ATOM      3  C   UNL     1      -1.387  -4.207   1.603  0.00  0.00    -0.035 C 
ATOM      4  C   UNL     1      -2.462  -3.438   1.728  0.00  0.00    +0.003 A 
ATOM      5  C   UNL     1      -3.330  -3.143   2.878  0.00  0.00    +0.055 A 
ATOM      6  C   UNL     1      -4.363  -2.284   2.659  0.00  0.00    +0.121 A 
ATOM      7  C   UNL     1      -4.633  -1.681   1.421  0.00  0.00    +0.047 A 
ATOM      8  C   UNL     1      -3.901  -1.887   0.296  0.00  0.00    +0.029 A 
ATOM      9  C   UNL     1      -2.757  -2.803   0.406  0.00  0.00    +0.043 A 
ATOM     10  N   UNL     1      -1.897  -3.204  -0.511  0.00  0.00    -0.375 N 
ATOM     11  C   UNL     1      -0.579  -4.955   2.634  0.00  0.00    +0.052 C 
ATOM     12  C   UNL     1       0.882  -4.500   2.467  0.00  0.00    +0.114 C 
ATOM     13  N   UNL     1       1.233  -4.498   1.041  0.00  0.00    -0.276 N 
ATOM     14  C   UNL     1       2.266  -5.246   0.606  0.00  0.00    +0.307 C 
ATOM     15  O   UNL     1       2.617  -5.180  -0.556  0.00  0.00    -0.252 OA
ATOM     16  N   UNL     1       2.912  -6.065   1.459  0.00  0.00    -0.269 N 
ATOM     17  H   UNL     1       2.592  -6.167   2.369  0.00  0.00    +0.156 HD
ATOM     18  H   UNL     1      -1.858  -2.921  -1.438  0.00  0.00    +0.160 HD
ENDROOT
BRANCH   1  23
ATOM     19  C   UNL     1       0.760   1.892   1.547  0.00  0.00    +0.044 C 
ATOM     20  C   UNL     1       0.683   0.436   1.165  0.00  0.00    -0.050 A 
ATOM     21  C   UNL     1       0.961   0.046  -0.132  0.00  0.00    +0.004 A 
ATOM     22  C   UNL     1       0.890  -1.289  -0.482  0.00  0.00    +0.006 A 
ATOM     23  C   UNL     1       0.541  -2.234   0.465  0.00  0.00    -0.025 A 
ATOM     24  C   UNL     1       0.265  -1.844   1.762  0.00  0.00    +0.006 A 
ATOM     25  C   UNL     1       0.340  -0.509   2.113  0.00  0.00    +0.004 A 
ENDBRANCH   1  23
BRANCH  16  26
ATOM     26  C   UNL     1       4.043  -6.770   1.032  0.00  0.00    +0.036 A 
ATOM     27  C   UNL     1       4.247  -7.001  -0.323  0.00  0.00    +0.023 A 
ATOM     28  C   UNL     1       5.363  -7.695  -0.751  0.00  0.00    +0.003 A 
ATOM     29  C   UNL     1       6.283  -8.165   0.165  0.00  0.00    +0.015 A 
ATOM     30  C   UNL     1       6.087  -7.938   1.529  0.00  0.00    +0.061 A 
ATOM     31  C   UNL     1       4.963  -7.232   1.960  0.00  0.00    +0.038 A 
BRANCH  30  32
ATOM     32  C   UNL     1       7.069  -8.440   2.512  0.00  0.00    +0.339 C 
ATOM     33  O   UNL     1       6.897  -8.242   3.698  0.00  0.00    -0.245 OA
BRANCH  32  34
ATOM     34  O   UNL     1       8.155  -9.117   2.094  0.00  0.00    -0.464 OA
ATOM     35  C   UNL     1       9.063  -9.573   3.099  0.00  0.00    +0.280 C 
ENDBRANCH  32  34
ENDBRANCH  30  32
ENDBRANCH  16  26
BRANCH   6  36
ATOM     36  O   UNL     1      -5.183  -1.991   3.703  0.00  0.00    -0.495 OA
ATOM     37  C   UNL     1      -6.260  -1.087   3.449  0.00  0.00    +0.277 C 
ENDBRANCH   6  36
TORSDOF 5
