REMARK  Name = ZINC64033202
REMARK  3 active torsions:
REMARK  status: ('A' for Active; 'I' for Inactive)
REMARK    1  A    between atoms: C_9  and  N_11
REMARK    2  A    between atoms: N_11  and  C_12
REMARK    3  A    between atoms: C_12  and  N_21
REMARK                            x       y       z     vdW  Elec       q    Type
REMARK                         _______ _______ _______ _____ _____    ______ ____
ROOT
ATOM      1  C   UNL     1      -2.174  -0.542  -0.913  0.00  0.00    +0.119 C 
ATOM      2  C   UNL     1      -2.411  -1.621   0.131  0.00  0.00    +0.035 C 
ATOM      3  C   UNL     1      -3.017  -1.273   1.282  0.00  0.00    +0.112 C 
ATOM      4  N   UNL     1      -3.424  -0.048   1.571  0.00  0.00    -0.236 NA
ATOM      5  C   UNL     1      -3.297   0.994   0.783  0.00  0.00    +0.159 C 
ATOM      6  C   UNL     1      -2.657   0.838  -0.537  0.00  0.00    +0.036 C 
ATOM      7  C   UNL     1      -2.666   2.053  -1.111  0.00  0.00    +0.030 C 
ATOM      8  C   UNL     1      -3.282   2.942  -0.204  0.00  0.00    +0.113 C 
ATOM      9  N   UNL     1      -3.638   2.305   0.884  0.00  0.00    -0.236 NA
ENDROOT
BRANCH   1  10
ATOM     10  N   UNL     1      -2.853  -0.947  -2.151  0.00  0.00    -0.306 NA
ATOM     11  H   UNL     1      -3.850  -1.010  -2.013  0.00  0.00    +0.121 HD
ATOM     12  H   UNL     1      -2.632  -0.316  -2.907  0.00  0.00    +0.121 HD
ENDBRANCH   1  10
BRANCH   1  13
ATOM     13  N   UNL     1      -0.732  -0.469  -1.182  0.00  0.00    -0.281 NA
ATOM     14  H   UNL     1      -0.542   0.120  -1.980  0.00  0.00    +0.125 HD
BRANCH  13  23
ATOM     15  C   UNL     1      -0.018   1.516   0.010  0.00  0.00    +0.016 C 
ATOM     16  C   UNL     1       1.158   2.170   0.003  0.00  0.00    +0.111 C 
ATOM     17  N   UNL     1       2.341   1.578  -0.012  0.00  0.00    -0.236 NA
ATOM     18  C   UNL     1       2.534   0.280  -0.021  0.00  0.00    +0.157 C 
ATOM     19  C   UNL     1       1.375  -0.631  -0.015  0.00  0.00    +0.019 C 
ATOM     20  C   UNL     1       1.871  -1.881  -0.026  0.00  0.00    +0.029 C 
ATOM     21  C   UNL     1       3.278  -1.773  -0.039  0.00  0.00    +0.113 C 
ATOM     22  N   UNL     1       3.638  -0.513  -0.035  0.00  0.00    -0.236 NA
ATOM     23  C   UNL     1       0.002  -0.004   0.002  0.00  0.00    +0.114 C 
ENDBRANCH  13  23
ENDBRANCH   1  13
TORSDOF 3
