REMARK  Name = ZINC43227094
REMARK  18 active torsions:
REMARK  status: ('A' for Active; 'I' for Inactive)
REMARK    1  A    between atoms: C_1  and  C_2
REMARK    2  A    between atoms: C_2  and  C_3
REMARK    3  A    between atoms: C_3  and  C_4
REMARK    4  A    between atoms: C_3  and  C_5
REMARK    5  A    between atoms: C_3  and  C_6
REMARK    6  A    between atoms: C_9  and  O_17
REMARK    7  A    between atoms: C_10  and  C_12
REMARK    8  A    between atoms: C_12  and  C_13
REMARK    9  A    between atoms: C_12  and  C_14
REMARK   10  A    between atoms: C_12  and  C_15
REMARK   11  A    between atoms: C_15  and  C_16
REMARK   12  A    between atoms: O_17  and  C_18
REMARK   13  A    between atoms: C_18  and  C_19
REMARK   14  A    between atoms: C_19  and  C_20
REMARK   15  A    between atoms: C_20  and  C_21
REMARK   16  A    between atoms: C_21  and  N_22
REMARK   17  A    between atoms: C_23  and  C_25
REMARK   18  A    between atoms: C_28  and  C_30
REMARK                            x       y       z     vdW  Elec       q    Type
REMARK                         _______ _______ _______ _____ _____    ______ ____
ROOT
ATOM      1  C   UNL     1       0.295  -8.307  -0.366  0.00  0.00    +0.042 C 
ENDROOT
BRANCH   1   2
ATOM      2  C   UNL     1       0.174  -6.793  -0.184  0.00  0.00    +0.229 C 
BRANCH   2   3
ATOM      3  O   UNL     1       0.796  -6.129  -1.287  0.00  0.00    -0.492 OA
BRANCH   3   7
ATOM      4  C   UNL     1       0.739  -2.004  -1.265  0.00  0.00    -0.041 A 
ATOM      5  C   UNL     1       0.154  -2.708  -0.228  0.00  0.00    +0.008 A 
ATOM      6  C   UNL     1       0.172  -4.089  -0.233  0.00  0.00    +0.046 A 
ATOM      7  C   UNL     1       0.777  -4.770  -1.280  0.00  0.00    +0.124 A 
ATOM      8  C   UNL     1       1.362  -4.062  -2.319  0.00  0.00    +0.000 A 
ATOM      9  C   UNL     1       1.337  -2.681  -2.312  0.00  0.00    +0.012 A 
BRANCH   4  10
ATOM     10  C   UNL     1       0.718  -0.497  -1.257  0.00  0.00    -0.010 C 
ATOM     11  C   UNL     1      -0.022   0.009  -2.496  0.00  0.00    +0.016 C 
ATOM     12  C   UNL     1       2.154   0.032  -1.268  0.00  0.00    +0.016 C 
BRANCH  10  14
ATOM     13  C   UNL     1      -0.019   1.526   0.010  0.00  0.00    +0.005 C 
ATOM     14  C   UNL     1       0.002  -0.004   0.002  0.00  0.00    +0.007 C 
ENDBRANCH  10  14
ENDBRANCH   4  10
BRANCH   8  15
ATOM     15  C   UNL     1       2.020  -4.798  -3.457  0.00  0.00    -0.007 C 
ATOM     16  C   UNL     1       2.582  -3.789  -4.461  0.00  0.00    +0.016 C 
ATOM     17  C   UNL     1       3.158  -5.665  -2.914  0.00  0.00    +0.016 C 
BRANCH  15  18
ATOM     18  C   UNL     1       0.988  -5.689  -4.153  0.00  0.00    +0.008 C 
ATOM     19  C   UNL     1       1.656  -6.436  -5.309  0.00  0.00    +0.005 C 
ENDBRANCH  15  18
ENDBRANCH   8  15
ENDBRANCH   3   7
ENDBRANCH   2   3
ENDBRANCH   1   2
BRANCH   1  20
ATOM     20  C   UNL     1      -0.371  -9.017   0.814  0.00  0.00    +0.022 C 
BRANCH  20  21
ATOM     21  C   UNL     1      -0.250 -10.531   0.632  0.00  0.00    +0.104 C 
BRANCH  21  22
ATOM     22  N   UNL     1      -0.887 -11.211   1.762  0.00  0.00    -0.310 N 
ATOM     23  C   UNL     1      -0.903 -12.558   1.817  0.00  0.00    +0.263 C 
ATOM     24  O   UNL     1      -0.389 -13.209   0.927  0.00  0.00    -0.269 OA
ATOM     25  H   UNL     1      -1.298 -10.693   2.472  0.00  0.00    +0.149 HD
BRANCH  23  26
ATOM     26  C   UNL     1      -1.544 -13.242   2.953  0.00  0.00    +0.133 A 
ATOM     27  C   UNL     1      -1.578 -14.607   3.051  0.00  0.00    +0.079 A 
ATOM     28  S   UNL     1      -2.403 -14.844   4.496  0.00  0.00    -0.081 S 
ATOM     29  C   UNL     1      -2.673 -13.243   4.921  0.00  0.00    +0.065 A 
ATOM     30  N   UNL     1      -2.121 -12.566   3.951  0.00  0.00    -0.241 NA
BRANCH  29  31
ATOM     31  C   UNL     1      -3.381 -12.712   6.140  0.00  0.00    -0.015 C 
ATOM     32  C   UNL     1      -2.491 -12.897   7.387  0.00  0.00    -0.011 C 
ATOM     33  C   UNL     1      -3.511 -13.287   8.490  0.00  0.00    -0.020 C 
ATOM     34  C   UNL     1      -4.527 -14.139   7.689  0.00  0.00    -0.082 C 
ATOM     35  N   UNL     1      -4.624 -13.472   6.370  0.00  0.00    +0.385 N 
ATOM     36  H   UNL     1      -5.413 -12.843   6.362  0.00  0.00    -0.085 HD
ATOM     37  H   UNL     1      -4.736 -14.165   5.645  0.00  0.00    -0.085 HD
ENDBRANCH  29  31
ENDBRANCH  23  26
ENDBRANCH  21  22
ENDBRANCH  20  21
ENDBRANCH   1  20
TORSDOF 12
