REMARK  Name = ZINC01810997
REMARK  13 active torsions:
REMARK  status: ('A' for Active; 'I' for Inactive)
REMARK    1  A    between atoms: C_1  and  C_2
REMARK    2  A    between atoms: C_4  and  C_34
REMARK    3  A    between atoms: C_6  and  O_8
REMARK    4  A    between atoms: O_8  and  C_9
REMARK    5  A    between atoms: C_14  and  O_20
REMARK    6  A    between atoms: O_20  and  C_21
REMARK    7  A    between atoms: C_21  and  C_22
REMARK    8  A    between atoms: C_22  and  C_24
REMARK    9  A    between atoms: C_22  and  O_33
REMARK   10  A    between atoms: C_24  and  N_63
REMARK   11  A    between atoms: C_25  and  N_63
REMARK   12  A    between atoms: C_26  and  C_27
REMARK   13  A    between atoms: C_26  and  N_63
REMARK                            x       y       z     vdW  Elec       q    Type
REMARK                         _______ _______ _______ _____ _____    ______ ____
ROOT
ATOM      1  C   UNL     1      -2.067   3.501  -0.258  0.00  0.00    +0.210 A 
ATOM      2  C   UNL     1      -0.921   4.209  -0.199  0.00  0.00    +0.245 A 
ATOM      3  O   UNL     1       0.284   3.631  -0.111  0.00  0.00    -0.459 OA
ATOM      4  C   UNL     1       0.443   2.292  -0.075  0.00  0.00    +0.142 A 
ATOM      5  C   UNL     1       1.706   1.725   0.015  0.00  0.00    +0.092 A 
ATOM      6  C   UNL     1       1.840   0.348   0.049  0.00  0.00    +0.124 A 
ATOM      7  C   UNL     1       0.717  -0.475  -0.007  0.00  0.00    +0.046 A 
ATOM      8  C   UNL     1      -0.533   0.067  -0.097  0.00  0.00    +0.019 A 
ATOM      9  C   UNL     1      -0.685   1.454  -0.132  0.00  0.00    +0.068 A 
ATOM     10  C   UNL     1      -2.016   2.079  -0.222  0.00  0.00    +0.234 A 
ATOM     11  O   UNL     1      -3.032   1.405  -0.269  0.00  0.00    -0.283 OA
ENDROOT
BRANCH   1  12
ATOM     12  O   UNL     1      -3.264   4.142  -0.347  0.00  0.00    -0.449 OA
BRANCH  12  18
ATOM     13  C   UNL     1      -4.037   8.228   2.209  0.00  0.00    +0.044 C 
ATOM     14  C   UNL     1      -3.637   7.526   0.936  0.00  0.00    -0.047 A 
ATOM     15  C   UNL     1      -3.272   8.264  -0.174  0.00  0.00    +0.007 A 
ATOM     16  C   UNL     1      -2.905   7.623  -1.343  0.00  0.00    -0.047 A 
ATOM     17  C   UNL     1      -2.902   6.243  -1.404  0.00  0.00    +0.049 A 
ATOM     18  C   UNL     1      -3.267   5.500  -0.290  0.00  0.00    +0.129 A 
ATOM     19  C   UNL     1      -3.640   6.145   0.880  0.00  0.00    +0.049 A 
ATOM     20  C   UNL     1      -2.508   8.431  -2.552  0.00  0.00    +0.044 C 
ENDBRANCH  12  18
ENDBRANCH   1  12
BRANCH   6  21
ATOM     21  O   UNL     1       3.076  -0.206   0.138  0.00  0.00    -0.489 OA
BRANCH  21  22
ATOM     22  C   UNL     1       3.147  -1.633   0.168  0.00  0.00    +0.258 C 
BRANCH  22  23
ATOM     23  C   UNL     1       4.610  -2.069   0.269  0.00  0.00    +0.135 C 
BRANCH  23  24
ATOM     24  O   UNL     1       5.305  -1.681  -0.917  0.00  0.00    -0.390 OA
ATOM     25  H   UNL     1       4.947  -2.069  -1.728  0.00  0.00    +0.210 HD
ENDBRANCH  23  24
BRANCH  23  26
ATOM     26  C   UNL     1       4.679  -3.589   0.427  0.00  0.00    -0.044 C 
BRANCH  26  28
ATOM     27  C   UNL     1       6.239  -5.429   0.213  0.00  0.00    -0.096 C 
ATOM     28  N   UNL     1       6.099  -3.991   0.523  0.00  0.00    +0.382 N 
ATOM     29  H   UNL     1       6.646  -3.448  -0.155  0.00  0.00    -0.082 HD
BRANCH  28  30
ATOM     30  C   UNL     1       6.611  -3.716   1.882  0.00  0.00    -0.043 C 
BRANCH  30  31
ATOM     31  C   UNL     1       8.103  -3.925   1.891  0.00  0.00    -0.064 A 
ATOM     32  C   UNL     1       8.625  -5.163   2.213  0.00  0.00    +0.002 A 
ATOM     33  C   UNL     1       9.994  -5.356   2.216  0.00  0.00    +0.000 A 
ATOM     34  C   UNL     1      10.841  -4.308   1.908  0.00  0.00    +0.000 A 
ATOM     35  C   UNL     1      10.319  -3.068   1.592  0.00  0.00    +0.000 A 
ATOM     36  C   UNL     1       8.950  -2.876   1.584  0.00  0.00    +0.002 A 
ENDBRANCH  30  31
ENDBRANCH  28  30
ENDBRANCH  26  28
ENDBRANCH  23  26
ENDBRANCH  22  23
ENDBRANCH  21  22
ENDBRANCH   6  21
TORSDOF 10
