REMARK  Name = ZINC04941229
REMARK  3 active torsions:
REMARK  status: ('A' for Active; 'I' for Inactive)
REMARK    1  A    between atoms: C_9  and  C_12
REMARK    2  A    between atoms: C_12  and  N_13
REMARK    3  A    between atoms: C_14  and  C_16
REMARK                            x       y       z     vdW  Elec       q    Type
REMARK                         _______ _______ _______ _____ _____    ______ ____
ROOT
ATOM      1  N   UNL     1      -2.112   5.794  -0.958  0.00  0.00    -0.312 N 
ATOM      2  C   UNL     1      -1.510   5.123   0.044  0.00  0.00    +0.219 C 
ATOM      3  O   UNL     1      -0.985   5.731   0.952  0.00  0.00    -0.275 OA
ATOM      4  H   UNL     1      -2.533   5.307  -1.684  0.00  0.00    +0.149 HD
ENDROOT
BRANCH   2   5
ATOM      5  C   UNL     1      -1.490   3.616   0.036  0.00  0.00    +0.048 C 
ATOM      6  C   UNL     1      -0.773   3.123  -1.223  0.00  0.00    +0.019 C 
ATOM      7  C   UNL     1      -0.753   1.593  -1.232  0.00  0.00    -0.009 C 
ATOM      8  C   UNL     1      -0.013   1.086   0.008  0.00  0.00    +0.007 C 
ATOM      9  C   UNL     1      -0.729   1.579   1.267  0.00  0.00    -0.009 C 
ATOM     10  C   UNL     1      -0.750   3.109   1.275  0.00  0.00    +0.019 C 
ATOM     11  C   UNL     1      -2.164   1.050   1.278  0.00  0.00    +0.007 C 
ATOM     12  C   UNL     1      -2.904   1.556   0.038  0.00  0.00    -0.009 C 
ATOM     13  C   UNL     1      -2.188   1.063  -1.221  0.00  0.00    +0.007 C 
ATOM     14  C   UNL     1      -2.925   3.086   0.047  0.00  0.00    +0.019 C 
ENDBRANCH   2   5
BRANCH   1  15
ATOM     15  C   UNL     1      -2.132   7.259  -0.950  0.00  0.00    +0.138 C 
BRANCH  15  24
ATOM     16  C   UNL     1      -7.405   7.086  -3.606  0.00  0.00    +0.000 C 
ATOM     17  C   UNL     1      -6.068   6.679  -4.229  0.00  0.00    +0.005 C 
ATOM     18  C   UNL     1      -5.155   7.904  -4.323  0.00  0.00    +0.065 C 
ATOM     19  C   UNL     1      -4.919   8.471  -2.922  0.00  0.00    +0.171 C 
ATOM     20  C   UNL     1      -6.254   8.874  -2.294  0.00  0.00    +0.065 C 
ATOM     21  C   UNL     1      -7.165   7.648  -2.203  0.00  0.00    +0.005 C 
ATOM     22  O   UNL     1      -4.059   9.614  -3.004  0.00  0.00    -0.346 OA
ATOM     23  C   UNL     1      -2.873   9.314  -2.240  0.00  0.00    +0.196 C 
ATOM     24  C   UNL     1      -2.872   7.766  -2.189  0.00  0.00    +0.164 C 
ATOM     25  O   UNL     1      -4.288   7.473  -2.104  0.00  0.00    -0.342 OA
ENDBRANCH  15  24
ENDBRANCH   1  15
TORSDOF 3
