REMARK  Name = ZINC36370257
REMARK  5 active torsions:
REMARK  status: ('A' for Active; 'I' for Inactive)
REMARK    1  A    between atoms: C_3  and  O_24
REMARK    2  A    between atoms: C_4  and  C_8
REMARK    3  A    between atoms: N_9  and  N_10
REMARK    4  A    between atoms: C_11  and  C_13
REMARK    5  A    between atoms: C_13  and  C_14
REMARK                            x       y       z     vdW  Elec       q    Type
REMARK                         _______ _______ _______ _____ _____    ______ ____
ROOT
ATOM      1  N   UNL     1       4.782   1.354   0.272  0.00  0.00    -0.207 N 
ATOM      2  C   UNL     1       5.935   2.024   0.466  0.00  0.00    +0.233 C 
ATOM      3  O   UNL     1       6.992   1.429   0.452  0.00  0.00    -0.274 OA
ATOM      4  H   UNL     1       3.937   1.830   0.283  0.00  0.00    +0.177 HD
ENDROOT
BRANCH   1   6
ATOM      5  C   UNL     1       3.707  -0.658  -0.241  0.00  0.00    +0.142 C 
ATOM      6  N   UNL     1       4.804  -0.029   0.053  0.00  0.00    -0.188 NA
BRANCH   5  10
ATOM      7  C   UNL     1       0.214   1.532  -1.262  0.00  0.00    +0.019 A 
ATOM      8  C   UNL     1       0.094   0.264  -0.726  0.00  0.00    +0.047 A 
ATOM      9  C   UNL     1       1.227  -0.459  -0.390  0.00  0.00    +0.126 A 
ATOM     10  C   UNL     1       2.495   0.102  -0.595  0.00  0.00    +0.037 A 
ATOM     11  C   UNL     1       2.604   1.384  -1.137  0.00  0.00    +0.028 A 
ATOM     12  C   UNL     1       1.465   2.091  -1.466  0.00  0.00    +0.019 A 
ATOM     13 BR   UNL     1       1.613   3.827  -2.199  0.00  0.00    -0.050 Br
BRANCH   9  14
ATOM     14  O   UNL     1       1.109  -1.705   0.136  0.00  0.00    -0.506 OA
ATOM     15  H   UNL     1       1.020  -2.405  -0.525  0.00  0.00    +0.292 HD
ENDBRANCH   9  14
ENDBRANCH   5  10
ENDBRANCH   1   6
BRANCH   2  16
ATOM     16  C   UNL     1       5.911   3.513   0.701  0.00  0.00    +0.104 C 
BRANCH  16  17
ATOM     17  C   UNL     1       7.341   4.022   0.891  0.00  0.00    -0.020 C 
ATOM     18  C   UNL     1       7.975   3.325   2.097  0.00  0.00    +0.011 C 
ATOM     19  C   UNL     1       9.405   3.835   2.287  0.00  0.00    -0.010 C 
ATOM     20  C   UNL     1       9.381   5.346   2.525  0.00  0.00    +0.007 C 
ATOM     21  C   UNL     1       8.747   6.043   1.319  0.00  0.00    -0.010 C 
ATOM     22  C   UNL     1       7.317   5.533   1.129  0.00  0.00    +0.011 C 
ATOM     23  C   UNL     1       9.568   5.737   0.065  0.00  0.00    +0.007 C 
ATOM     24  C   UNL     1       9.593   4.226  -0.174  0.00  0.00    -0.010 C 
ATOM     25  C   UNL     1      10.226   3.530   1.032  0.00  0.00    +0.007 C 
ATOM     26  C   UNL     1       8.162   3.717  -0.364  0.00  0.00    +0.011 C 
ENDBRANCH  16  17
ENDBRANCH   2  16
TORSDOF 5
