REMARK  Name = ZINC42766752
REMARK  3 active torsions:
REMARK  status: ('A' for Active; 'I' for Inactive)
REMARK    1  A    between atoms: C_1  and  C_2
REMARK    2  A    between atoms: C_15  and  C_18
REMARK    3  A    between atoms: N_19  and  O_20
REMARK                            x       y       z     vdW  Elec       q    Type
REMARK                         _______ _______ _______ _____ _____    ______ ____
ROOT
ATOM      1  C   UNL     1      -0.185   1.292  -0.229  0.00  0.00    +0.033 C 
ATOM      2  C   UNL     1       0.043  -0.215  -0.089  0.00  0.00    +0.103 C 
ATOM      3  C   UNL     1       0.938  -0.710  -1.224  0.00  0.00    -0.017 A 
ATOM      4  C   UNL     1       0.498  -0.842  -2.540  0.00  0.00    +0.013 A 
ATOM      5  C   UNL     1       1.347  -1.284  -3.496  0.00  0.00    +0.046 A 
ATOM      6  S   UNL     1       2.849  -1.542  -2.563  0.00  0.00    -0.101 S 
ATOM      7  C   UNL     1       2.232  -1.047  -0.976  0.00  0.00    -0.004 A 
ATOM      8  C   UNL     1       2.956  -1.010   0.331  0.00  0.00    +0.061 C 
ATOM      9  C   UNL     1       2.151  -0.149   1.316  0.00  0.00    +0.112 C 
ATOM     10  N   UNL     1       0.728  -0.498   1.180  0.00  0.00    -0.308 N 
ATOM     11  C   UNL     1       0.042  -1.087   2.233  0.00  0.00    +0.122 A 
ATOM     12  C   UNL     1      -1.344  -1.208   2.168  0.00  0.00    +0.044 A 
ATOM     13  C   UNL     1      -2.019  -1.795   3.219  0.00  0.00    +0.016 A 
ATOM     14  C   UNL     1      -1.276  -2.249   4.317  0.00  0.00    +0.036 A 
ATOM     15  C   UNL     1       0.108  -2.092   4.310  0.00  0.00    +0.124 A 
ATOM     16  N   UNL     1       0.716  -1.531   3.284  0.00  0.00    -0.240 NA
ENDROOT
BRANCH  14  17
ATOM     17  C   UNL     1      -1.953  -2.884   5.469  0.00  0.00    +0.164 C 
ATOM     18  N   UNL     1      -3.247  -3.025   5.467  0.00  0.00    -0.071 NA
ATOM     19  N   UNL     1      -1.210  -3.329   6.549  0.00  0.00    -0.340 N 
ATOM     20  H   UNL     1      -0.245  -3.224   6.551  0.00  0.00    +0.144 HD
ATOM     21  H   UNL     1      -1.653  -3.746   7.305  0.00  0.00    +0.144 HD
BRANCH  18  22
ATOM     22  O   UNL     1      -3.894  -3.634   6.569  0.00  0.00    -0.408 OA
ATOM     23  H   UNL     1      -4.855  -3.694   6.477  0.00  0.00    +0.328 HD
ENDBRANCH  18  22
ENDBRANCH  14  17
TORSDOF 2
