REMARK  Name = ZINC32991090
REMARK  11 active torsions:
REMARK  status: ('A' for Active; 'I' for Inactive)
REMARK    1  A    between atoms: C_1  and  C_2
REMARK    2  A    between atoms: C_2  and  C_3
REMARK    3  A    between atoms: C_3  and  C_31
REMARK    4  A    between atoms: N_6  and  C_10
REMARK    5  A    between atoms: C_10  and  C_11
REMARK    6  A    between atoms: C_11  and  O_13
REMARK    7  A    between atoms: O_13  and  C_14
REMARK    8  A    between atoms: C_17  and  N_20
REMARK    9  A    between atoms: N_20  and  C_21
REMARK   10  A    between atoms: N_20  and  S_22
REMARK   11  A    between atoms: S_22  and  C_25
REMARK                            x       y       z     vdW  Elec       q    Type
REMARK                         _______ _______ _______ _____ _____    ______ ____
ROOT
ATOM      1  C   UNL     1       1.656   4.307  -2.295  0.00  0.00    +0.330 C 
ATOM      2  O   UNL     1       0.563   4.784  -2.490  0.00  0.00    -0.249 OA
ENDROOT
BRANCH   1   3
ATOM      3  C   UNL     1       2.879   4.960  -2.885  0.00  0.00    +0.238 C 
BRANCH   3   7
ATOM      4  C   UNL     1       1.947   8.280  -4.264  0.00  0.00    +0.138 C 
ATOM      5  C   UNL     1       2.384   7.385  -3.122  0.00  0.00    +0.252 C 
ATOM      6  O   UNL     1       2.601   7.713  -1.975  0.00  0.00    -0.272 OA
ATOM      7  N   UNL     1       2.481   6.147  -3.646  0.00  0.00    -0.213 N 
ATOM      8  C   UNL     1       2.174   6.137  -4.948  0.00  0.00    +0.310 C 
ATOM      9  O   UNL     1       2.192   5.137  -5.639  0.00  0.00    -0.252 OA
ATOM     10  N   UNL     1       1.838   7.356  -5.406  0.00  0.00    -0.281 N 
ATOM     11  H   UNL     1       1.528   7.734  -6.391  0.00  0.00    +0.152 HD
BRANCH   4  12
ATOM     12  C   UNL     1       2.983   9.341  -4.532  0.00  0.00    -0.015 A 
ATOM     13  C   UNL     1       2.904  10.563  -3.892  0.00  0.00    +0.006 A 
ATOM     14  C   UNL     1       3.857  11.534  -4.134  0.00  0.00    +0.000 A 
ATOM     15  C   UNL     1       4.884  11.287  -5.026  0.00  0.00    +0.000 A 
ATOM     16  C   UNL     1       4.961  10.066  -5.671  0.00  0.00    +0.000 A 
ATOM     17  C   UNL     1       4.010   9.093  -5.424  0.00  0.00    +0.006 A 
ENDBRANCH   4  12
BRANCH   4  19
ATOM     18  C   UNL     1      -0.453   7.823  -3.741  0.00  0.00    +0.007 C 
ATOM     19  C   UNL     1       0.591   8.920  -3.958  0.00  0.00    +0.037 C 
ENDBRANCH   4  19
ENDBRANCH   3   7
ENDBRANCH   1   3
BRANCH   1  20
ATOM     20  O   UNL     1       1.780   3.195  -1.553  0.00  0.00    -0.425 OA
BRANCH  20  21
ATOM     21  C   UNL     1       0.634   2.640  -1.076  0.00  0.00    +0.132 A 
ATOM     22  C   UNL     1      -0.186   1.908  -1.922  0.00  0.00    +0.048 A 
ATOM     23  C   UNL     1      -1.351   1.345  -1.438  0.00  0.00    +0.028 A 
ATOM     24  C   UNL     1      -1.703   1.516  -0.105  0.00  0.00    +0.051 A 
ATOM     25  C   UNL     1      -0.878   2.244   0.742  0.00  0.00    +0.028 A 
ATOM     26  C   UNL     1       0.286   2.807   0.257  0.00  0.00    +0.048 A 
BRANCH  24  27
ATOM     27  N   UNL     1      -2.885   0.950   0.384  0.00  0.00    -0.206 N 
ATOM     28  C   UNL     1      -4.143   1.138  -0.343  0.00  0.00    +0.157 C 
BRANCH  27  29
ATOM     29  S   UNL     1      -2.862   0.068   1.785  0.00  0.00    +0.074 S 
ATOM     30  O   UNL     1      -3.749  -1.025   1.591  0.00  0.00    -0.150 OA
ATOM     31  O   UNL     1      -1.495  -0.112   2.130  0.00  0.00    -0.150 OA
BRANCH  29  32
ATOM     32  C   UNL     1      -3.571   1.074   3.046  0.00  0.00    +0.109 A 
ATOM     33  C   UNL     1      -2.754   1.800   3.892  0.00  0.00    +0.029 A 
ATOM     34  C   UNL     1      -3.310   2.594   4.878  0.00  0.00    +0.002 A 
ATOM     35  C   UNL     1      -4.683   2.653   5.024  0.00  0.00    +0.000 A 
ATOM     36  C   UNL     1      -5.500   1.922   4.182  0.00  0.00    +0.002 A 
ATOM     37  C   UNL     1      -4.944   1.133   3.193  0.00  0.00    +0.029 A 
ENDBRANCH  29  32
ENDBRANCH  27  29
ENDBRANCH  24  27
ENDBRANCH  20  21
ENDBRANCH   1  20
TORSDOF 9
