REMARK  Name = ZINC08620360
REMARK  8 active torsions:
REMARK  status: ('A' for Active; 'I' for Inactive)
REMARK    1  A    between atoms: C_1  and  C_2
REMARK    2  A    between atoms: C_2  and  N_3
REMARK    3  A    between atoms: C_4  and  C_31
REMARK    4  A    between atoms: C_7  and  S_8
REMARK    5  A    between atoms: S_8  and  C_9
REMARK    6  A    between atoms: C_9  and  C_11
REMARK    7  A    between atoms: C_9  and  C_12
REMARK    8  A    between atoms: N_14  and  C_15
REMARK                            x       y       z     vdW  Elec       q    Type
REMARK                         _______ _______ _______ _____ _____    ______ ____
ROOT
ATOM      1  C   UNL     1      -0.836   1.665   1.160  0.00  0.00    +0.230 C 
ATOM      2  O   UNL     1      -0.584   2.755   1.628  0.00  0.00    -0.274 OA
ATOM      3  N   UNL     1      -1.761   0.878   1.746  0.00  0.00    -0.285 N 
ATOM      4  H   UNL     1      -2.018   0.040   1.330  0.00  0.00    +0.155 HD
ENDROOT
BRANCH   3   5
ATOM      5  C   UNL     1      -2.347   1.268   2.949  0.00  0.00    +0.034 A 
ATOM      6  C   UNL     1      -3.673   0.943   3.211  0.00  0.00    +0.024 A 
ATOM      7  C   UNL     1      -4.262   1.319   4.401  0.00  0.00    +0.014 A 
ATOM      8  C   UNL     1      -3.530   2.040   5.344  0.00  0.00    +0.033 A 
ATOM      9  C   UNL     1      -2.189   2.377   5.080  0.00  0.00    +0.035 A 
ATOM     10  C   UNL     1      -1.604   1.988   3.881  0.00  0.00    +0.035 A 
ATOM     11  C   UNL     1      -1.408   3.140   6.076  0.00  0.00    +0.195 C 
ATOM     12  O   UNL     1      -0.250   3.431   5.849  0.00  0.00    -0.287 OA
ATOM     13  C   UNL     1      -2.038   3.550   7.349  0.00  0.00    +0.033 A 
ATOM     14  C   UNL     1      -1.311   4.269   8.293  0.00  0.00    +0.012 A 
ATOM     15  C   UNL     1      -1.909   4.648   9.482  0.00  0.00    +0.001 A 
ATOM     16  C   UNL     1      -3.227   4.317   9.739  0.00  0.00    +0.001 A 
ATOM     17  C   UNL     1      -3.964   3.602   8.812  0.00  0.00    +0.012 A 
ATOM     18  C   UNL     1      -3.378   3.213   7.611  0.00  0.00    +0.033 A 
ATOM     19  C   UNL     1      -4.158   2.449   6.615  0.00  0.00    +0.195 C 
ATOM     20  O   UNL     1      -5.316   2.159   6.842  0.00  0.00    -0.287 OA
ENDBRANCH   3   5
BRANCH   1  21
ATOM     21  C   UNL     1      -0.117   1.190  -0.076  0.00  0.00    +0.137 C 
ATOM     22  C   UNL     1      -0.959   1.511  -1.312  0.00  0.00    +0.029 C 
BRANCH  21  23
ATOM     23  S   UNL     1       1.483   2.028  -0.202  0.00  0.00    -0.074 S 
BRANCH  23  28
ATOM     24  N   UNL     1       3.373   1.429  -2.176  0.00  0.00    -0.300 N 
ATOM     25  C   UNL     1       3.461   0.548  -3.231  0.00  0.00    +0.200 A 
ATOM     26  N   UNL     1       2.339  -0.137  -3.255  0.00  0.00    -0.125 NA
ATOM     27  N   UNL     1       1.571   0.246  -2.298  0.00  0.00    -0.122 NA
ATOM     28  C   UNL     1       2.154   1.198  -1.604  0.00  0.00    +0.193 A 
BRANCH  25  29
ATOM     29  C   UNL     1       4.593   0.406  -4.160  0.00  0.00    +0.172 A 
ATOM     30  C   UNL     1       4.569  -0.247  -5.356  0.00  0.00    +0.053 A 
ATOM     31  C   UNL     1       5.860  -0.131  -5.907  0.00  0.00    +0.042 A 
ATOM     32  C   UNL     1       6.604   0.570  -5.028  0.00  0.00    +0.196 A 
ATOM     33  O   UNL     1       5.836   0.892  -3.974  0.00  0.00    -0.460 OA
ENDBRANCH  25  29
BRANCH  24  35
ATOM     34  C   UNL     1       5.323   1.759  -0.737  0.00  0.00    +0.027 C 
ATOM     35  C   UNL     1       4.379   2.406  -1.752  0.00  0.00    +0.122 C 
ENDBRANCH  24  35
ENDBRANCH  23  28
ENDBRANCH  21  23
ENDBRANCH   1  21
TORSDOF 6
