REMARK  Name = ZINC21864690
REMARK  10 active torsions:
REMARK  status: ('A' for Active; 'I' for Inactive)
REMARK    1  A    between atoms: C_1  and  C_2
REMARK    2  A    between atoms: C_2  and  C_3
REMARK    3  A    between atoms: C_2  and  C_4
REMARK    4  A    between atoms: C_4  and  C_5
REMARK    5  A    between atoms: C_5  and  N_6
REMARK    6  A    between atoms: C_7  and  C_9
REMARK    7  A    between atoms: C_9  and  C_34
REMARK    8  A    between atoms: C_12  and  C_29
REMARK    9  A    between atoms: N_18  and  C_19
REMARK   10  A    between atoms: C_19  and  C_20
REMARK                            x       y       z     vdW  Elec       q    Type
REMARK                         _______ _______ _______ _____ _____    ______ ____
ROOT
ATOM      1  C   UNL     1      -5.239   4.135   1.394  0.00  0.00    +0.129 C 
ATOM      2  C   UNL     1      -4.247   3.312   0.572  0.00  0.00    +0.157 C 
ATOM      3  N   UNL     1      -3.110   4.159   0.201  0.00  0.00    -0.331 N 
ATOM      4  C   UNL     1      -1.817   3.827  -0.037  0.00  0.00    +0.085 A 
ATOM      5  C   UNL     1      -1.129   4.983  -0.374  0.00  0.00    +0.032 A 
ATOM      6  C   UNL     1      -2.035   6.044  -0.341  0.00  0.00    +0.033 A 
ATOM      7  C   UNL     1      -3.249   5.531   0.023  0.00  0.00    +0.105 A 
ATOM      8  C   UNL     1      -4.542   6.190   0.235  0.00  0.00    +0.264 C 
ATOM      9  O   UNL     1      -4.729   7.351  -0.077  0.00  0.00    -0.268 OA
ATOM     10  N   UNL     1      -5.516   5.437   0.798  0.00  0.00    -0.276 N 
ATOM     11  C   UNL     1      -6.550   3.356   1.513  0.00  0.00    +0.043 C 
ENDROOT
BRANCH   4  12
ATOM     12  C   UNL     1      -1.243   2.478   0.054  0.00  0.00    +0.151 A 
ATOM     13  C   UNL     1       0.075   2.156  -0.091  0.00  0.00    +0.051 A 
ATOM     14  C   UNL     1       0.172   0.762   0.072  0.00  0.00    +0.042 A 
ATOM     15  C   UNL     1      -1.075   0.303   0.306  0.00  0.00    +0.196 A 
ATOM     16  O   UNL     1      -1.927   1.340   0.289  0.00  0.00    -0.461 OA
ENDBRANCH   4  12
BRANCH   1  18
ATOM     17  N   UNL     1      -5.085   5.384   3.523  0.00  0.00    -0.313 N 
ATOM     18  C   UNL     1      -4.672   4.343   2.775  0.00  0.00    +0.238 C 
ATOM     19  O   UNL     1      -3.843   3.573   3.212  0.00  0.00    -0.273 OA
ATOM     20  H   UNL     1      -5.894   6.035   3.161  0.00  0.00    +0.149 HD
BRANCH  17  21
ATOM     21  C   UNL     1      -4.458   5.649   4.821  0.00  0.00    +0.104 C 
BRANCH  21  22
ATOM     22  C   UNL     1      -5.188   6.800   5.515  0.00  0.00    +0.022 C 
BRANCH  22  24
ATOM     23  C   UNL     1      -3.072   7.684   6.506  0.00  0.00    +0.007 C 
ATOM     24  C   UNL     1      -4.470   7.146   6.820  0.00  0.00    -0.016 C 
ATOM     25  C   UNL     1      -5.268   8.211   7.575  0.00  0.00    +0.007 C 
ENDBRANCH  22  24
ENDBRANCH  21  22
ENDBRANCH  17  21
ENDBRANCH   1  18
BRANCH  10  26
ATOM     26  C   UNL     1      -6.890   5.945   0.808  0.00  0.00    +0.144 C 
BRANCH  26  27
ATOM     27  C   UNL     1      -7.554   5.625  -0.506  0.00  0.00    -0.026 A 
ATOM     28  C   UNL     1      -8.367   4.512  -0.616  0.00  0.00    +0.009 A 
ATOM     29  C   UNL     1      -8.979   4.215  -1.819  0.00  0.00    +0.050 A 
ATOM     30  C   UNL     1      -8.778   5.032  -2.920  0.00  0.00    +0.166 A 
ATOM     31  C   UNL     1      -7.959   6.153  -2.809  0.00  0.00    +0.167 A 
ATOM     32  C   UNL     1      -7.354   6.448  -1.599  0.00  0.00    +0.054 A 
ATOM     33  O   UNL     1      -7.923   6.788  -4.018  0.00  0.00    -0.453 OA
ATOM     34  C   UNL     1      -9.049   6.276  -4.754  0.00  0.00    +0.466 C 
ATOM     35  O   UNL     1      -9.255   4.965  -4.197  0.00  0.00    -0.453 OA
ENDBRANCH  26  27
ENDBRANCH  10  26
TORSDOF 7
