REMARK  Name = ZINC33760323
REMARK  15 active torsions:
REMARK  status: ('A' for Active; 'I' for Inactive)
REMARK    1  A    between atoms: C_1  and  C_2
REMARK    2  A    between atoms: C_2  and  O_3
REMARK    3  A    between atoms: O_3  and  C_4
REMARK    4  A    between atoms: C_7  and  C_13
REMARK    5  A    between atoms: C_9  and  O_10
REMARK    6  A    between atoms: O_10  and  C_11
REMARK    7  A    between atoms: C_11  and  C_12
REMARK    8  A    between atoms: C_15  and  C_16
REMARK    9  A    between atoms: C_16  and  C_17
REMARK   10  A    between atoms: C_20  and  O_23
REMARK   11  A    between atoms: O_23  and  C_24
REMARK   12  A    between atoms: N_30  and  C_31
REMARK   13  A    between atoms: C_31  and  C_32
REMARK   14  A    between atoms: C_32  and  O_33
REMARK   15  A    between atoms: O_33  and  C_34
REMARK                            x       y       z     vdW  Elec       q    Type
REMARK                         _______ _______ _______ _____ _____    ______ ____
ROOT
ATOM      1  C   UNL     1      -3.824   1.717  -0.075  0.00  0.00    +0.145 C 
ATOM      2  C   UNL     1      -3.310   3.114   0.185  0.00  0.00    +0.076 C 
ATOM      3  C   UNL     1      -4.416   3.967   0.057  0.00  0.00    +0.249 C 
ATOM      4  O   UNL     1      -4.405   5.177   0.197  0.00  0.00    -0.282 OA
ATOM      5  C   UNL     1      -5.605   3.138  -0.280  0.00  0.00    +0.288 C 
ATOM      6  O   UNL     1      -6.725   3.570  -0.462  0.00  0.00    -0.266 OA
ATOM      7  N   UNL     1      -5.257   1.843  -0.357  0.00  0.00    -0.281 N 
ENDROOT
BRANCH   1  11
ATOM      8  C   UNL     1      -1.809   0.015  -3.441  0.00  0.00    +0.162 A 
ATOM      9  C   UNL     1      -1.534  -0.441  -2.162  0.00  0.00    +0.050 A 
ATOM     10  C   UNL     1      -2.186   0.111  -1.075  0.00  0.00    +0.009 A 
ATOM     11  C   UNL     1      -3.114   1.119  -1.262  0.00  0.00    -0.019 A 
ATOM     12  C   UNL     1      -3.397   1.575  -2.536  0.00  0.00    +0.055 A 
ATOM     13  C   UNL     1      -2.742   1.029  -3.629  0.00  0.00    +0.162 A 
BRANCH   8  14
ATOM     14  O   UNL     1      -1.167  -0.527  -4.510  0.00  0.00    -0.489 OA
BRANCH  14  16
ATOM     15  C   UNL     1       0.394  -2.046  -5.558  0.00  0.00    +0.048 C 
ATOM     16  C   UNL     1      -0.221  -1.564  -4.242  0.00  0.00    +0.226 C 
ENDBRANCH  14  16
ENDBRANCH   8  14
BRANCH  13  17
ATOM     17  O   UNL     1      -3.016   1.480  -4.882  0.00  0.00    -0.489 OA
BRANCH  17  18
ATOM     18  C   UNL     1      -4.073   2.433  -5.013  0.00  0.00    +0.226 C 
ATOM     19  C   UNL     1      -4.309   2.734  -6.494  0.00  0.00    +0.048 C 
ENDBRANCH  17  18
ENDBRANCH  13  17
ENDBRANCH   1  11
BRANCH   2  20
ATOM     20  C   UNL     1      -2.012   3.478   0.489  0.00  0.00    +0.195 C 
ATOM     21  O   UNL     1      -1.675   4.784   0.556  0.00  0.00    -0.287 OA
BRANCH  20  22
ATOM     22  C   UNL     1      -0.997   2.443   0.738  0.00  0.00    +0.022 A 
ATOM     23  C   UNL     1       0.183   2.420  -0.015  0.00  0.00    +0.015 A 
ATOM     24  C   UNL     1       1.127   1.447   0.219  0.00  0.00    +0.046 A 
ATOM     25  C   UNL     1       0.915   0.492   1.208  0.00  0.00    +0.120 A 
ATOM     26  C   UNL     1      -0.254   0.513   1.961  0.00  0.00    +0.046 A 
ATOM     27  C   UNL     1      -1.206   1.479   1.732  0.00  0.00    +0.015 A 
BRANCH  25  28
ATOM     28  O   UNL     1       1.851  -0.463   1.438  0.00  0.00    -0.495 OA
ATOM     29  C   UNL     1       1.570  -1.412   2.468  0.00  0.00    +0.277 C 
ENDBRANCH  25  28
ENDBRANCH  20  22
ENDBRANCH   2  20
BRANCH   7  30
ATOM     30  C   UNL     1      -6.164   0.735  -0.667  0.00  0.00    +0.137 C 
BRANCH  30  31
ATOM     31  C   UNL     1      -6.770   0.194   0.630  0.00  0.00    +0.178 C 
BRANCH  31  32
ATOM     32  O   UNL     1      -7.591   1.199   1.227  0.00  0.00    -0.381 OA
ATOM     33  C   UNL     1      -8.209   0.794   2.450  0.00  0.00    +0.194 C 
ENDBRANCH  31  32
ENDBRANCH  30  31
ENDBRANCH   7  30
TORSDOF 11
