REMARK  Name = ZINC59170637
REMARK  9 active torsions:
REMARK  status: ('A' for Active; 'I' for Inactive)
REMARK    1  A    between atoms: C_1  and  C_2
REMARK    2  A    between atoms: C_2  and  C_3
REMARK    3  A    between atoms: C_6  and  N_9
REMARK    4  A    between atoms: C_10  and  C_12
REMARK    5  A    between atoms: C_16  and  N_34
REMARK    6  A    between atoms: N_22  and  N_23
REMARK    7  A    between atoms: N_23  and  S_24
REMARK    8  A    between atoms: S_24  and  C_27
REMARK    9  A    between atoms: C_30  and  C_33
REMARK                            x       y       z     vdW  Elec       q    Type
REMARK                         _______ _______ _______ _____ _____    ______ ____
ROOT
ATOM      1  C   UNL     1       5.002  -2.099  -5.962  0.00  0.00    +0.099 A 
ATOM      2  C   UNL     1       6.385  -2.350  -5.847  0.00  0.00    +0.030 A 
ATOM      3  C   UNL     1       7.016  -3.050  -6.885  0.00  0.00    +0.020 A 
ATOM      4  C   UNL     1       8.392  -3.344  -6.853  0.00  0.00    +0.044 A 
ATOM      5  C   UNL     1       8.954  -4.028  -7.888  0.00  0.00    +0.127 A 
ATOM      6  C   UNL     1       8.195  -4.442  -8.980  0.00  0.00    +0.036 A 
ATOM      7  C   UNL     1       6.847  -4.181  -9.062  0.00  0.00    +0.049 A 
ATOM      8  C   UNL     1       6.216  -3.485  -8.033  0.00  0.00    +0.138 A 
ATOM      9  O   UNL     1       4.904  -3.211  -8.074  0.00  0.00    -0.437 OA
ATOM     10  C   UNL     1       4.302  -2.547  -7.081  0.00  0.00    +0.225 A 
ATOM     11  N   UNL     1       2.963  -2.297  -7.168  0.00  0.00    -0.260 N 
ATOM     12  H   UNL     1       2.498  -1.881  -6.425  0.00  0.00    +0.189 HD
ENDROOT
BRANCH   1  14
ATOM     13  N   UNL     1       4.354  -0.018  -4.841  0.00  0.00    -0.281 N 
ATOM     14  C   UNL     1       4.292  -1.363  -4.890  0.00  0.00    +0.253 C 
ATOM     15  O   UNL     1       3.653  -1.973  -4.056  0.00  0.00    -0.270 OA
ATOM     16  H   UNL     1       4.782   0.475  -5.559  0.00  0.00    +0.155 HD
BRANCH  13  20
ATOM     17  C   UNL     1       2.712   2.026  -1.605  0.00  0.00    -0.048 A 
ATOM     18  C   UNL     1       3.611   2.665  -2.440  0.00  0.00    +0.005 A 
ATOM     19  C   UNL     1       4.158   1.990  -3.514  0.00  0.00    +0.023 A 
ATOM     20  C   UNL     1       3.804   0.668  -3.755  0.00  0.00    +0.034 A 
ATOM     21  C   UNL     1       2.900   0.030  -2.914  0.00  0.00    +0.023 A 
ATOM     22  C   UNL     1       2.361   0.709  -1.839  0.00  0.00    +0.005 A 
BRANCH  17  24
ATOM     23  C   UNL     1       3.010   2.577   0.794  0.00  0.00    +0.009 C 
ATOM     24  C   UNL     1       2.117   2.766  -0.435  0.00  0.00    +0.032 C 
ENDBRANCH  17  24
ENDBRANCH  13  20
ENDBRANCH   1  14
BRANCH   5  25
ATOM     25  N   UNL     1      10.401  -4.336  -7.852  0.00  0.00    +0.056 N 
ATOM     26  O   UNL     1      11.131  -3.950  -6.827  0.00  0.00    -0.126 OA
ATOM     27  O   UNL     1      10.958  -4.996  -8.846  0.00  0.00    -0.126 OA
ENDBRANCH   5  25
BRANCH  11  28
ATOM     28  N   UNL     1       2.316  -2.615  -8.238  0.00  0.00    -0.157 N 
ATOM     29  H   UNL     1       2.764  -3.097  -8.950  0.00  0.00    +0.194 HD
BRANCH  28  30
ATOM     30  S   UNL     1       0.721  -2.198  -8.395  0.00  0.00    +0.085 S 
ATOM     31  O   UNL     1       0.384  -2.390  -9.762  0.00  0.00    -0.149 OA
ATOM     32  O   UNL     1       0.026  -2.848  -7.340  0.00  0.00    -0.149 OA
BRANCH  30  33
ATOM     33  C   UNL     1       0.602  -0.468  -8.086  0.00  0.00    +0.110 A 
ATOM     34  C   UNL     1       0.489  -0.003  -6.788  0.00  0.00    +0.029 A 
ATOM     35  C   UNL     1       0.395   1.354  -6.546  0.00  0.00    +0.005 A 
ATOM     36  C   UNL     1       0.415   2.248  -7.600  0.00  0.00    -0.050 A 
ATOM     37  C   UNL     1       0.529   1.784  -8.898  0.00  0.00    +0.005 A 
ATOM     38  C   UNL     1       0.627   0.426  -9.140  0.00  0.00    +0.029 A 
ATOM     39  C   UNL     1       0.312   3.728  -7.336  0.00  0.00    +0.044 C 
ENDBRANCH  30  33
ENDBRANCH  28  30
ENDBRANCH  11  28
TORSDOF 7
