REMARK  Name = ZINC13124140
REMARK  5 active torsions:
REMARK  status: ('A' for Active; 'I' for Inactive)
REMARK    1  A    between atoms: C_3  and  C_6
REMARK    2  A    between atoms: C_6  and  N_7
REMARK    3  A    between atoms: C_8  and  C_10
REMARK    4  A    between atoms: C_15  and  C_29
REMARK    5  A    between atoms: C_18  and  C_21
REMARK                            x       y       z     vdW  Elec       q    Type
REMARK                         _______ _______ _______ _____ _____    ______ ____
ROOT
ATOM      1  C   UNL     1       5.934   0.556   2.968  0.00  0.00    +0.149 A 
ATOM      2  C   UNL     1       7.293   0.528   3.355  0.00  0.00    +0.078 A 
ATOM      3  C   UNL     1       7.332   0.520   4.702  0.00  0.00    +0.119 A 
ATOM      4  N   UNL     1       6.048   0.539   5.165  0.00  0.00    -0.238 N 
ATOM      5  N   UNL     1       5.194   0.568   4.063  0.00  0.00    -0.164 NA
ATOM      6  C   UNL     1       5.696   0.532   6.588  0.00  0.00    +0.215 C 
ATOM      7  C   UNL     1       6.897   0.023   7.393  0.00  0.00    +0.063 C 
ATOM      8  C   UNL     1       8.163   0.782   6.979  0.00  0.00    +0.104 C 
ATOM      9  N   UNL     1       8.438   0.497   5.557  0.00  0.00    -0.322 N 
ATOM     10  H   UNL     1       9.332   0.305   5.235  0.00  0.00    +0.148 HD
ENDROOT
BRANCH   8  11
ATOM     11  C   UNL     1       9.325   0.328   7.824  0.00  0.00    -0.026 A 
ATOM     12  C   UNL     1       9.982  -0.850   7.519  0.00  0.00    +0.007 A 
ATOM     13  C   UNL     1      11.048  -1.268   8.294  0.00  0.00    +0.022 A 
ATOM     14  C   UNL     1      11.458  -0.508   9.374  0.00  0.00    +0.059 A 
ATOM     15  C   UNL     1      10.800   0.671   9.679  0.00  0.00    +0.060 A 
ATOM     16  C   UNL     1       9.737   1.091   8.900  0.00  0.00    +0.027 A 
ATOM     17 CL   UNL     1      11.313   1.626  11.036  0.00  0.00    -0.082 Cl
ATOM     18 CL   UNL     1      12.796  -1.033  10.348  0.00  0.00    -0.082 Cl
ENDBRANCH   8  11
BRANCH   1  20
ATOM     19  N   UNL     1       4.101   0.607   1.347  0.00  0.00    -0.303 N 
ATOM     20  C   UNL     1       5.428   0.575   1.580  0.00  0.00    +0.265 C 
ATOM     21  O   UNL     1       6.208   0.561   0.648  0.00  0.00    -0.268 OA
ATOM     22  H   UNL     1       3.478   0.617   2.090  0.00  0.00    +0.150 HD
BRANCH  19  23
ATOM     23  C   UNL     1       3.599   0.625  -0.029  0.00  0.00    +0.179 C 
BRANCH  23  26
ATOM     24  C   UNL     1      -0.016   1.341   0.009  0.00  0.00    +0.041 A 
ATOM     25  C   UNL     1       1.331   1.769  -0.001  0.00  0.00    +0.046 A 
ATOM     26  C   UNL     1       2.092   0.660  -0.014  0.00  0.00    +0.122 A 
ATOM     27  O   UNL     1       1.282  -0.411  -0.012  0.00  0.00    -0.466 OA
ATOM     28  C   UNL     1       0.002  -0.004   0.002  0.00  0.00    +0.195 A 
ENDBRANCH  23  26
ENDBRANCH  19  23
ENDBRANCH   1  20
BRANCH   6  29
ATOM     29  C   UNL     1       4.496  -0.389   6.815  0.00  0.00    +0.412 C 
ATOM     30  F   UNL     1       4.822  -1.688   6.410  0.00  0.00    -0.168 F 
ATOM     31  F   UNL     1       4.163  -0.394   8.174  0.00  0.00    -0.168 F 
ATOM     32  F   UNL     1       3.406   0.072   6.069  0.00  0.00    -0.168 F 
ENDBRANCH   6  29
TORSDOF 5
