REMARK  Name = ZINC35862803
REMARK  8 active torsions:
REMARK  status: ('A' for Active; 'I' for Inactive)
REMARK    1  A    between atoms: C_1  and  C_2
REMARK    2  A    between atoms: C_6  and  C_8
REMARK    3  A    between atoms: C_12  and  O_24
REMARK    4  A    between atoms: C_19  and  C_21
REMARK    5  A    between atoms: O_24  and  C_25
REMARK    6  A    between atoms: C_25  and  C_26
REMARK    7  A    between atoms: C_29  and  C_31
REMARK    8  A    between atoms: N_33  and  C_34
REMARK                            x       y       z     vdW  Elec       q    Type
REMARK                         _______ _______ _______ _____ _____    ______ ____
ROOT
ATOM      1  C   UNL     1      -1.028  -4.016   3.449  0.00  0.00    +0.137 C 
ATOM      2  C   UNL     1       0.441  -4.355   3.505  0.00  0.00    -0.016 A 
ATOM      3  C   UNL     1       1.343  -3.391   3.077  0.00  0.00    +0.051 A 
ATOM      4  C   UNL     1       2.704  -3.638   3.114  0.00  0.00    +0.121 A 
ATOM      5  C   UNL     1       3.167  -4.859   3.583  0.00  0.00    +0.046 A 
ATOM      6  C   UNL     1       2.268  -5.816   4.003  0.00  0.00    +0.007 A 
ATOM      7  C   UNL     1       0.900  -5.570   3.961  0.00  0.00    -0.040 A 
ATOM      8  C   UNL     1      -0.021  -6.674   4.411  0.00  0.00    +0.054 C 
ATOM      9  C   UNL     1      -1.401  -6.122   4.764  0.00  0.00    +0.113 C 
ATOM     10  N   UNL     1      -1.823  -5.229   3.672  0.00  0.00    -0.290 N 
ATOM     11  C   UNL     1      -2.897  -5.513   2.910  0.00  0.00    +0.219 C 
ATOM     12  O   UNL     1      -3.181  -4.799   1.972  0.00  0.00    -0.275 OA
ENDROOT
BRANCH   1  18
ATOM     13  C   UNL     1      -2.950  -0.336   0.655  0.00  0.00    +0.044 C 
ATOM     14  C   UNL     1      -2.280  -1.681   0.759  0.00  0.00    -0.050 A 
ATOM     15  C   UNL     1      -1.969  -2.389  -0.387  0.00  0.00    +0.003 A 
ATOM     16  C   UNL     1      -1.354  -3.624  -0.292  0.00  0.00    +0.001 A 
ATOM     17  C   UNL     1      -1.050  -4.150   0.950  0.00  0.00    +0.006 A 
ATOM     18  C   UNL     1      -1.359  -3.442   2.095  0.00  0.00    -0.022 A 
ATOM     19  C   UNL     1      -1.970  -2.205   2.000  0.00  0.00    +0.009 A 
ENDBRANCH   1  18
BRANCH  11  20
ATOM     20  C   UNL     1      -3.745  -6.719   3.223  0.00  0.00    +0.075 C 
ATOM     21  C   UNL     1      -3.712  -7.883   2.230  0.00  0.00    +0.013 C 
ATOM     22  C   UNL     1      -4.950  -6.989   2.320  0.00  0.00    +0.013 C 
ENDBRANCH  11  20
BRANCH   4  23
ATOM     23  O   UNL     1       3.583  -2.691   2.692  0.00  0.00    -0.484 OA
BRANCH  23  24
ATOM     24  C   UNL     1       4.972  -3.018   2.760  0.00  0.00    +0.303 C 
BRANCH  24  25
ATOM     25  C   UNL     1       5.787  -1.856   2.254  0.00  0.00    +0.143 A 
ATOM     26  C   UNL     1       6.265  -0.842   3.010  0.00  0.00    +0.049 A 
ATOM     27  C   UNL     1       6.965   0.019   2.150  0.00  0.00    +0.055 A 
ATOM     28  C   UNL     1       6.878  -0.520   0.898  0.00  0.00    +0.190 A 
ATOM     29  O   UNL     1       6.163  -1.661   0.984  0.00  0.00    -0.452 OA
BRANCH  28  30
ATOM     30  C   UNL     1       7.463   0.041  -0.323  0.00  0.00    +0.284 C 
ATOM     31  O   UNL     1       8.095   1.080  -0.274  0.00  0.00    -0.266 OA
ATOM     32  N   UNL     1       7.302  -0.594  -1.501  0.00  0.00    -0.279 N 
ATOM     33  H   UNL     1       6.739  -1.382  -1.554  0.00  0.00    +0.155 HD
BRANCH  32  34
ATOM     34  C   UNL     1       7.947  -0.118  -2.646  0.00  0.00    +0.036 A 
ATOM     35  C   UNL     1       7.336  -0.235  -3.889  0.00  0.00    +0.023 A 
ATOM     36  C   UNL     1       7.975   0.236  -5.019  0.00  0.00    +0.005 A 
ATOM     37  C   UNL     1       9.222   0.825  -4.916  0.00  0.00    +0.038 A 
ATOM     38  C   UNL     1       9.835   0.944  -3.680  0.00  0.00    +0.125 A 
ATOM     39  C   UNL     1       9.197   0.478  -2.543  0.00  0.00    +0.061 A 
ATOM     40  F   UNL     1      11.053   1.519  -3.582  0.00  0.00    -0.205 F 
ENDBRANCH  32  34
ENDBRANCH  28  30
ENDBRANCH  24  25
ENDBRANCH  23  24
ENDBRANCH   4  23
TORSDOF 7
