REMARK  Name = ZINC06135160
REMARK  10 active torsions:
REMARK  status: ('A' for Active; 'I' for Inactive)
REMARK    1  A    between atoms: C_1  and  C_2
REMARK    2  A    between atoms: C_2  and  C_3
REMARK    3  A    between atoms: C_10  and  C_15
REMARK    4  A    between atoms: C_15  and  C_17
REMARK    5  A    between atoms: C_15  and  N_68
REMARK    6  A    between atoms: N_21  and  C_22
REMARK    7  A    between atoms: C_22  and  C_23
REMARK    8  A    between atoms: C_22  and  C_24
REMARK    9  A    between atoms: C_22  and  C_25
REMARK   10  A    between atoms: N_28  and  C_31
REMARK                            x       y       z     vdW  Elec       q    Type
REMARK                         _______ _______ _______ _____ _____    ______ ____
ROOT
ATOM      1  C   UNL     1       6.294  -0.606  -0.079  0.00  0.00    +0.039 C 
ENDROOT
BRANCH   1   9
ATOM      2  C   UNL     1       2.011   3.485  -1.869  0.00  0.00    -0.047 A 
ATOM      3  C   UNL     1       1.240   3.418  -0.716  0.00  0.00    +0.005 A 
ATOM      4  C   UNL     1       1.602   2.590   0.324  0.00  0.00    +0.026 A 
ATOM      5  C   UNL     1       2.750   1.811   0.220  0.00  0.00    +0.049 A 
ATOM      6  C   UNL     1       3.528   1.882  -0.951  0.00  0.00    -0.001 A 
ATOM      7  C   UNL     1       3.142   2.730  -1.994  0.00  0.00    +0.013 A 
ATOM      8  C   UNL     1       4.735   1.058  -1.051  0.00  0.00    +0.017 A 
ATOM      9  C   UNL     1       5.059   0.255  -0.008  0.00  0.00    +0.011 A 
ATOM     10  C   UNL     1       4.244   0.220   1.143  0.00  0.00    +0.251 A 
ATOM     11  O   UNL     1       4.554  -0.509   2.069  0.00  0.00    -0.268 OA
ATOM     12  N   UNL     1       3.134   0.973   1.245  0.00  0.00    -0.322 N 
ATOM     13  H   UNL     1       2.580   0.924   2.076  0.00  0.00    +0.169 HD
BRANCH   2  15
ATOM     14  C   UNL     1       2.230   5.776  -2.793  0.00  0.00    +0.009 C 
ATOM     15  C   UNL     1       1.595   4.398  -2.993  0.00  0.00    +0.032 C 
ENDBRANCH   2  15
ENDBRANCH   1   9
BRANCH   1  21
ATOM     16  C   UNL     1       7.514   1.195   0.985  0.00  0.00    -0.058 C 
ATOM     17  C   UNL     1       8.402   1.548   2.181  0.00  0.00    +0.086 C 
ATOM     18  N   UNL     1       9.634   0.749   2.124  0.00  0.00    -0.331 N 
ATOM     19  C   UNL     1       9.329  -0.688   2.151  0.00  0.00    +0.086 C 
ATOM     20  C   UNL     1       8.440  -1.040   0.955  0.00  0.00    -0.058 C 
ATOM     21  N   UNL     1       7.196  -0.247   1.036  0.00  0.00    +0.391 N 
ATOM     22  H   UNL     1       6.725  -0.454   1.925  0.00  0.00    -0.080 HD
BRANCH  18  23
ATOM     23  C   UNL     1      10.504   1.095   3.163  0.00  0.00    +0.065 A 
ATOM     24  C   UNL     1      11.759   0.507   3.245  0.00  0.00    +0.026 A 
ATOM     25  C   UNL     1      12.618   0.854   4.270  0.00  0.00    +0.002 A 
ATOM     26  C   UNL     1      12.226   1.780   5.220  0.00  0.00    +0.003 A 
ATOM     27  C   UNL     1      10.976   2.366   5.145  0.00  0.00    +0.040 A 
ATOM     28  C   UNL     1      10.113   2.026   4.119  0.00  0.00    +0.144 A 
ATOM     29  F   UNL     1       8.890   2.598   4.046  0.00  0.00    -0.204 F 
ENDBRANCH  18  23
ENDBRANCH   1  21
BRANCH   1  30
ATOM     30  C   UNL     1       6.981  -0.390  -1.403  0.00  0.00    +0.143 A 
ATOM     31  N   UNL     1       7.647   0.676  -1.775  0.00  0.00    -0.115 NA
ATOM     32  N   UNL     1       8.083   0.476  -2.971  0.00  0.00    -0.023 NA
ATOM     33  N   UNL     1       7.712  -0.690  -3.372  0.00  0.00    -0.043 NA
ATOM     34  N   UNL     1       7.035  -1.257  -2.431  0.00  0.00    -0.225 N 
BRANCH  34  35
ATOM     35  C   UNL     1       6.436  -2.593  -2.475  0.00  0.00    +0.059 C 
ATOM     36  C   UNL     1       4.934  -2.487  -2.203  0.00  0.00    +0.036 C 
ATOM     37  C   UNL     1       6.662  -3.208  -3.858  0.00  0.00    +0.036 C 
ATOM     38  C   UNL     1       7.086  -3.479  -1.411  0.00  0.00    +0.036 C 
ENDBRANCH  34  35
ENDBRANCH   1  30
TORSDOF 6
