REMARK  Name = ZINC03227113
REMARK  10 active torsions:
REMARK  status: ('A' for Active; 'I' for Inactive)
REMARK    1  A    between atoms: C_4  and  C_7
REMARK    2  A    between atoms: C_7  and  C_9
REMARK    3  A    between atoms: C_7  and  S_21
REMARK    4  A    between atoms: C_9  and  N_10
REMARK    5  A    between atoms: N_10  and  S_11
REMARK    6  A    between atoms: S_11  and  C_14
REMARK    7  A    between atoms: S_21  and  C_22
REMARK    8  A    between atoms: N_26  and  N_27
REMARK    9  A    between atoms: C_28  and  C_29
REMARK   10  A    between atoms: C_33  and  N_35
REMARK                            x       y       z     vdW  Elec       q    Type
REMARK                         _______ _______ _______ _____ _____    ______ ____
ROOT
ATOM      1  C   UNL     1      -4.832   9.261   0.077  0.00  0.00    +0.100 C 
ENDROOT
BRANCH   1   5
ATOM      2  C   UNL     1      -3.981  11.320  -3.567  0.00  0.00    +0.000 A 
ATOM      3  C   UNL     1      -3.612  11.876  -2.356  0.00  0.00    +0.000 A 
ATOM      4  C   UNL     1      -3.887  11.210  -1.177  0.00  0.00    +0.005 A 
ATOM      5  C   UNL     1      -4.532   9.987  -1.208  0.00  0.00    -0.033 A 
ATOM      6  C   UNL     1      -4.897   9.429  -2.419  0.00  0.00    +0.005 A 
ATOM      7  C   UNL     1      -4.626  10.098  -3.598  0.00  0.00    +0.000 A 
ENDBRANCH   1   5
BRANCH   1   8
ATOM      8  C   UNL     1      -6.343   9.060   0.209  0.00  0.00    +0.125 C 
BRANCH   8   9
ATOM      9  N   UNL     1      -6.634   8.353   1.459  0.00  0.00    -0.189 NA
ATOM     10  H   UNL     1      -5.921   7.904   1.940  0.00  0.00    +0.148 HD
BRANCH   9  11
ATOM     11  S   UNL     1      -8.180   8.322   2.052  0.00  0.00    +0.058 S 
ATOM     12  O   UNL     1      -8.143   7.548   3.243  0.00  0.00    -0.153 OA
ATOM     13  O   UNL     1      -8.651   9.663   2.029  0.00  0.00    -0.153 OA
BRANCH  11  14
ATOM     14  C   UNL     1      -9.162   7.423   0.898  0.00  0.00    +0.105 A 
ATOM     15  C   UNL     1      -9.796   8.088  -0.135  0.00  0.00    +0.030 A 
ATOM     16  C   UNL     1     -10.562   7.383  -1.044  0.00  0.00    +0.022 A 
ATOM     17  C   UNL     1     -10.704   6.013  -0.913  0.00  0.00    +0.041 A 
ATOM     18  C   UNL     1     -10.074   5.349   0.125  0.00  0.00    +0.022 A 
ATOM     19  C   UNL     1      -9.303   6.054   1.029  0.00  0.00    +0.030 A 
ATOM     20 CL   UNL     1     -11.671   5.127  -2.050  0.00  0.00    -0.084 Cl
ENDBRANCH  11  14
ENDBRANCH   9  11
ENDBRANCH   8   9
ENDBRANCH   1   8
BRANCH   1  21
ATOM     21  S   UNL     1      -4.007   7.649   0.066  0.00  0.00    -0.075 S 
BRANCH  21  22
ATOM     22  C   UNL     1      -2.323   8.167   0.060  0.00  0.00    +0.212 A 
ATOM     23  N   UNL     1      -1.886   9.405   0.067  0.00  0.00    -0.121 NA
ATOM     24  N   UNL     1      -0.601   9.417   0.054  0.00  0.00    -0.135 NA
ATOM     25  C   UNL     1      -0.141   8.197   0.044  0.00  0.00    +0.249 A 
ATOM     26  N   UNL     1      -1.221   7.354   0.051  0.00  0.00    -0.194 N 
BRANCH  26  27
ATOM     27  N   UNL     1      -1.202   5.953   0.044  0.00  0.00    -0.171 NA
ATOM     28  C   UNL     1      -0.070   5.320   0.030  0.00  0.00    +0.141 C 
BRANCH  28  29
ATOM     29  C   UNL     1      -0.050   3.845   0.023  0.00  0.00    -0.003 A 
ATOM     30  C   UNL     1      -1.248   3.127   0.031  0.00  0.00    +0.009 A 
ATOM     31  C   UNL     1      -1.222   1.748   0.017  0.00  0.00    +0.003 A 
ATOM     32  C   UNL     1      -0.013   1.076   0.008  0.00  0.00    +0.033 A 
ATOM     33  C   UNL     1       1.178   1.780   0.000  0.00  0.00    +0.127 A 
ATOM     34  C   UNL     1       1.167   3.160   0.007  0.00  0.00    +0.042 A 
BRANCH  33  35
ATOM     35  N   UNL     1       2.467   1.053  -0.016  0.00  0.00    +0.056 N 
ATOM     36  O   UNL     1       2.478  -0.165  -0.022  0.00  0.00    -0.126 OA
ATOM     37  O   UNL     1       3.516   1.672  -0.022  0.00  0.00    -0.126 OA
ENDBRANCH  33  35
ENDBRANCH  28  29
ENDBRANCH  26  27
ENDBRANCH  21  22
ENDBRANCH   1  21
TORSDOF 10
