REMARK  Name = ZINC39916086
REMARK  7 active torsions:
REMARK  status: ('A' for Active; 'I' for Inactive)
REMARK    1  A    between atoms: C_1  and  C_2
REMARK    2  A    between atoms: C_2  and  C_38
REMARK    3  A    between atoms: C_6  and  C_30
REMARK    4  A    between atoms: C_13  and  S_16
REMARK    5  A    between atoms: S_16  and  C_17
REMARK    6  A    between atoms: C_17  and  C_18
REMARK    7  A    between atoms: C_17  and  C_24
REMARK                            x       y       z     vdW  Elec       q    Type
REMARK                         _______ _______ _______ _____ _____    ______ ____
ROOT
ATOM      1  C   UNL     1      -1.953   2.926  -3.186  0.00  0.00    +0.011 C 
ATOM      2  C   UNL     1      -2.138   1.423  -2.964  0.00  0.00    -0.023 C 
ATOM      3  C   UNL     1      -1.136   0.650  -3.825  0.00  0.00    +0.057 C 
ATOM      4  C   UNL     1       0.269   1.004  -3.411  0.00  0.00    +0.015 C 
ATOM      5  C   UNL     1       0.555   1.365  -2.139  0.00  0.00    +0.034 C 
ATOM      6  C   UNL     1       1.967   1.735  -1.721  0.00  0.00    +0.139 C 
ATOM      7  N   UNL     1       2.722   2.074  -2.919  0.00  0.00    -0.196 NA
ATOM      8  C   UNL     1       2.632   0.923  -3.868  0.00  0.00    +0.231 C 
ATOM      9  N   UNL     1       1.260   0.932  -4.367  0.00  0.00    -0.318 N 
ATOM     10  N   UNL     1       3.656   1.240  -4.870  0.00  0.00    -0.260 NA
ATOM     11  C   UNL     1       4.677   2.042  -4.149  0.00  0.00    +0.199 C 
ATOM     12  N   UNL     1       4.161   2.230  -2.764  0.00  0.00    -0.224 NA
ATOM     13  C   UNL     1      -0.449   1.417  -1.160  0.00  0.00    +0.163 C 
ATOM     14  O   UNL     1      -0.158   1.735  -0.024  0.00  0.00    -0.292 OA
ATOM     15  C   UNL     1      -1.878   1.084  -1.493  0.00  0.00    +0.086 C 
ATOM     16  C   UNL     1      -3.565   1.020  -3.341  0.00  0.00    +0.011 C 
ATOM     17  H   UNL     1       1.057   0.890  -5.315  0.00  0.00    +0.149 HD
ATOM     18  H   UNL     1       4.060   0.399  -5.253  0.00  0.00    +0.127 HD
ATOM     19  H   UNL     1       4.390   3.149  -2.415  0.00  0.00    +0.143 HD
ENDROOT
BRANCH   6  20
ATOM     20  C   UNL     1       2.614   0.565  -1.025  0.00  0.00    -0.026 C 
ATOM     21  C   UNL     1       3.717  -0.080  -1.400  0.00  0.00    +0.020 C 
ATOM     22  C   UNL     1       4.002  -1.153  -0.446  0.00  0.00    +0.078 C 
ATOM     23  N   UNL     1       3.116  -1.187   0.493  0.00  0.00    -0.386 N 
ATOM     24  C   UNL     1       2.147  -0.111   0.245  0.00  0.00    +0.145 C 
ATOM     25  H   UNL     1       3.096  -1.811   1.235  0.00  0.00    +0.159 HD
ENDBRANCH   6  20
BRANCH  11  26
ATOM     26  S   UNL     1       6.257   1.151  -4.111  0.00  0.00    -0.113 S 
BRANCH  26  27
ATOM     27  C   UNL     1       6.897   1.321  -5.800  0.00  0.00    +0.109 C 
BRANCH  27  28
ATOM     28  C   UNL     1       7.223   2.768  -6.069  0.00  0.00    -0.030 A 
ATOM     29  C   UNL     1       6.709   3.395  -7.189  0.00  0.00    +0.005 A 
ATOM     30  C   UNL     1       7.007   4.721  -7.437  0.00  0.00    +0.000 A 
ATOM     31  C   UNL     1       7.819   5.422  -6.564  0.00  0.00    +0.000 A 
ATOM     32  C   UNL     1       8.333   4.795  -5.444  0.00  0.00    +0.000 A 
ATOM     33  C   UNL     1       8.031   3.470  -5.194  0.00  0.00    +0.005 A 
ENDBRANCH  27  28
BRANCH  27  34
ATOM     34  C   UNL     1       8.145   0.489  -5.950  0.00  0.00    -0.030 A 
ATOM     35  C   UNL     1       9.181   0.628  -5.045  0.00  0.00    +0.005 A 
ATOM     36  C   UNL     1      10.326  -0.135  -5.183  0.00  0.00    +0.000 A 
ATOM     37  C   UNL     1      10.433  -1.037  -6.225  0.00  0.00    +0.000 A 
ATOM     38  C   UNL     1       9.396  -1.177  -7.129  0.00  0.00    +0.000 A 
ATOM     39  C   UNL     1       8.251  -0.416  -6.989  0.00  0.00    +0.005 A 
ENDBRANCH  27  34
ENDBRANCH  26  27
ENDBRANCH  11  26
TORSDOF 5
