REMARK  Name = ZINC39935552
REMARK  7 active torsions:
REMARK  status: ('A' for Active; 'I' for Inactive)
REMARK    1  A    between atoms: C_1  and  C_2
REMARK    2  A    between atoms: C_2  and  C_3
REMARK    3  A    between atoms: C_3  and  C_4
REMARK    4  A    between atoms: C_4  and  S_5
REMARK    5  A    between atoms: S_5  and  C_6
REMARK    6  A    between atoms: C_19  and  C_22
REMARK    7  A    between atoms: C_27  and  C_28
REMARK                            x       y       z     vdW  Elec       q    Type
REMARK                         _______ _______ _______ _____ _____    ______ ____
ROOT
ATOM      1  C   UNL     1       0.896  -5.056   2.481  0.00  0.00    +0.212 A 
ATOM      2  N   UNL     1       1.619  -5.662   3.419  0.00  0.00    -0.184 NA
ATOM      3  C   UNL     1       1.658  -6.982   3.453  0.00  0.00    +0.248 A 
ATOM      4  C   UNL     1       0.930  -7.709   2.484  0.00  0.00    +0.156 A 
ATOM      5  N   UNL     1       0.227  -7.045   1.579  0.00  0.00    -0.141 NA
ATOM      6  N   UNL     1       0.211  -5.757   1.586  0.00  0.00    -0.122 NA
ATOM      7  C   UNL     1       0.972  -9.186   2.495  0.00  0.00    +0.029 A 
ATOM      8  C   UNL     1      -0.186  -9.948   2.402  0.00  0.00    +0.027 A 
ATOM      9  C   UNL     1      -0.102 -11.327   2.403  0.00  0.00    +0.019 A 
ATOM     10  C   UNL     1       1.129 -11.954   2.494  0.00  0.00    +0.017 A 
ATOM     11  C   UNL     1       2.289 -11.208   2.593  0.00  0.00    +0.025 A 
ATOM     12  C   UNL     1       2.221  -9.827   2.600  0.00  0.00    +0.039 A 
ATOM     13  N   UNL     1       3.371  -9.042   2.734  0.00  0.00    -0.308 N 
ATOM     14  C   UNL     1       3.569  -8.291   3.970  0.00  0.00    +0.276 C 
ATOM     15  O   UNL     1       2.374  -7.644   4.393  0.00  0.00    -0.452 OA
ATOM     16 BR   UNL     1      -1.678 -12.364   2.279  0.00  0.00    -0.050 Br
ATOM     17  H   UNL     1       4.024  -8.997   2.019  0.00  0.00    +0.150 HD
ENDROOT
BRANCH  14  18
ATOM     18  C   UNL     1       4.029  -9.252   5.069  0.00  0.00    +0.142 C 
ATOM     19  C   UNL     1       5.341  -9.908   4.689  0.00  0.00    +0.122 C 
ATOM     20  N   UNL     1       6.195  -9.551   5.593  0.00  0.00    -0.161 NA
ATOM     21  N   UNL     1       5.634  -8.723   6.559  0.00  0.00    -0.153 NA
ATOM     22  C   UNL     1       4.365  -8.492   6.337  0.00  0.00    +0.084 C 
BRANCH  22  23
ATOM     23  C   UNL     1       3.454  -7.667   7.146  0.00  0.00    -0.001 A 
ATOM     24  C   UNL     1       2.077  -7.912   7.123  0.00  0.00    +0.010 A 
ATOM     25  C   UNL     1       1.230  -7.135   7.884  0.00  0.00    +0.001 A 
ATOM     26  C   UNL     1       1.738  -6.114   8.668  0.00  0.00    +0.000 A 
ATOM     27  C   UNL     1       3.100  -5.864   8.695  0.00  0.00    +0.001 A 
ATOM     28  C   UNL     1       3.961  -6.638   7.945  0.00  0.00    +0.010 A 
ENDBRANCH  22  23
ENDBRANCH  14  18
BRANCH   1  29
ATOM     29  S   UNL     1       0.842  -3.296   2.429  0.00  0.00    -0.084 S 
BRANCH  29  30
ATOM     30  C   UNL     1      -0.246  -2.931   1.024  0.00  0.00    +0.077 C 
BRANCH  30  31
ATOM     31  C   UNL     1      -0.382  -1.416   0.865  0.00  0.00    +0.011 C 
BRANCH  31  33
ATOM     32  C   UNL     1      -1.436   0.407  -0.480  0.00  0.00    +0.004 C 
ATOM     33  C   UNL     1      -1.300  -1.108  -0.320  0.00  0.00    -0.003 C 
ENDBRANCH  31  33
ENDBRANCH  30  31
ENDBRANCH  29  30
ENDBRANCH   1  29
TORSDOF 6
