REMARK  Name = ZINC32598544
REMARK  10 active torsions:
REMARK  status: ('A' for Active; 'I' for Inactive)
REMARK    1  A    between atoms: C_1  and  C_2
REMARK    2  A    between atoms: C_2  and  C_3
REMARK    3  A    between atoms: C_3  and  C_36
REMARK    4  A    between atoms: N_19  and  C_33
REMARK    5  A    between atoms: C_21  and  S_22
REMARK    6  A    between atoms: S_22  and  C_23
REMARK    7  A    between atoms: C_23  and  C_24
REMARK    8  A    between atoms: N_26  and  C_27
REMARK    9  A    between atoms: C_33  and  C_34
REMARK   10  A    between atoms: C_33  and  C_35
REMARK                            x       y       z     vdW  Elec       q    Type
REMARK                         _______ _______ _______ _____ _____    ______ ____
ROOT
ATOM      1  C   UNL     1       7.949  -1.139  -0.952  0.00  0.00    +0.003 C 
ATOM      2  C   UNL     1       9.118  -1.330  -1.914  0.00  0.00    +0.047 C 
ATOM      3  C   UNL     1      10.018  -0.122  -1.888  0.00  0.00    -0.038 A 
ATOM      4  C   UNL     1      11.380  -0.262  -2.047  0.00  0.00    +0.004 A 
ATOM      5  C   UNL     1      12.194   0.857  -2.072  0.00  0.00    +0.000 A 
ATOM      6  C   UNL     1      11.648   2.122  -1.943  0.00  0.00    +0.001 A 
ATOM      7  C   UNL     1      10.287   2.275  -1.774  0.00  0.00    +0.010 A 
ATOM      8  C   UNL     1       9.465   1.150  -1.725  0.00  0.00    -0.000 A 
ATOM      9  C   UNL     1       8.008   1.283  -1.534  0.00  0.00    +0.046 C 
ATOM     10  C   UNL     1       7.274   0.186  -1.189  0.00  0.00    +0.043 C 
ATOM     11  C   UNL     1       5.867   0.288  -1.053  0.00  0.00    +0.253 C 
ATOM     12  O   UNL     1       5.171  -0.692  -0.848  0.00  0.00    -0.270 OA
ATOM     13  N   UNL     1       5.324   1.525  -1.133  0.00  0.00    -0.209 N 
ATOM     14  C   UNL     1       6.155   2.740  -0.949  0.00  0.00    +0.278 C 
ATOM     15  N   UNL     1       7.401   2.517  -1.695  0.00  0.00    -0.308 N 
ATOM     16  N   UNL     1       5.330   3.797  -1.539  0.00  0.00    -0.213 N 
ATOM     17  N   UNL     1       4.059   3.231  -1.726  0.00  0.00    -0.158 NA
ATOM     18  C   UNL     1       4.067   1.959  -1.479  0.00  0.00    +0.183 C 
ATOM     19  C   UNL     1       6.934  -2.265  -1.163  0.00  0.00    +0.016 C 
ATOM     20  H   UNL     1       7.805   3.311  -2.340  0.00  0.00    +0.149 HD
ENDROOT
BRANCH  16  21
ATOM     21  C   UNL     1       5.746   5.163  -1.866  0.00  0.00    +0.090 C 
ATOM     22  C   UNL     1       5.563   5.406  -3.366  0.00  0.00    +0.029 C 
ATOM     23  C   UNL     1       4.891   6.159  -1.080  0.00  0.00    +0.029 C 
ENDBRANCH  16  21
BRANCH   1  25
ATOM     24  C   UNL     1       9.125  -2.547   0.744  0.00  0.00    +0.005 C 
ATOM     25  C   UNL     1       8.466  -1.190   0.487  0.00  0.00    +0.008 C 
ENDBRANCH   1  25
BRANCH  18  26
ATOM     26  S   UNL     1       2.646   0.920  -1.568  0.00  0.00    -0.079 S 
BRANCH  26  27
ATOM     27  C   UNL     1       1.310   2.045  -2.057  0.00  0.00    +0.173 C 
BRANCH  27  28
ATOM     28  C   UNL     1       0.020   1.273  -2.171  0.00  0.00    +0.227 C 
ATOM     29  O   UNL     1       0.004   0.082  -1.944  0.00  0.00    -0.275 OA
ATOM     30  N   UNL     1      -1.114   1.906  -2.530  0.00  0.00    -0.285 N 
ATOM     31  H   UNL     1      -1.117   2.998  -2.662  0.00  0.00    +0.155 HD
BRANCH  30  32
ATOM     32  C   UNL     1      -2.288   1.174  -2.736  0.00  0.00    +0.033 A 
ATOM     33  C   UNL     1      -3.186   1.561  -3.722  0.00  0.00    +0.023 A 
ATOM     34  C   UNL     1      -4.341   0.832  -3.928  0.00  0.00    +0.002 A 
ATOM     35  C   UNL     1      -4.611  -0.275  -3.144  0.00  0.00    +0.000 A 
ATOM     36  C   UNL     1      -3.722  -0.659  -2.157  0.00  0.00    +0.002 A 
ATOM     37  C   UNL     1      -2.562   0.061  -1.951  0.00  0.00    +0.023 A 
ENDBRANCH  30  32
ENDBRANCH  27  28
ENDBRANCH  26  27
ENDBRANCH  18  26
TORSDOF 6
