REMARK  Name = ZINC01771338
REMARK  7 active torsions:
REMARK  status: ('A' for Active; 'I' for Inactive)
REMARK    1  A    between atoms: C_1  and  C_2
REMARK    2  A    between atoms: C_2  and  O_3
REMARK    3  A    between atoms: O_3  and  C_4
REMARK    4  A    between atoms: C_4  and  C_6
REMARK    5  A    between atoms: C_10  and  N_11
REMARK    6  A    between atoms: C_12  and  C_14
REMARK    7  A    between atoms: C_27  and  C_31
REMARK                            x       y       z     vdW  Elec       q    Type
REMARK                         _______ _______ _______ _____ _____    ______ ____
ROOT
ATOM      1  N   UNL     1       1.234  -4.943  -0.036  0.00  0.00    -0.275 N 
ATOM      2  C   UNL     1       0.071  -4.262  -0.021  0.00  0.00    +0.256 C 
ATOM      3  O   UNL     1      -0.986  -4.864  -0.013  0.00  0.00    -0.270 OA
ATOM      4  H   UNL     1       2.077  -4.463  -0.042  0.00  0.00    +0.156 HD
ENDROOT
BRANCH   2   5
ATOM      5  C   UNL     1       0.080  -2.790  -0.013  0.00  0.00    +0.122 A 
ATOM      6  C   UNL     1       1.276  -2.093  -0.021  0.00  0.00    +0.031 A 
ATOM      7  C   UNL     1       1.238  -0.675  -0.013  0.00  0.00    +0.019 A 
ATOM      8  C   UNL     1       2.431   0.063  -0.021  0.00  0.00    +0.026 A 
ATOM      9  C   UNL     1       2.387   1.428  -0.013  0.00  0.00    +0.019 A 
ATOM     10  C   UNL     1       1.167   2.092   0.002  0.00  0.00    +0.019 A 
ATOM     11  C   UNL     1      -0.017   1.387   0.010  0.00  0.00    +0.048 A 
ATOM     12  C   UNL     1       0.002  -0.004   0.002  0.00  0.00    +0.139 A 
ATOM     13  O   UNL     1      -1.160  -0.692   0.010  0.00  0.00    -0.422 OA
ATOM     14  C   UNL     1      -1.178  -2.036   0.003  0.00  0.00    +0.350 A 
ATOM     15  O   UNL     1      -2.241  -2.628   0.011  0.00  0.00    -0.244 OA
ATOM     16 BR   UNL     1       3.997   2.420  -0.023  0.00  0.00    -0.050 Br
ENDBRANCH   2   5
BRANCH   1  21
ATOM     17  C   UNL     1       2.309  -7.197  -0.064  0.00  0.00    +0.091 A 
ATOM     18  C   UNL     1       2.025  -8.623  -0.064  0.00  0.00    -0.021 A 
ATOM     19  C   UNL     1       0.714  -8.948  -0.053  0.00  0.00    -0.004 A 
ATOM     20  S   UNL     1      -0.138  -7.396  -0.036  0.00  0.00    -0.077 S 
ATOM     21  C   UNL     1       1.226  -6.328  -0.043  0.00  0.00    +0.087 A 
ATOM     22  C   UNL     1       0.125 -10.325  -0.056  0.00  0.00    +0.046 C 
ATOM     23  C   UNL     1       1.225 -11.321  -0.451  0.00  0.00    -0.009 C 
ATOM     24  C   UNL     1       2.480 -11.023   0.375  0.00  0.00    +0.008 C 
ATOM     25  C   UNL     1       3.101  -9.702  -0.081  0.00  0.00    +0.037 C 
ATOM     26  C   UNL     1       0.750 -12.748  -0.171  0.00  0.00    +0.008 C 
BRANCH  17  27
ATOM     27  C   UNL     1       3.685  -6.697  -0.082  0.00  0.00    +0.342 C 
ATOM     28  O   UNL     1       4.272  -6.496   0.964  0.00  0.00    -0.245 OA
BRANCH  27  29
ATOM     29  O   UNL     1       4.301  -6.460  -1.258  0.00  0.00    -0.461 OA
BRANCH  29  31
ATOM     30  C   UNL     1       6.193  -5.757  -2.621  0.00  0.00    +0.048 C 
ATOM     31  C   UNL     1       5.665  -5.965  -1.200  0.00  0.00    +0.229 C 
ENDBRANCH  29  31
ENDBRANCH  27  29
ENDBRANCH  17  27
ENDBRANCH   1  21
TORSDOF 5
