REMARK  Name = ZINC01089250
REMARK  7 active torsions:
REMARK  status: ('A' for Active; 'I' for Inactive)
REMARK    1  A    between atoms: C_9  and  O_31
REMARK    2  A    between atoms: C_10  and  C_11
REMARK    3  A    between atoms: N_12  and  N_13
REMARK    4  A    between atoms: C_14  and  C_16
REMARK    5  A    between atoms: C_21  and  C_22
REMARK    6  A    between atoms: C_21  and  N_56
REMARK    7  A    between atoms: C_25  and  N_28
REMARK                            x       y       z     vdW  Elec       q    Type
REMARK                         _______ _______ _______ _____ _____    ______ ____
ROOT
ATOM      1  N   UNL     1      -2.573   8.057   0.069  0.00  0.00    -0.207 N 
ATOM      2  C   UNL     1      -2.564   9.405   0.076  0.00  0.00    +0.235 C 
ATOM      3  O   UNL     1      -1.509  10.005   0.069  0.00  0.00    -0.274 OA
ATOM      4  H   UNL     1      -3.416   7.578   0.074  0.00  0.00    +0.177 HD
ENDROOT
BRANCH   2   5
ATOM      5  C   UNL     1      -3.864  10.167   0.092  0.00  0.00    +0.073 C 
ATOM      6  C   UNL     1      -4.678   9.816  -1.156  0.00  0.00    -0.006 C 
ATOM      7  C   UNL     1      -5.969  10.638  -1.165  0.00  0.00    -0.078 C 
ATOM      8  C   UNL     1      -4.899  12.439   0.052  0.00  0.00    -0.078 C 
ATOM      9  C   UNL     1      -3.576  11.671   0.097  0.00  0.00    -0.006 C 
ATOM     10  N   UNL     1      -5.623  12.075  -1.184  0.00  0.00    +0.382 N 
ATOM     11  H   UNL     1      -5.017  12.261  -1.992  0.00  0.00    -0.081 HD
BRANCH  10  12
ATOM     12  C   UNL     1      -6.850  12.888  -1.308  0.00  0.00    -0.043 C 
BRANCH  12  13
ATOM     13  C   UNL     1      -7.450  12.658  -2.671  0.00  0.00    -0.064 A 
ATOM     14  C   UNL     1      -7.069  13.451  -3.737  0.00  0.00    +0.004 A 
ATOM     15  C   UNL     1      -7.615  13.236  -4.989  0.00  0.00    +0.033 A 
ATOM     16  C   UNL     1      -8.550  12.235  -5.172  0.00  0.00    +0.126 A 
ATOM     17  C   UNL     1      -8.935  11.444  -4.105  0.00  0.00    +0.033 A 
ATOM     18  C   UNL     1      -8.385  11.656  -2.855  0.00  0.00    +0.004 A 
BRANCH  16  19
ATOM     19  N   UNL     1      -9.139  12.008  -6.511  0.00  0.00    +0.056 N 
ATOM     20  O   UNL     1      -9.962  11.125  -6.673  0.00  0.00    -0.126 OA
ATOM     21  O   UNL     1      -8.800  12.704  -7.451  0.00  0.00    -0.126 OA
ENDBRANCH  16  19
ENDBRANCH  12  13
ENDBRANCH  10  12
ENDBRANCH   2   5
BRANCH   1  23
ATOM     22  C   UNL     1      -1.373   6.049   0.047  0.00  0.00    +0.142 C 
ATOM     23  N   UNL     1      -1.364   7.349   0.054  0.00  0.00    -0.188 NA
BRANCH  22  33
ATOM     24  C   UNL     1      -0.013   1.076   0.008  0.00  0.00    +0.001 A 
ATOM     25  C   UNL     1      -1.234   1.745   0.017  0.00  0.00    +0.001 A 
ATOM     26  C   UNL     1      -1.286   3.107   0.031  0.00  0.00    +0.009 A 
ATOM     27  C   UNL     1      -0.096   3.845   0.024  0.00  0.00    -0.006 A 
ATOM     28  C   UNL     1       1.148   3.168   0.008  0.00  0.00    -0.017 A 
ATOM     29  C   UNL     1       1.163   1.762   0.000  0.00  0.00    +0.008 A 
ATOM     30  C   UNL     1       2.341   3.910   0.000  0.00  0.00    +0.012 A 
ATOM     31  C   UNL     1       2.315   5.269   0.008  0.00  0.00    +0.046 A 
ATOM     32  C   UNL     1       1.116   5.981   0.023  0.00  0.00    +0.126 A 
ATOM     33  C   UNL     1      -0.105   5.306   0.032  0.00  0.00    +0.044 A 
BRANCH  32  34
ATOM     34  O   UNL     1       1.137   7.338   0.031  0.00  0.00    -0.506 OA
ATOM     35  H   UNL     1       1.152   7.726   0.916  0.00  0.00    +0.292 HD
ENDBRANCH  32  34
ENDBRANCH  22  33
ENDBRANCH   1  23
TORSDOF 7
