REMARK  Name = ZINC12473055
REMARK  14 active torsions:
REMARK  status: ('A' for Active; 'I' for Inactive)
REMARK    1  A    between atoms: C_1  and  C_2
REMARK    2  A    between atoms: C_6  and  N_9
REMARK    3  A    between atoms: C_7  and  C_8
REMARK    4  A    between atoms: N_9  and  C_10
REMARK    5  A    between atoms: C_10  and  C_12
REMARK    6  A    between atoms: C_10  and  C_19
REMARK    7  A    between atoms: N_21  and  C_22
REMARK    8  A    between atoms: C_22  and  C_23
REMARK    9  A    between atoms: C_23  and  C_24
REMARK   10  A    between atoms: C_24  and  C_25
REMARK   11  A    between atoms: C_24  and  C_26
REMARK   12  A    between atoms: C_27  and  C_29
REMARK   13  A    between atoms: C_30  and  N_37
REMARK   14  A    between atoms: C_31  and  C_34
REMARK                            x       y       z     vdW  Elec       q    Type
REMARK                         _______ _______ _______ _____ _____    ______ ____
ROOT
ATOM      1  N   UNL     1       1.747   1.461   2.229  0.00  0.00    -0.251 N 
ATOM      2  C   UNL     1       2.118   2.442   3.076  0.00  0.00    +0.262 C 
ATOM      3  O   UNL     1       2.650   2.163   4.135  0.00  0.00    -0.269 OA
ENDROOT
BRANCH   1   9
ATOM      4  C   UNL     1       2.125   2.372  -2.587  0.00  0.00    +0.044 C 
ATOM      5  C   UNL     1       1.295   2.229  -1.337  0.00  0.00    -0.046 A 
ATOM      6  C   UNL     1      -0.075   2.416  -1.393  0.00  0.00    +0.004 A 
ATOM      7  C   UNL     1      -0.840   2.291  -0.248  0.00  0.00    +0.002 A 
ATOM      8  C   UNL     1      -0.239   1.974   0.955  0.00  0.00    +0.024 A 
ATOM      9  C   UNL     1       1.135   1.781   1.013  0.00  0.00    +0.041 A 
ATOM     10  C   UNL     1       1.901   1.907  -0.139  0.00  0.00    -0.026 A 
ATOM     11  C   UNL     1       3.392   1.699  -0.080  0.00  0.00    +0.046 C 
ENDBRANCH   1   9
BRANCH   2  12
ATOM     12  C   UNL     1       1.881   3.843   2.722  0.00  0.00    +0.116 A 
ATOM     13  C   UNL     1       2.177   5.000   3.445  0.00  0.00    +0.076 A 
ATOM     14  C   UNL     1       1.798   6.162   2.771  0.00  0.00    +0.155 A 
ATOM     15  N   UNL     1       1.224   6.064   1.592  0.00  0.00    -0.203 NA
ATOM     16  S   UNL     1       1.131   4.526   1.259  0.00  0.00    +0.019 S 
BRANCH  14  17
ATOM     17  C   UNL     1       2.035   7.485   3.376  0.00  0.00    +0.262 C 
ATOM     18  O   UNL     1       2.567   7.568   4.467  0.00  0.00    -0.269 OA
ATOM     19  N   UNL     1       1.663   8.602   2.721  0.00  0.00    -0.324 N 
ATOM     20  H   UNL     1       1.239   8.536   1.851  0.00  0.00    +0.145 HD
ATOM     21  H   UNL     1       1.819   9.473   3.119  0.00  0.00    +0.145 HD
ENDBRANCH  14  17
BRANCH  13  22
ATOM     22  N   UNL     1       2.783   4.996   4.694  0.00  0.00    -0.355 N 
ATOM     23  H   UNL     1       3.026   4.155   5.112  0.00  0.00    +0.142 HD
ATOM     24  H   UNL     1       2.964   5.834   5.148  0.00  0.00    +0.142 HD
ENDBRANCH  13  22
ENDBRANCH   2  12
BRANCH   1  25
ATOM     25  C   UNL     1       1.984   0.059   2.583  0.00  0.00    +0.197 C 
BRANCH  25  26
ATOM     26  C   UNL     1       1.621  -0.822   1.416  0.00  0.00    -0.018 A 
ATOM     27  C   UNL     1       0.321  -0.846   0.947  0.00  0.00    +0.009 A 
ATOM     28  C   UNL     1      -0.012  -1.650  -0.126  0.00  0.00    +0.038 A 
ATOM     29  C   UNL     1       0.955  -2.440  -0.725  0.00  0.00    +0.123 A 
ATOM     30  C   UNL     1       2.256  -2.419  -0.251  0.00  0.00    +0.038 A 
ATOM     31  C   UNL     1       2.588  -1.610   0.819  0.00  0.00    +0.009 A 
ATOM     32  F   UNL     1       0.630  -3.230  -1.772  0.00  0.00    -0.205 F 
ENDBRANCH  25  26
BRANCH  25  33
ATOM     33  C   UNL     1       1.136  -0.308   3.774  0.00  0.00    +0.238 C 
ATOM     34  O   UNL     1       0.405   0.519   4.277  0.00  0.00    -0.273 OA
ATOM     35  N   UNL     1       1.190  -1.557   4.279  0.00  0.00    -0.313 N 
ATOM     36  H   UNL     1       1.774  -2.218   3.877  0.00  0.00    +0.149 HD
BRANCH  35  37
ATOM     37  C   UNL     1       0.365  -1.915   5.436  0.00  0.00    +0.104 C 
BRANCH  37  38
ATOM     38  C   UNL     1       0.613  -3.378   5.806  0.00  0.00    +0.022 C 
BRANCH  38  39
ATOM     39  C   UNL     1      -0.248  -3.752   7.014  0.00  0.00    -0.016 C 
ATOM     40  C   UNL     1      -0.095  -5.246   7.307  0.00  0.00    +0.007 C 
ATOM     41  C   UNL     1       0.205  -2.945   8.232  0.00  0.00    +0.007 C 
ENDBRANCH  38  39
ENDBRANCH  37  38
ENDBRANCH  35  37
ENDBRANCH  25  33
ENDBRANCH   1  25
TORSDOF 10
