REMARK  Name = ZINC06870864
REMARK  6 active torsions:
REMARK  status: ('A' for Active; 'I' for Inactive)
REMARK    1  A    between atoms: C_1  and  C_2
REMARK    2  A    between atoms: C_2  and  C_3
REMARK    3  A    between atoms: C_4  and  C_26
REMARK    4  A    between atoms: C_7  and  N_25
REMARK    5  A    between atoms: C_8  and  C_12
REMARK    6  A    between atoms: N_14  and  C_15
REMARK                            x       y       z     vdW  Elec       q    Type
REMARK                         _______ _______ _______ _____ _____    ______ ____
ROOT
ATOM      1  C   UNL     1      -2.168  12.073  -0.873  0.00  0.00    +0.045 A 
ATOM      2  C   UNL     1      -2.857  11.811  -2.047  0.00  0.00    -0.028 A 
ATOM      3  C   UNL     1      -3.074  10.515  -2.452  0.00  0.00    +0.017 A 
ATOM      4  C   UNL     1      -2.583   9.454  -1.651  0.00  0.00    +0.029 A 
ATOM      5  C   UNL     1      -2.692   8.021  -1.876  0.00  0.00    +0.053 A 
ATOM      6  C   UNL     1      -2.131   7.169  -0.950  0.00  0.00    +0.097 A 
ATOM      7  S   UNL     1      -1.442   8.277   0.264  0.00  0.00    -0.062 S 
ATOM      8  C   UNL     1      -1.895   9.826  -0.474  0.00  0.00    +0.111 A 
ATOM      9  N   UNL     1      -1.713  11.083  -0.130  0.00  0.00    -0.244 NA
ATOM     10  C   UNL     1      -3.371  12.953  -2.885  0.00  0.00    +0.045 C 
ENDROOT
BRANCH   6  11
ATOM     11  C   UNL     1      -2.112   5.752  -0.958  0.00  0.00    +0.253 C 
ATOM     12  O   UNL     1      -2.639   5.141  -1.869  0.00  0.00    -0.270 OA
ATOM     13  N   UNL     1      -1.510   5.081   0.044  0.00  0.00    -0.305 N 
ATOM     14  H   UNL     1      -1.089   5.567   0.770  0.00  0.00    +0.150 HD
BRANCH  13  15
ATOM     15  C   UNL     1      -1.490   3.616   0.036  0.00  0.00    +0.036 C 
ATOM     16  C   UNL     1      -0.773   3.123  -1.223  0.00  0.00    +0.029 C 
ATOM     17  C   UNL     1      -0.753   1.593  -1.232  0.00  0.00    -0.008 C 
ATOM     18  C   UNL     1      -0.013   1.086   0.008  0.00  0.00    +0.007 C 
ATOM     19  C   UNL     1      -0.729   1.579   1.267  0.00  0.00    -0.008 C 
ATOM     20  C   UNL     1      -0.750   3.109   1.275  0.00  0.00    +0.029 C 
ATOM     21  C   UNL     1      -2.164   1.050   1.278  0.00  0.00    +0.007 C 
ATOM     22  C   UNL     1      -2.904   1.556   0.038  0.00  0.00    -0.008 C 
ATOM     23  C   UNL     1      -2.188   1.063  -1.221  0.00  0.00    +0.007 C 
ATOM     24  C   UNL     1      -2.925   3.086   0.047  0.00  0.00    +0.029 C 
ENDBRANCH  13  15
ENDBRANCH   6  11
BRANCH   5  25
ATOM     25  N   UNL     1      -3.345   7.524  -2.995  0.00  0.00    -0.356 N 
ATOM     26  H   UNL     1      -3.410   6.566  -3.134  0.00  0.00    +0.142 HD
ATOM     27  H   UNL     1      -3.736   8.134  -3.640  0.00  0.00    +0.142 HD
ENDBRANCH   5  25
BRANCH   1  29
ATOM     28  C   UNL     1      -0.618  14.002  -1.030  0.00  0.00    +0.010 C 
ATOM     29  C   UNL     1      -1.938  13.499  -0.442  0.00  0.00    +0.052 C 
ENDBRANCH   1  29
TORSDOF 4
