REMARK  Name = ZINC08666685
REMARK  12 active torsions:
REMARK  status: ('A' for Active; 'I' for Inactive)
REMARK    1  A    between atoms: C_1  and  C_2
REMARK    2  A    between atoms: C_3  and  C_8
REMARK    3  A    between atoms: C_8  and  C_9
REMARK    4  A    between atoms: C_8  and  C_29
REMARK    5  A    between atoms: C_12  and  O_17
REMARK    6  A    between atoms: C_13  and  O_15
REMARK    7  A    between atoms: O_15  and  C_16
REMARK    8  A    between atoms: O_17  and  C_18
REMARK    9  A    between atoms: C_18  and  C_20
REMARK   10  A    between atoms: C_24  and  N_26
REMARK   11  A    between atoms: C_30  and  C_36
REMARK   12  A    between atoms: C_34  and  O_35
REMARK                            x       y       z     vdW  Elec       q    Type
REMARK                         _______ _______ _______ _____ _____    ______ ____
ROOT
ATOM      1  C   UNL     1       0.954  10.223   0.094  0.00  0.00    -0.031 A 
ATOM      2  C   UNL     1       0.201   9.092   0.355  0.00  0.00    +0.008 A 
ATOM      3  C   UNL     1       0.800   7.847   0.369  0.00  0.00    +0.050 A 
ATOM      4  C   UNL     1       2.159   7.729   0.121  0.00  0.00    +0.173 A 
ATOM      5  C   UNL     1       2.917   8.867  -0.136  0.00  0.00    +0.163 A 
ATOM      6  C   UNL     1       2.309  10.112  -0.153  0.00  0.00    +0.054 A 
ENDROOT
BRANCH   5   7
ATOM      7  O   UNL     1       4.251   8.757  -0.375  0.00  0.00    -0.491 OA
ATOM      8  C   UNL     1       4.967   9.967  -0.631  0.00  0.00    +0.277 C 
ENDBRANCH   5   7
BRANCH   1   9
ATOM      9  C   UNL     1       0.295  11.578   0.081  0.00  0.00    +0.093 C 
BRANCH   9  12
ATOM     10  C   UNL     1       0.698  13.483  -2.419  0.00  0.00    +0.068 C 
ATOM     11  C   UNL     1      -0.444  12.520  -2.216  0.00  0.00    +0.068 A 
ATOM     12  C   UNL     1      -0.620  11.680  -1.112  0.00  0.00    +0.053 A 
ATOM     13  C   UNL     1      -1.764  10.971  -1.307  0.00  0.00    +0.271 A 
ATOM     14  N   UNL     1      -2.290  11.361  -2.489  0.00  0.00    -0.243 N 
ATOM     15  N   UNL     1      -1.443  12.332  -3.039  0.00  0.00    -0.176 NA
ATOM     16  O   UNL     1      -2.283  10.041  -0.466  0.00  0.00    -0.266 OA
ATOM     17  H   UNL     1      -3.230  10.915  -2.847  0.00  0.00    +0.192 HD
ENDBRANCH   9  12
BRANCH   9  18
ATOM     18  C   UNL     1      -0.505  11.760   1.344  0.00  0.00    +0.048 A 
ATOM     19  C   UNL     1      -1.608  12.605   1.506  0.00  0.00    +0.068 A 
ATOM     20  N   UNL     1      -2.031  12.496   2.740  0.00  0.00    -0.176 NA
ATOM     21  N   UNL     1      -1.212  11.576   3.407  0.00  0.00    -0.247 N 
ATOM     22  H   UNL     1      -1.215  11.200   4.441  0.00  0.00    +0.192 HD
ATOM     23  C   UNL     1      -0.284  11.133   2.530  0.00  0.00    +0.213 A 
ATOM     24  C   UNL     1      -2.203  13.493   0.444  0.00  0.00    +0.068 C 
BRANCH  23  25
ATOM     25  O   UNL     1       0.694  10.226   2.787  0.00  0.00    -0.492 OA
ATOM     26  H   UNL     1       0.780   9.780   3.788  0.00  0.00    +0.294 HD
ENDBRANCH  23  25
ENDBRANCH   9  18
ENDBRANCH   1   9
BRANCH   4  27
ATOM     27  O   UNL     1       2.750   6.504   0.135  0.00  0.00    -0.419 OA
BRANCH  27  28
ATOM     28  C   UNL     1       3.326   6.116   1.289  0.00  0.00    +0.345 C 
ATOM     29  O   UNL     1       3.382   6.885   2.228  0.00  0.00    -0.245 OA
BRANCH  28  30
ATOM     30  C   UNL     1       3.888   4.756   1.413  0.00  0.00    +0.062 A 
ATOM     31  C   UNL     1       3.824   3.870   0.335  0.00  0.00    +0.015 A 
ATOM     32  C   UNL     1       4.351   2.601   0.458  0.00  0.00    +0.003 A 
ATOM     33  C   UNL     1       4.941   2.205   1.645  0.00  0.00    +0.033 A 
ATOM     34  C   UNL     1       5.003   3.076   2.718  0.00  0.00    +0.127 A 
ATOM     35  C   UNL     1       4.485   4.350   2.608  0.00  0.00    +0.047 A 
BRANCH  34  36
ATOM     36  N   UNL     1       5.631   2.642   3.986  0.00  0.00    +0.056 N 
ATOM     37  O   UNL     1       6.093   1.519   4.084  0.00  0.00    -0.126 OA
ATOM     38  O   UNL     1       5.686   3.408   4.932  0.00  0.00    -0.126 OA
ENDBRANCH  34  36
ENDBRANCH  28  30
ENDBRANCH  27  28
ENDBRANCH   4  27
TORSDOF 9
