REMARK  Name = ZINC44263979
REMARK  1 active torsions:
REMARK  status: ('A' for Active; 'I' for Inactive)
REMARK    1  A    between atoms: C_8  and  C_11
REMARK                            x       y       z     vdW  Elec       q    Type
REMARK                         _______ _______ _______ _____ _____    ______ ____
ROOT
ATOM      1  C   UNL     1      -0.017   1.378   0.010  0.00  0.00    +0.000 A 
ATOM      2  C   UNL     1       1.174   2.082   0.002  0.00  0.00    +0.002 A 
ATOM      3  C   UNL     1       2.377   1.411  -0.013  0.00  0.00    +0.023 A 
ATOM      4  C   UNL     1       2.405   0.014  -0.021  0.00  0.00    +0.031 A 
ATOM      5  C   UNL     1       1.206  -0.682  -0.013  0.00  0.00    -0.024 A 
ATOM      6  C   UNL     1       0.002  -0.004   0.002  0.00  0.00    +0.005 A 
ATOM      7  C   UNL     1       1.510  -2.163  -0.023  0.00  0.00    +0.067 C 
ATOM      8  C   UNL     1       3.046  -2.241  -0.038  0.00  0.00    +0.141 C 
ATOM      9  N   UNL     1       3.501  -0.849  -0.036  0.00  0.00    -0.334 N 
ATOM     10  H   UNL     1       4.430  -0.568  -0.044  0.00  0.00    +0.147 HD
ENDROOT
BRANCH   8  11
ATOM     11  C   UNL     1       3.545  -2.959   1.189  0.00  0.00    +0.131 A 
ATOM     12  N   UNL     1       3.254  -2.631   2.415  0.00  0.00    -0.211 NA
ATOM     13  H   UNL     1       4.717  -4.490   0.393  0.00  0.00    +0.167 HD
ATOM     14  C   UNL     1       3.866  -3.482   3.276  0.00  0.00    +0.178 A 
ATOM     15  C   UNL     1       4.587  -4.400   2.492  0.00  0.00    +0.085 A 
ATOM     16  N   UNL     1       4.360  -4.046   1.178  0.00  0.00    -0.339 N 
ATOM     17  C   UNL     1       5.321  -5.401   3.115  0.00  0.00    +0.031 A 
ATOM     18  C   UNL     1       5.312  -5.454   4.498  0.00  0.00    +0.022 A 
ATOM     19  C   UNL     1       4.580  -4.518   5.212  0.00  0.00    +0.113 A 
ATOM     20  N   UNL     1       3.891  -3.578   4.603  0.00  0.00    -0.234 NA
ENDBRANCH   8  11
TORSDOF 1
