REMARK  Name = ZINC14902401
REMARK  7 active torsions:
REMARK  status: ('A' for Active; 'I' for Inactive)
REMARK    1  A    between atoms: C_1  and  C_2
REMARK    2  A    between atoms: C_5  and  C_8
REMARK    3  A    between atoms: C_9  and  C_36
REMARK    4  A    between atoms: C_17  and  C_19
REMARK    5  A    between atoms: C_19  and  S_20
REMARK    6  A    between atoms: S_20  and  C_21
REMARK    7  A    between atoms: C_24  and  C_26
REMARK                            x       y       z     vdW  Elec       q    Type
REMARK                         _______ _______ _______ _____ _____    ______ ____
ROOT
ATOM      1  C   UNL     1       0.060  -4.255  -0.021  0.00  0.00    +0.007 A 
ATOM      2  C   UNL     1      -0.988  -4.956  -0.517  0.00  0.00    -0.003 A 
ATOM      3  S   UNL     1      -0.486  -6.653  -0.304  0.00  0.00    -0.073 S 
ATOM      4  C   UNL     1       1.102  -6.384   0.439  0.00  0.00    +0.116 A 
ATOM      5  C   UNL     1       1.209  -4.985   0.499  0.00  0.00    +0.080 A 
ATOM      6  C   UNL     1       2.424  -4.480   1.063  0.00  0.00    +0.260 A 
ATOM      7  O   UNL     1       2.607  -3.279   1.162  0.00  0.00    -0.267 OA
ATOM      8  N   UNL     1       3.360  -5.351   1.484  0.00  0.00    -0.310 N 
ATOM      9  H   UNL     1       4.184  -5.014   1.868  0.00  0.00    +0.170 HD
ATOM     10  C   UNL     1       3.171  -6.692   1.383  0.00  0.00    +0.121 A 
ATOM     11  N   UNL     1       2.070  -7.183   0.881  0.00  0.00    -0.226 NA
ATOM     12  C   UNL     1      -2.270  -4.428  -1.108  0.00  0.00    +0.052 C 
ENDROOT
BRANCH   1  17
ATOM     13  C   UNL     1      -0.018   1.503   0.010  0.00  0.00    +0.044 C 
ATOM     14  C   UNL     1       0.002  -0.004   0.002  0.00  0.00    -0.050 A 
ATOM     15  C   UNL     1       0.006  -0.686  -1.201  0.00  0.00    +0.004 A 
ATOM     16  C   UNL     1       0.024  -2.066  -1.215  0.00  0.00    +0.009 A 
ATOM     17  C   UNL     1       0.040  -2.772  -0.013  0.00  0.00    -0.016 A 
ATOM     18  C   UNL     1       0.037  -2.079   1.196  0.00  0.00    +0.009 A 
ATOM     19  C   UNL     1       0.023  -0.699   1.198  0.00  0.00    +0.004 A 
ENDBRANCH   1  17
BRANCH  10  20
ATOM     20  C   UNL     1       4.247  -7.629   1.867  0.00  0.00    +0.153 C 
BRANCH  20  21
ATOM     21  S   UNL     1       3.718  -9.344   1.605  0.00  0.00    -0.058 S 
BRANCH  21  22
ATOM     22  C   UNL     1       5.064 -10.304   2.214  0.00  0.00    +0.278 A 
ATOM     23  N   UNL     1       6.174  -9.840   2.736  0.00  0.00    -0.101 NA
ATOM     24  N   UNL     1       6.933 -10.822   3.073  0.00  0.00    -0.106 NA
ATOM     25  C   UNL     1       6.338 -11.954   2.779  0.00  0.00    +0.251 A 
ATOM     26  O   UNL     1       5.140 -11.650   2.233  0.00  0.00    -0.411 OA
BRANCH  25  27
ATOM     27  C   UNL     1       6.875 -13.309   3.007  0.00  0.00    +0.063 A 
ATOM     28  C   UNL     1       6.269 -14.485   2.700  0.00  0.00    +0.097 A 
ATOM     29  N   UNL     1       7.074 -15.526   3.060  0.00  0.00    -0.360 N 
ATOM     30  H   UNL     1       6.856 -16.464   2.940  0.00  0.00    +0.165 HD
ATOM     31  C   UNL     1       8.243 -15.054   3.619  0.00  0.00    +0.047 A 
ATOM     32  C   UNL     1       8.177 -13.650   3.607  0.00  0.00    +0.012 A 
ATOM     33  C   UNL     1       9.236 -12.898   4.110  0.00  0.00    +0.011 A 
ATOM     34  C   UNL     1      10.347 -13.537   4.616  0.00  0.00    +0.001 A 
ATOM     35  C   UNL     1      10.414 -14.923   4.625  0.00  0.00    +0.002 A 
ATOM     36  C   UNL     1       9.371 -15.680   4.138  0.00  0.00    +0.026 A 
ENDBRANCH  25  27
ENDBRANCH  21  22
ENDBRANCH  20  21
ENDBRANCH  10  20
TORSDOF 5
