REMARK  Name = ZINC04197262
REMARK  5 active torsions:
REMARK  status: ('A' for Active; 'I' for Inactive)
REMARK    1  A    between atoms: C_1  and  C_2
REMARK    2  A    between atoms: C_5  and  O_9
REMARK    3  A    between atoms: C_6  and  C_8
REMARK    4  A    between atoms: O_9  and  C_10
REMARK    5  A    between atoms: C_10  and  C_11
REMARK                            x       y       z     vdW  Elec       q    Type
REMARK                         _______ _______ _______ _____ _____    ______ ____
ROOT
ATOM      1  C   UNL     1       0.058  -4.771  -1.298  0.00  0.00    +0.328 C 
ENDROOT
BRANCH   1   2
ATOM      2  C   UNL     1       0.079  -6.266  -1.108  0.00  0.00    +0.273 C 
ATOM      3  O   UNL     1       0.090  -6.734   0.006  0.00  0.00    -0.268 OA
ATOM      4  N   UNL     1       0.084  -7.081  -2.182  0.00  0.00    -0.237 N 
ATOM      5  C   UNL     1       0.078  -6.713  -3.506  0.00  0.00    +0.233 A 
ATOM      6  N   UNL     1       0.087  -7.808  -4.210  0.00  0.00    -0.136 NA
ATOM      7  N   UNL     1       0.098  -8.834  -3.438  0.00  0.00    -0.113 NA
ATOM      8  C   UNL     1       0.102  -8.454  -2.183  0.00  0.00    +0.221 A 
ATOM      9  N   UNL     1       0.117  -9.278  -1.072  0.00  0.00    -0.327 N 
ATOM     10  H   UNL     1       0.116  -8.893  -0.182  0.00  0.00    +0.145 HD
ATOM     11  H   UNL     1       0.129 -10.242  -1.183  0.00  0.00    +0.145 HD
ENDBRANCH   1   2
BRANCH   1  12
ATOM     12  O   UNL     1       0.057  -4.129  -0.021  0.00  0.00    -0.482 OA
BRANCH  12  17
ATOM     13  C   UNL     1      -0.018   1.503   0.010  0.00  0.00    +0.044 C 
ATOM     14  C   UNL     1       0.002  -0.004   0.002  0.00  0.00    -0.050 A 
ATOM     15  C   UNL     1       0.006  -0.688  -1.200  0.00  0.00    +0.007 A 
ATOM     16  C   UNL     1       0.024  -2.069  -1.210  0.00  0.00    +0.046 A 
ATOM     17  C   UNL     1       0.039  -2.770  -0.013  0.00  0.00    +0.124 A 
ATOM     18  C   UNL     1       0.036  -2.082   1.191  0.00  0.00    -0.009 A 
ATOM     19  C   UNL     1       0.023  -0.701   1.196  0.00  0.00    +0.010 A 
ATOM     20  C   UNL     1       0.052  -2.841   2.493  0.00  0.00    +0.047 C 
ENDBRANCH  12  17
ENDBRANCH   1  12
TORSDOF 3
