REMARK  Name = ZINC22670202
REMARK  12 active torsions:
REMARK  status: ('A' for Active; 'I' for Inactive)
REMARK    1  A    between atoms: C_1  and  C_2
REMARK    2  A    between atoms: C_2  and  C_3
REMARK    3  A    between atoms: C_3  and  C_4
REMARK    4  A    between atoms: C_4  and  N_5
REMARK    5  A    between atoms: N_5  and  C_6
REMARK    6  A    between atoms: N_5  and  C_8
REMARK    7  A    between atoms: C_6  and  C_7
REMARK    8  A    between atoms: C_8  and  C_9
REMARK    9  A    between atoms: C_12  and  C_15
REMARK   10  A    between atoms: C_25  and  O_27
REMARK   11  A    between atoms: O_27  and  C_28
REMARK   12  A    between atoms: C_32  and  C_34
REMARK                            x       y       z     vdW  Elec       q    Type
REMARK                         _______ _______ _______ _____ _____    ______ ____
ROOT
ATOM      1  C   UNL     1       5.017  -5.544   6.687  0.00  0.00    +0.247 C 
ATOM      2  O   UNL     1       6.229  -5.504   6.601  0.00  0.00    -0.270 OA
ATOM      3  N   UNL     1       4.436  -5.994   7.817  0.00  0.00    -0.291 N 
ATOM      4  C   UNL     1       5.086  -6.364   9.098  0.00  0.00    +0.080 C 
ATOM      5  C   UNL     1       4.354  -7.652   9.539  0.00  0.00    +0.024 C 
ATOM      6  C   UNL     1       2.970  -7.569   8.861  0.00  0.00    +0.024 C 
ATOM      7  C   UNL     1       2.996  -6.232   8.076  0.00  0.00    +0.080 C 
ATOM      8  C   UNL     1       2.512  -5.120   9.020  0.00  0.00    +0.067 C 
ATOM      9  C   UNL     1       3.247  -5.250  10.357  0.00  0.00    +0.177 C 
ATOM     10  C   UNL     1       4.764  -5.253  10.110  0.00  0.00    +0.067 C 
ENDROOT
BRANCH   1  14
ATOM     11  C   UNL     1       2.611  -4.264   3.429  0.00  0.00    -0.064 A 
ATOM     12  C   UNL     1       3.917  -4.665   3.205  0.00  0.00    +0.002 A 
ATOM     13  C   UNL     1       4.703  -5.081   4.259  0.00  0.00    +0.013 A 
ATOM     14  C   UNL     1       4.180  -5.098   5.553  0.00  0.00    +0.037 A 
ATOM     15  C   UNL     1       2.862  -4.692   5.771  0.00  0.00    +0.013 A 
ATOM     16  C   UNL     1       2.088  -4.273   4.709  0.00  0.00    +0.002 A 
BRANCH  11  17
ATOM     17  C   UNL     1       1.758  -3.810   2.273  0.00  0.00    -0.043 C 
BRANCH  17  18
ATOM     18  N   UNL     1       1.804  -2.345   2.175  0.00  0.00    +0.382 N 
ATOM     19  H   UNL     1       1.510  -1.940   3.051  0.00  0.00    -0.081 HD
BRANCH  18  20
ATOM     20  C   UNL     1       0.907  -1.897   1.102  0.00  0.00    -0.082 C 
ATOM     21  C   UNL     1      -0.543  -2.191   1.494  0.00  0.00    -0.017 C 
ENDBRANCH  18  20
BRANCH  18  22
ATOM     22  C   UNL     1       3.178  -1.918   1.875  0.00  0.00    -0.078 C 
BRANCH  22  23
ATOM     23  C   UNL     1       3.252  -0.390   1.897  0.00  0.00    -0.019 C 
BRANCH  23  25
ATOM     24  C   UNL     1       4.757   1.583   1.605  0.00  0.00    +0.004 C 
ATOM     25  C   UNL     1       4.682   0.055   1.584  0.00  0.00    -0.005 C 
ENDBRANCH  23  25
ENDBRANCH  22  23
ENDBRANCH  18  22
ENDBRANCH  17  18
ENDBRANCH  11  17
ENDBRANCH   1  14
BRANCH   9  26
ATOM     26  O   UNL     1       2.912  -4.141  11.194  0.00  0.00    -0.489 OA
BRANCH  26  27
ATOM     27  C   UNL     1       3.022  -4.325  12.536  0.00  0.00    +0.121 A 
ATOM     28  C   UNL     1       2.601  -3.333  13.410  0.00  0.00    +0.045 A 
ATOM     29  C   UNL     1       2.713  -3.523  14.774  0.00  0.00    +0.004 A 
ATOM     30  C   UNL     1       3.245  -4.700  15.268  0.00  0.00    +0.012 A 
ATOM     31  C   UNL     1       3.666  -5.689  14.399  0.00  0.00    +0.058 A 
ATOM     32  C   UNL     1       3.550  -5.507  13.034  0.00  0.00    +0.058 A 
BRANCH  31  33
ATOM     33  C   UNL     1       4.245  -6.971  14.940  0.00  0.00    +0.418 C 
ATOM     34  F   UNL     1       4.254  -6.924  16.338  0.00  0.00    -0.166 F 
ATOM     35  F   UNL     1       3.466  -8.052  14.514  0.00  0.00    -0.166 F 
ATOM     36  F   UNL     1       5.554  -7.125  14.471  0.00  0.00    -0.166 F 
ENDBRANCH  31  33
ENDBRANCH  26  27
ENDBRANCH   9  26
TORSDOF 10
