REMARK  Name = ZINC21247848
REMARK  12 active torsions:
REMARK  status: ('A' for Active; 'I' for Inactive)
REMARK    1  A    between atoms: C_1  and  C_2
REMARK    2  A    between atoms: C_9  and  C_11
REMARK    3  A    between atoms: N_13  and  C_14
REMARK    4  A    between atoms: N_13  and  C_18
REMARK    5  A    between atoms: C_14  and  C_15
REMARK    6  A    between atoms: C_15  and  C_16
REMARK    7  A    between atoms: C_15  and  C_17
REMARK    8  A    between atoms: C_19  and  N_31
REMARK    9  A    between atoms: N_20  and  C_27
REMARK   10  A    between atoms: C_27  and  C_28
REMARK   11  A    between atoms: C_28  and  C_29
REMARK   12  A    between atoms: C_28  and  C_30
REMARK                            x       y       z     vdW  Elec       q    Type
REMARK                         _______ _______ _______ _____ _____    ______ ____
ROOT
ATOM      1  C   UNL     1      -1.600   2.835   5.104  0.00  0.00    +0.258 C 
ATOM      2  O   UNL     1      -2.653   3.314   5.484  0.00  0.00    -0.269 OA
ATOM      3  N   UNL     1      -0.772   2.241   5.985  0.00  0.00    -0.260 N 
ENDROOT
BRANCH   1  11
ATOM      4  C   UNL     1      -2.044   3.795  -2.399  0.00  0.00    +0.008 C 
ATOM      5  C   UNL     1      -1.434   3.198  -1.130  0.00  0.00    -0.009 C 
ATOM      6  C   UNL     1       0.061   3.526  -1.081  0.00  0.00    +0.009 C 
ATOM      7  C   UNL     1       0.710   2.702   0.041  0.00  0.00    +0.043 C 
ATOM      8  C   UNL     1      -0.129   2.839   1.274  0.00  0.00    -0.006 A 
ATOM      9  C   UNL     1      -1.406   3.317   1.352  0.00  0.00    -0.036 A 
ATOM     10  C   UNL     1      -1.984   3.350   2.611  0.00  0.00    +0.024 A 
ATOM     11  C   UNL     1      -1.234   2.905   3.686  0.00  0.00    +0.075 A 
ATOM     12  S   UNL     1       0.296   2.436   2.894  0.00  0.00    -0.088 S 
ATOM     13  C   UNL     1      -2.137   3.783   0.095  0.00  0.00    +0.039 C 
ENDBRANCH   1  11
BRANCH   3  14
ATOM     14  C   UNL     1      -1.154   2.115   7.337  0.00  0.00    +0.140 A 
ATOM     15  C   UNL     1      -1.385   3.235   8.109  0.00  0.00    +0.127 A 
ATOM     16  N   UNL     1      -1.756   3.080   9.424  0.00  0.00    -0.280 N 
ATOM     17  C   UNL     1      -1.893   1.850   9.953  0.00  0.00    +0.331 A 
ATOM     18  O   UNL     1      -2.222   1.734  11.117  0.00  0.00    -0.246 OA
ATOM     19  N   UNL     1      -1.673   0.747   9.216  0.00  0.00    -0.273 N 
ATOM     20  H   UNL     1      -1.786  -0.249   9.669  0.00  0.00    +0.173 HD
ATOM     21  C   UNL     1      -1.312   0.844   7.921  0.00  0.00    +0.277 A 
ATOM     22  O   UNL     1      -1.120  -0.163   7.261  0.00  0.00    -0.266 OA
BRANCH  15  23
ATOM     23  N   UNL     1      -1.245   4.492   7.570  0.00  0.00    -0.343 N 
ATOM     24  H   UNL     1      -1.430   5.381   8.191  0.00  0.00    +0.144 HD
ATOM     25  H   UNL     1      -0.947   4.608   6.517  0.00  0.00    +0.144 HD
ENDBRANCH  15  23
BRANCH  16  26
ATOM     26  C   UNL     1      -2.004   4.261  10.255  0.00  0.00    +0.131 C 
BRANCH  26  27
ATOM     27  C   UNL     1      -3.478   4.658  10.151  0.00  0.00    +0.003 C 
ATOM     28  C   UNL     1      -4.348   3.551  10.751  0.00  0.00    +0.009 C 
ATOM     29  C   UNL     1      -3.711   5.961  10.918  0.00  0.00    +0.009 C 
ENDBRANCH  26  27
ENDBRANCH  16  26
ENDBRANCH   3  14
BRANCH   3  30
ATOM     30  C   UNL     1       0.525   1.726   5.540  0.00  0.00    +0.117 C 
BRANCH  30  31
ATOM     31  C   UNL     1       1.541   2.869   5.500  0.00  0.00    +0.001 C 
ATOM     32  C   UNL     1       1.782   3.387   6.919  0.00  0.00    +0.009 C 
ATOM     33  C   UNL     1       2.859   2.360   4.912  0.00  0.00    +0.009 C 
ENDBRANCH  30  31
ENDBRANCH   3  30
TORSDOF 7
