REMARK  Name = ZINC63869759
REMARK  3 active torsions:
REMARK  status: ('A' for Active; 'I' for Inactive)
REMARK    1  A    between atoms: C_1  and  C_2
REMARK    2  A    between atoms: C_5  and  N_9
REMARK    3  A    between atoms: C_15  and  N_18
REMARK                            x       y       z     vdW  Elec       q    Type
REMARK                         _______ _______ _______ _____ _____    ______ ____
ROOT
ATOM      1  N   UNL     1       2.431  -4.230  -1.723  0.00  0.00    -0.274 N 
ATOM      2  C   UNL     1       1.197  -3.970  -2.197  0.00  0.00    +0.304 C 
ATOM      3  O   UNL     1       0.625  -2.947  -1.876  0.00  0.00    -0.253 OA
ATOM      4  N   UNL     1       0.597  -4.845  -3.028  0.00  0.00    -0.285 N 
ATOM      5  C   UNL     1      -0.698  -4.524  -3.646  0.00  0.00    +0.111 C 
ATOM      6  C   UNL     1      -0.576  -4.694  -5.163  0.00  0.00    +0.044 C 
ATOM      7  C   UNL     1      -0.062  -6.102  -5.475  0.00  0.00    +0.095 C 
ATOM      8  C   UNL     1       1.324  -6.290  -4.855  0.00  0.00    +0.044 C 
ATOM      9  C   UNL     1       1.226  -6.136  -3.339  0.00  0.00    +0.111 C 
ATOM     10  H   UNL     1       2.858  -5.079  -1.919  0.00  0.00    +0.153 HD
ENDROOT
BRANCH   7  11
ATOM     11  N   UNL     1       0.024  -6.279  -6.927  0.00  0.00    -0.289 N 
ATOM     12  C   UNL     1      -0.663  -7.233  -7.674  0.00  0.00    +0.070 A 
ATOM     13  C   UNL     1      -1.565  -8.233  -7.342  0.00  0.00    +0.028 A 
ATOM     14  C   UNL     1      -2.089  -9.041  -8.331  0.00  0.00    +0.002 A 
ATOM     15  C   UNL     1      -1.718  -8.859  -9.652  0.00  0.00    +0.002 A 
ATOM     16  C   UNL     1      -0.820  -7.866  -9.992  0.00  0.00    +0.028 A 
ATOM     17  C   UNL     1      -0.289  -7.048  -9.006  0.00  0.00    +0.067 A 
ATOM     18  N   UNL     1       0.613  -5.988  -9.028  0.00  0.00    -0.306 N 
ATOM     19  H   UNL     1       1.048  -5.627  -9.817  0.00  0.00    +0.170 HD
ATOM     20  C   UNL     1       0.776  -5.544  -7.767  0.00  0.00    +0.328 A 
ATOM     21  O   UNL     1       1.497  -4.621  -7.437  0.00  0.00    -0.247 OA
ENDBRANCH   7  11
BRANCH   1  25
ATOM     22  C   UNL     1       6.598  -3.470   0.475  0.00  0.00    +0.042 C 
ATOM     23  C   UNL     1       5.588  -3.357  -0.669  0.00  0.00    +0.131 C 
ATOM     24  N   UNL     1       4.285  -3.835  -0.204  0.00  0.00    -0.273 NA
ATOM     25  C   UNL     1       3.129  -3.231  -0.910  0.00  0.00    +0.219 C 
ATOM     26  S   UNL     1       3.945  -1.969  -1.976  0.00  0.00    -0.040 S 
ATOM     27  N   UNL     1       5.528  -1.937  -1.125  0.00  0.00    -0.245 NA
ATOM     28  H   UNL     1       4.238  -4.843  -0.232  0.00  0.00    +0.126 HD
ATOM     29  H   UNL     1       6.279  -1.731  -1.768  0.00  0.00    +0.137 HD
ENDBRANCH   1  25
TORSDOF 2
