REMARK  Name = ZINC03116077
REMARK  10 active torsions:
REMARK  status: ('A' for Active; 'I' for Inactive)
REMARK    1  A    between atoms: C_1  and  C_2
REMARK    2  A    between atoms: C_6  and  C_31
REMARK    3  A    between atoms: C_7  and  O_8
REMARK    4  A    between atoms: O_8  and  C_9
REMARK    5  A    between atoms: C_9  and  C_10
REMARK    6  A    between atoms: N_12  and  N_13
REMARK    7  A    between atoms: C_14  and  C_15
REMARK    8  A    between atoms: C_19  and  O_21
REMARK    9  A    between atoms: O_21  and  C_22
REMARK   10  A    between atoms: C_22  and  C_24
REMARK                            x       y       z     vdW  Elec       q    Type
REMARK                         _______ _______ _______ _____ _____    ______ ____
ROOT
ATOM      1  N   UNL     1      -2.422   1.514  -0.195  0.00  0.00    -0.188 NA
ATOM      2  C   UNL     1      -1.299   2.164  -0.191  0.00  0.00    +0.138 C 
ENDROOT
BRANCH   2   3
ATOM      3  C   UNL     1      -0.023   1.430  -0.099  0.00  0.00    -0.002 A 
ATOM      4  C   UNL     1      -0.021   0.035  -0.017  0.00  0.00    +0.010 A 
ATOM      5  C   UNL     1       1.175  -0.648   0.063  0.00  0.00    +0.004 A 
ATOM      6  C   UNL     1       2.373   0.043   0.061  0.00  0.00    +0.046 A 
ATOM      7  C   UNL     1       2.381   1.429  -0.020  0.00  0.00    +0.133 A 
ATOM      8  C   UNL     1       1.187   2.126  -0.100  0.00  0.00    +0.055 A 
BRANCH   7   9
ATOM      9  O   UNL     1       3.562   2.102  -0.021  0.00  0.00    -0.422 OA
BRANCH   9  10
ATOM     10  C   UNL     1       3.844   2.843   1.069  0.00  0.00    +0.344 C 
ATOM     11  O   UNL     1       3.110   2.805   2.036  0.00  0.00    -0.245 OA
BRANCH  10  12
ATOM     12  C   UNL     1       5.045   3.702   1.087  0.00  0.00    +0.060 A 
ATOM     13  C   UNL     1       5.341   4.471   2.214  0.00  0.00    +0.015 A 
ATOM     14  C   UNL     1       6.464   5.271   2.225  0.00  0.00    +0.002 A 
ATOM     15  C   UNL     1       7.299   5.312   1.122  0.00  0.00    +0.015 A 
ATOM     16  C   UNL     1       7.013   4.553   0.001  0.00  0.00    +0.019 A 
ATOM     17  C   UNL     1       5.894   3.744  -0.021  0.00  0.00    +0.030 A 
ATOM     18 BR   UNL     1       8.160   4.616  -1.501  0.00  0.00    -0.050 Br
ENDBRANCH  10  12
ENDBRANCH   9  10
ENDBRANCH   7   9
ENDBRANCH   2   3
BRANCH   1  21
ATOM     19  C   UNL     1      -4.801   1.537  -0.287  0.00  0.00    +0.270 C 
ATOM     20  O   UNL     1      -4.802   0.326  -0.215  0.00  0.00    -0.270 OA
ATOM     21  N   UNL     1      -3.635   2.211  -0.282  0.00  0.00    -0.204 N 
ATOM     22  H   UNL     1      -3.634   3.180  -0.339  0.00  0.00    +0.177 HD
BRANCH  19  23
ATOM     23  C   UNL     1      -6.105   2.287  -0.380  0.00  0.00    +0.326 C 
BRANCH  23  24
ATOM     24  O   UNL     1      -7.191   1.358  -0.366  0.00  0.00    -0.482 OA
BRANCH  24  31
ATOM     25  C   UNL     1      -8.492   1.989   2.060  0.00  0.00    +0.047 C 
ATOM     26  C   UNL     1      -9.135   2.204   0.714  0.00  0.00    -0.009 A 
ATOM     27  C   UNL     1     -10.408   2.733   0.632  0.00  0.00    +0.007 A 
ATOM     28  C   UNL     1     -11.000   2.925  -0.603  0.00  0.00    +0.001 A 
ATOM     29  C   UNL     1     -10.317   2.593  -1.759  0.00  0.00    +0.007 A 
ATOM     30  C   UNL     1      -9.042   2.068  -1.682  0.00  0.00    -0.009 A 
ATOM     31  C   UNL     1      -8.446   1.874  -0.444  0.00  0.00    +0.127 A 
ATOM     32  C   UNL     1      -8.298   1.706  -2.942  0.00  0.00    +0.047 C 
ENDBRANCH  24  31
ENDBRANCH  23  24
ENDBRANCH  19  23
ENDBRANCH   1  21
TORSDOF 8
