REMARK  Name = ZINC20154771
REMARK  12 active torsions:
REMARK  status: ('A' for Active; 'I' for Inactive)
REMARK    1  A    between atoms: C_1  and  C_2
REMARK    2  A    between atoms: C_5  and  O_9
REMARK    3  A    between atoms: C_6  and  C_8
REMARK    4  A    between atoms: O_9  and  C_10
REMARK    5  A    between atoms: C_10  and  C_11
REMARK    6  A    between atoms: C_11  and  O_12
REMARK    7  A    between atoms: O_12  and  C_13
REMARK    8  A    between atoms: C_16  and  C_21
REMARK    9  A    between atoms: C_18  and  O_19
REMARK   10  A    between atoms: O_19  and  C_20
REMARK   11  A    between atoms: C_32  and  S_33
REMARK   12  A    between atoms: S_33  and  C_34
REMARK                            x       y       z     vdW  Elec       q    Type
REMARK                         _______ _______ _______ _____ _____    ______ ____
ROOT
ATOM      1  C   UNL     1      -0.566  -8.109   0.268  0.00  0.00    +0.162 A 
ATOM      2  C   UNL     1       0.364  -9.110   0.016  0.00  0.00    +0.050 A 
ATOM      3  C   UNL     1      -0.005 -10.434   0.100  0.00  0.00    +0.012 A 
ATOM      4  C   UNL     1      -1.322 -10.774   0.441  0.00  0.00    -0.021 A 
ATOM      5  C   UNL     1      -2.258  -9.762   0.695  0.00  0.00    +0.057 A 
ATOM      6  C   UNL     1      -1.877  -8.438   0.613  0.00  0.00    +0.162 A 
ENDROOT
BRANCH   4   7
ATOM      7  C   UNL     1      -1.718 -12.181   0.531  0.00  0.00    +0.024 C 
ATOM      8  C   UNL     1      -1.198 -13.100  -0.351  0.00  0.00    +0.079 C 
ATOM      9  C   UNL     1      -1.426 -14.565  -0.188  0.00  0.00    +0.137 C 
ATOM     10  N   UNL     1      -2.517 -15.071   0.320  0.00  0.00    -0.284 NA
ATOM     11  N   UNL     1      -0.344 -15.348  -0.639  0.00  0.00    -0.211 N 
ATOM     12  C   UNL     1       0.517 -14.805  -1.572  0.00  0.00    +0.183 C 
ATOM     13  N   UNL     1       0.501 -13.572  -2.027  0.00  0.00    -0.152 NA
ATOM     14  C   UNL     1      -0.383 -12.689  -1.522  0.00  0.00    +0.273 C 
ATOM     15  O   UNL     1      -0.509 -11.578  -2.010  0.00  0.00    -0.268 OA
ATOM     16  S   UNL     1       1.544 -16.069  -1.929  0.00  0.00    +0.048 S 
ATOM     17  N   UNL     1       0.963 -17.210  -0.848  0.00  0.00    -0.185 NA
ATOM     18  C   UNL     1      -0.040 -16.616  -0.262  0.00  0.00    +0.175 C 
ATOM     19  H   UNL     1      -3.231 -14.485   0.615  0.00  0.00    +0.188 HD
BRANCH  18  20
ATOM     20  S   UNL     1      -0.974 -17.438   0.986  0.00  0.00    -0.093 S 
ATOM     21  C   UNL     1      -0.189 -19.068   1.121  0.00  0.00    +0.093 C 
ENDBRANCH  18  20
ENDBRANCH   4   7
BRANCH   6  22
ATOM     22  O   UNL     1      -2.781  -7.454   0.863  0.00  0.00    -0.491 OA
ATOM     23  C   UNL     1      -4.106  -7.862   1.211  0.00  0.00    +0.277 C 
ENDBRANCH   6  22
BRANCH   1  24
ATOM     24  O   UNL     1      -0.196  -6.805   0.183  0.00  0.00    -0.485 OA
BRANCH  24  25
ATOM     25  C   UNL     1       1.162  -6.539  -0.175  0.00  0.00    +0.270 C 
BRANCH  25  26
ATOM     26  C   UNL     1       1.390  -5.026  -0.220  0.00  0.00    +0.270 C 
BRANCH  26  27
ATOM     27  O   UNL     1       1.231  -4.482   1.091  0.00  0.00    -0.488 OA
BRANCH  27  32
ATOM     28  C   UNL     1       1.934   1.078   1.654  0.00  0.00    +0.044 C 
ATOM     29  C   UNL     1       1.746  -0.409   1.503  0.00  0.00    -0.050 A 
ATOM     30  C   UNL     1       1.887  -1.001   0.261  0.00  0.00    +0.007 A 
ATOM     31  C   UNL     1       1.715  -2.364   0.121  0.00  0.00    +0.046 A 
ATOM     32  C   UNL     1       1.401  -3.140   1.227  0.00  0.00    +0.124 A 
ATOM     33  C   UNL     1       1.261  -2.545   2.472  0.00  0.00    -0.009 A 
ATOM     34  C   UNL     1       1.439  -1.181   2.608  0.00  0.00    +0.010 A 
ATOM     35  C   UNL     1       0.920  -3.385   3.676  0.00  0.00    +0.047 C 
ENDBRANCH  27  32
ENDBRANCH  26  27
ENDBRANCH  25  26
ENDBRANCH  24  25
ENDBRANCH   1  24
TORSDOF 8
