REMARK  Name = ZINC21353874
REMARK  16 active torsions:
REMARK  status: ('A' for Active; 'I' for Inactive)
REMARK    1  A    between atoms: C_1  and  C_2
REMARK    2  A    between atoms: C_2  and  C_3
REMARK    3  A    between atoms: C_3  and  C_4
REMARK    4  A    between atoms: C_4  and  N_5
REMARK    5  A    between atoms: C_6  and  N_34
REMARK    6  A    between atoms: C_7  and  N_14
REMARK    7  A    between atoms: N_14  and  C_15
REMARK    8  A    between atoms: C_15  and  C_16
REMARK    9  A    between atoms: C_16  and  C_17
REMARK   10  A    between atoms: C_16  and  C_18
REMARK   11  A    between atoms: C_19  and  C_21
REMARK   12  A    between atoms: C_21  and  C_22
REMARK   13  A    between atoms: C_22  and  N_23
REMARK   14  A    between atoms: C_24  and  C_26
REMARK   15  A    between atoms: C_31  and  O_32
REMARK   16  A    between atoms: O_32  and  C_33
REMARK                            x       y       z     vdW  Elec       q    Type
REMARK                         _______ _______ _______ _____ _____    ______ ____
ROOT
ATOM      1  N   UNL     1       0.236   1.580   0.552  0.00  0.00    -0.264 N 
ATOM      2  C   UNL     1       0.356   0.256   0.787  0.00  0.00    +0.221 C 
ATOM      3  O   UNL     1      -0.586  -0.371   1.223  0.00  0.00    -0.275 OA
ENDROOT
BRANCH   1   6
ATOM      4  N   UNL     1      -3.310   2.458   0.160  0.00  0.00    -0.280 N 
ATOM      5  C   UNL     1      -2.106   1.820  -0.025  0.00  0.00    +0.127 A 
ATOM      6  C   UNL     1      -1.013   2.215   0.719  0.00  0.00    +0.140 A 
ATOM      7  C   UNL     1      -1.166   3.259   1.650  0.00  0.00    +0.277 A 
ATOM      8  O   UNL     1      -0.218   3.625   2.324  0.00  0.00    -0.266 OA
ATOM      9  N   UNL     1      -2.367   3.855   1.789  0.00  0.00    -0.273 N 
ATOM     10  H   UNL     1      -2.493   4.678   2.508  0.00  0.00    +0.173 HD
ATOM     11  C   UNL     1      -3.421   3.456   1.055  0.00  0.00    +0.331 A 
ATOM     12  O   UNL     1      -4.494   4.008   1.204  0.00  0.00    -0.246 OA
BRANCH   5  13
ATOM     13  N   UNL     1      -1.992   0.800  -0.940  0.00  0.00    -0.343 N 
ATOM     14  H   UNL     1      -1.026   0.294  -1.082  0.00  0.00    +0.144 HD
ATOM     15  H   UNL     1      -2.868   0.491  -1.529  0.00  0.00    +0.144 HD
ENDBRANCH   5  13
BRANCH   4  16
ATOM     16  C   UNL     1      -4.479   2.049  -0.623  0.00  0.00    +0.128 C 
BRANCH  16  17
ATOM     17  C   UNL     1      -5.236   0.951   0.127  0.00  0.00    +0.021 C 
BRANCH  17  19
ATOM     18  C   UNL     1      -7.213  -0.575   0.059  0.00  0.00    +0.004 C 
ATOM     19  C   UNL     1      -6.456   0.524  -0.691  0.00  0.00    -0.002 C 
ENDBRANCH  17  19
ENDBRANCH  16  17
ENDBRANCH   4  16
ENDBRANCH   1   6
BRANCH   1  20
ATOM     20  C   UNL     1       1.401   2.356   0.119  0.00  0.00    +0.117 C 
BRANCH  20  21
ATOM     21  C   UNL     1       1.531   2.273  -1.403  0.00  0.00    +0.001 C 
ATOM     22  C   UNL     1       0.331   2.961  -2.056  0.00  0.00    +0.009 C 
ATOM     23  C   UNL     1       2.821   2.969  -1.843  0.00  0.00    +0.009 C 
ENDBRANCH  20  21
ENDBRANCH   1  20
BRANCH   2  24
ATOM     24  C   UNL     1       1.662  -0.443   0.507  0.00  0.00    +0.115 C 
BRANCH  24  25
ATOM     25  C   UNL     1       1.530  -1.927   0.856  0.00  0.00    +0.113 C 
BRANCH  25  26
ATOM     26  N   UNL     1       2.799  -2.606   0.584  0.00  0.00    -0.311 N 
ATOM     27  C   UNL     1       2.920  -3.928   0.818  0.00  0.00    +0.248 C 
ATOM     28  O   UNL     1       1.975  -4.556   1.256  0.00  0.00    -0.270 OA
ATOM     29  H   UNL     1       3.654  -2.038   0.188  0.00  0.00    +0.149 HD
BRANCH  27  30
ATOM     30  C   UNL     1       4.197  -4.613   0.544  0.00  0.00    +0.078 A 
ATOM     31  C   UNL     1       5.284  -3.896   0.036  0.00  0.00    +0.017 A 
ATOM     32  C   UNL     1       6.476  -4.540  -0.214  0.00  0.00    +0.001 A 
ATOM     33  C   UNL     1       6.600  -5.899   0.027  0.00  0.00    +0.004 A 
ATOM     34  C   UNL     1       5.533  -6.620   0.524  0.00  0.00    +0.046 A 
ATOM     35  C   UNL     1       4.327  -5.987   0.786  0.00  0.00    +0.132 A 
BRANCH  35  36
ATOM     36  O   UNL     1       3.277  -6.695   1.274  0.00  0.00    -0.494 OA
ATOM     37  C   UNL     1       3.483  -8.091   1.496  0.00  0.00    +0.277 C 
ENDBRANCH  35  36
ENDBRANCH  27  30
ENDBRANCH  25  26
ENDBRANCH  24  25
ENDBRANCH   2  24
TORSDOF 12
