REMARK  Name = ZINC39836534
REMARK  11 active torsions:
REMARK  status: ('A' for Active; 'I' for Inactive)
REMARK    1  A    between atoms: C_1  and  C_2
REMARK    2  A    between atoms: C_2  and  O_3
REMARK    3  A    between atoms: O_3  and  C_4
REMARK    4  A    between atoms: C_8  and  C_10
REMARK    5  A    between atoms: N_12  and  C_13
REMARK    6  A    between atoms: C_14  and  C_27
REMARK    7  A    between atoms: C_19  and  C_23
REMARK    8  A    between atoms: C_23  and  C_24
REMARK    9  A    between atoms: C_23  and  C_25
REMARK   10  A    between atoms: C_23  and  C_26
REMARK   11  A    between atoms: N_29  and  C_30
REMARK                            x       y       z     vdW  Elec       q    Type
REMARK                         _______ _______ _______ _____ _____    ______ ____
ROOT
ATOM      1  C   UNL     1      -5.706  -6.265   0.002  0.00  0.00    +0.085 A 
ATOM      2  C   UNL     1      -6.050  -7.608   0.002  0.00  0.00    +0.069 A 
ATOM      3  C   UNL     1      -7.466  -7.930   0.006  0.00  0.00    -0.023 A 
ATOM      4  C   UNL     1      -8.278  -6.851   0.009  0.00  0.00    -0.004 A 
ATOM      5  S   UNL     1      -7.181  -5.463   0.014  0.00  0.00    -0.077 S 
ATOM      6  C   UNL     1      -9.776  -6.853   0.016  0.00  0.00    +0.046 C 
ATOM      7  C   UNL     1     -10.255  -8.261   0.398  0.00  0.00    -0.000 C 
ATOM      8  C   UNL     1      -9.492  -9.289  -0.442  0.00  0.00    +0.009 C 
ATOM      9  C   UNL     1      -8.029  -9.344   0.005  0.00  0.00    +0.037 C 
ENDROOT
BRANCH   1  12
ATOM     10  C   UNL     1      -4.285  -4.372   0.006  0.00  0.00    +0.249 C 
ATOM     11  O   UNL     1      -5.263  -3.650   0.015  0.00  0.00    -0.270 OA
ATOM     12  N   UNL     1      -4.436  -5.711  -0.000  0.00  0.00    -0.275 N 
ATOM     13  H   UNL     1      -3.655  -6.287  -0.007  0.00  0.00    +0.156 HD
BRANCH  10  18
ATOM     14  C   UNL     1      -1.498  -1.848   0.006  0.00  0.00    +0.121 A 
ATOM     15  C   UNL     1      -0.386  -2.679  -0.003  0.00  0.00    +0.046 A 
ATOM     16  C   UNL     1      -0.542  -4.053  -0.009  0.00  0.00    +0.004 A 
ATOM     17  C   UNL     1      -1.805  -4.608  -0.006  0.00  0.00    +0.013 A 
ATOM     18  C   UNL     1      -2.930  -3.781   0.004  0.00  0.00    +0.040 A 
ATOM     19  C   UNL     1      -2.771  -2.394   0.016  0.00  0.00    +0.058 A 
BRANCH  14  20
ATOM     20  O   UNL     1      -1.339  -0.499   0.012  0.00  0.00    -0.492 OA
BRANCH  20  22
ATOM     21  C   UNL     1      -0.019   1.526   0.010  0.00  0.00    +0.048 C 
ATOM     22  C   UNL     1       0.002  -0.004   0.002  0.00  0.00    +0.225 C 
ENDBRANCH  20  22
ENDBRANCH  14  20
ENDBRANCH  10  18
ENDBRANCH   1  12
BRANCH   7  23
ATOM     23  C   UNL     1     -11.755  -8.383   0.123  0.00  0.00    -0.035 C 
ATOM     24  C   UNL     1     -12.023  -8.141  -1.363  0.00  0.00    +0.011 C 
ATOM     25  C   UNL     1     -12.230  -9.787   0.505  0.00  0.00    +0.011 C 
ATOM     26  C   UNL     1     -12.513  -7.345   0.954  0.00  0.00    +0.011 C 
ENDBRANCH   7  23
BRANCH   2  27
ATOM     27  C   UNL     1      -5.027  -8.658  -0.002  0.00  0.00    +0.247 C 
ATOM     28  O   UNL     1      -4.600  -9.096   1.050  0.00  0.00    -0.270 OA
ATOM     29  N   UNL     1      -4.561  -9.140  -1.171  0.00  0.00    -0.307 N 
ATOM     30  H   UNL     1      -4.902  -8.791  -2.010  0.00  0.00    +0.149 HD
BRANCH  29  31
ATOM     31  C   UNL     1      -3.539 -10.190  -1.175  0.00  0.00    +0.096 C 
ATOM     32  C   UNL     1      -4.219 -11.564  -1.061  0.00  0.00    +0.046 C 
ATOM     33  C   UNL     1      -3.159 -12.657  -1.381  0.00  0.00    +0.168 C 
ATOM     34  S   UNL     1      -2.278 -11.868  -2.794  0.00  0.00    -0.029 S 
ATOM     35  O   UNL     1      -2.879 -12.295  -4.010  0.00  0.00    -0.174 OA
ATOM     36  O   UNL     1      -0.878 -12.027  -2.613  0.00  0.00    -0.174 OA
ATOM     37  C   UNL     1      -2.727 -10.111  -2.491  0.00  0.00    +0.188 C 
ENDBRANCH  29  31
ENDBRANCH   2  27
TORSDOF 7
