REMARK  Name = ZINC04854656
REMARK  3 active torsions:
REMARK  status: ('A' for Active; 'I' for Inactive)
REMARK    1  A    between atoms: C_4  and  C_7
REMARK    2  A    between atoms: C_7  and  N_8
REMARK    3  A    between atoms: C_14  and  C_20
REMARK                            x       y       z     vdW  Elec       q    Type
REMARK                         _______ _______ _______ _____ _____    ______ ____
ROOT
ATOM      1  N   UNL     1      -0.016   1.341   0.009  0.00  0.00    -0.288 N 
ATOM      2  C   UNL     1       1.382   1.796  -0.002  0.00  0.00    +0.159 C 
ATOM      3  C   UNL     1       2.204   0.526  -0.016  0.00  0.00    +0.039 C 
ATOM      4  C   UNL     1       1.323  -0.495  -0.013  0.00  0.00    +0.058 C 
ATOM      5  C   UNL     1       0.002  -0.004   0.002  0.00  0.00    +0.247 C 
ATOM      6  O   UNL     1      -0.993  -0.706   0.008  0.00  0.00    -0.270 OA
ATOM      7  C   UNL     1       1.880  -1.905  -0.026  0.00  0.00    +0.142 C 
ATOM      8  N   UNL     1       3.346  -2.043  -0.041  0.00  0.00    -0.288 N 
ATOM      9  C   UNL     1       4.096  -0.923  -0.043  0.00  0.00    +0.304 C 
ATOM     10  O   UNL     1       5.307  -1.027  -0.055  0.00  0.00    -0.252 OA
ATOM     11  N   UNL     1       3.550   0.300  -0.031  0.00  0.00    -0.271 N 
ATOM     12  H   UNL     1       3.762  -2.919  -0.050  0.00  0.00    +0.151 HD
ATOM     13  H   UNL     1       4.144   1.067  -0.032  0.00  0.00    +0.156 HD
ENDROOT
BRANCH   7  14
ATOM     14  C   UNL     1       1.335  -2.608  -1.242  0.00  0.00    -0.022 A 
ATOM     15  C   UNL     1       1.902  -2.384  -2.483  0.00  0.00    +0.007 A 
ATOM     16  C   UNL     1       1.406  -3.033  -3.597  0.00  0.00    +0.020 A 
ATOM     17  C   UNL     1       0.335  -3.900  -3.473  0.00  0.00    +0.041 A 
ATOM     18  C   UNL     1      -0.236  -4.120  -2.232  0.00  0.00    +0.020 A 
ATOM     19  C   UNL     1       0.264  -3.474  -1.117  0.00  0.00    +0.007 A 
ATOM     20 CL   UNL     1      -0.294  -4.710  -4.874  0.00  0.00    -0.084 Cl
ENDBRANCH   7  14
BRANCH   1  21
ATOM     21  C   UNL     1      -1.207   2.194   0.020  0.00  0.00    +0.143 C 
BRANCH  21  25
ATOM     22  C   UNL     1      -2.344   3.003   4.057  0.00  0.00    +0.000 A 
ATOM     23  C   UNL     1      -1.463   3.845   3.405  0.00  0.00    +0.000 A 
ATOM     24  C   UNL     1      -1.095   3.583   2.099  0.00  0.00    +0.005 A 
ATOM     25  C   UNL     1      -1.608   2.479   1.444  0.00  0.00    -0.030 A 
ATOM     26  C   UNL     1      -2.494   1.640   2.095  0.00  0.00    +0.005 A 
ATOM     27  C   UNL     1      -2.858   1.899   3.403  0.00  0.00    +0.000 A 
ENDBRANCH  21  25
ENDBRANCH   1  21
TORSDOF 3
