REMARK  Name = ZINC02308813
REMARK  8 active torsions:
REMARK  status: ('A' for Active; 'I' for Inactive)
REMARK    1  A    between atoms: C_1  and  C_2
REMARK    2  A    between atoms: C_5  and  C_8
REMARK    3  A    between atoms: C_9  and  C_14
REMARK    4  A    between atoms: N_15  and  N_16
REMARK    5  A    between atoms: C_17  and  C_27
REMARK    6  A    between atoms: C_27  and  O_28
REMARK    7  A    between atoms: O_28  and  C_29
REMARK    8  A    between atoms: C_34  and  C_35
REMARK                            x       y       z     vdW  Elec       q    Type
REMARK                         _______ _______ _______ _____ _____    ______ ____
ROOT
ATOM      1  N   UNL     1      -2.925  -2.856   2.821  0.00  0.00    -0.178 N 
ATOM      2  C   UNL     1      -3.217  -1.529   2.848  0.00  0.00    +0.172 A 
ATOM      3  N   UNL     1      -4.093  -1.007   3.653  0.00  0.00    -0.228 NA
ATOM      4  C   UNL     1      -4.787  -1.767   4.536  0.00  0.00    +0.078 A 
ATOM      5  C   UNL     1      -5.729  -1.208   5.403  0.00  0.00    +0.028 A 
ATOM      6  C   UNL     1      -6.409  -2.022   6.282  0.00  0.00    +0.002 A 
ATOM      7  C   UNL     1      -6.169  -3.389   6.317  0.00  0.00    +0.001 A 
ATOM      8  C   UNL     1      -5.251  -3.959   5.479  0.00  0.00    +0.015 A 
ATOM      9  C   UNL     1      -4.549  -3.159   4.579  0.00  0.00    +0.067 A 
ATOM     10  C   UNL     1      -3.556  -3.718   3.652  0.00  0.00    +0.282 A 
ATOM     11  O   UNL     1      -3.307  -4.910   3.635  0.00  0.00    -0.265 OA
ENDROOT
BRANCH   1  13
ATOM     12  C   UNL     1      -2.323  -4.123   0.948  0.00  0.00    +0.145 C 
ATOM     13  N   UNL     1      -1.965  -3.337   1.920  0.00  0.00    -0.170 NA
BRANCH  12  15
ATOM     14  C   UNL     1       0.029  -4.261  -0.049  0.00  0.00    +0.074 A 
ATOM     15  C   UNL     1      -1.337  -4.540  -0.061  0.00  0.00    +0.040 A 
ATOM     16  C   UNL     1      -1.595  -5.297  -1.223  0.00  0.00    +0.144 A 
ATOM     17  N   UNL     1      -0.472  -5.465  -1.866  0.00  0.00    -0.181 NA
ATOM     18  N   UNL     1       0.559  -4.828  -1.167  0.00  0.00    -0.276 N 
ATOM     19  H   UNL     1       1.492  -4.797  -1.432  0.00  0.00    +0.189 HD
BRANCH  14  24
ATOM     20  C   UNL     1       2.876  -1.263   3.952  0.00  0.00    +0.044 C 
ATOM     21  C   UNL     1       2.130  -2.048   2.904  0.00  0.00    -0.050 A 
ATOM     22  C   UNL     1       2.302  -1.746   1.564  0.00  0.00    +0.004 A 
ATOM     23  C   UNL     1       1.623  -2.461   0.600  0.00  0.00    +0.010 A 
ATOM     24  C   UNL     1       0.760  -3.491   0.978  0.00  0.00    +0.000 A 
ATOM     25  C   UNL     1       0.591  -3.791   2.331  0.00  0.00    +0.010 A 
ATOM     26  C   UNL     1       1.280  -3.071   3.285  0.00  0.00    +0.004 A 
ENDBRANCH  14  24
ENDBRANCH  12  15
ENDBRANCH   1  13
BRANCH   2  27
ATOM     27  C   UNL     1      -2.488  -0.616   1.896  0.00  0.00    +0.305 C 
BRANCH  27  28
ATOM     28  O   UNL     1      -2.852   0.740   2.163  0.00  0.00    -0.484 OA
BRANCH  28  29
ATOM     29  C   UNL     1      -2.354   1.688   1.327  0.00  0.00    +0.124 A 
ATOM     30  C   UNL     1      -1.620   1.315   0.210  0.00  0.00    +0.046 A 
ATOM     31  C   UNL     1      -1.117   2.281  -0.639  0.00  0.00    +0.004 A 
ATOM     32  C   UNL     1      -1.343   3.619  -0.377  0.00  0.00    +0.000 A 
ATOM     33  C   UNL     1      -2.074   3.994   0.735  0.00  0.00    +0.007 A 
ATOM     34  C   UNL     1      -2.585   3.032   1.584  0.00  0.00    -0.009 A 
ATOM     35  C   UNL     1      -3.386   3.441   2.793  0.00  0.00    +0.047 C 
ENDBRANCH  28  29
ENDBRANCH  27  28
ENDBRANCH   2  27
TORSDOF 6
