REMARK  Name = ZINC12571179
REMARK  11 active torsions:
REMARK  status: ('A' for Active; 'I' for Inactive)
REMARK    1  A    between atoms: C_1  and  C_2
REMARK    2  A    between atoms: C_7  and  C_8
REMARK    3  A    between atoms: C_8  and  N_9
REMARK    4  A    between atoms: C_10  and  C_12
REMARK    5  A    between atoms: C_12  and  C_13
REMARK    6  A    between atoms: C_20  and  C_21
REMARK    7  A    between atoms: C_20  and  N_61
REMARK    8  A    between atoms: C_24  and  O_29
REMARK    9  A    between atoms: C_25  and  C_28
REMARK   10  A    between atoms: C_26  and  C_27
REMARK   11  A    between atoms: O_29  and  C_30
REMARK                            x       y       z     vdW  Elec       q    Type
REMARK                         _______ _______ _______ _____ _____    ______ ____
ROOT
ATOM      1  C   UNL     1      -4.495  -2.213  -2.668  0.00  0.00    +0.028 C 
ATOM      2  C   UNL     1      -4.665  -3.705  -2.718  0.00  0.00    +0.200 C 
ATOM      3  O   UNL     1      -5.115  -4.271  -1.745  0.00  0.00    -0.278 OA
ATOM      4  N   UNL     1      -4.340  -4.435  -3.790  0.00  0.00    -0.318 N 
ATOM      5  C   UNL     1      -3.757  -3.856  -4.997  0.00  0.00    +0.085 C 
ATOM      6  C   UNL     1      -4.002  -2.346  -5.025  0.00  0.00    -0.058 C 
ATOM      7  H   UNL     1      -4.498  -5.392  -3.765  0.00  0.00    +0.149 HD
ATOM      8  N   UNL     1      -3.564  -1.788  -3.730  0.00  0.00    +0.391 N 
ATOM      9  H   UNL     1      -2.624  -2.141  -3.513  0.00  0.00    -0.080 HD
ENDROOT
BRANCH   1  10
ATOM     10  C   UNL     1      -3.917  -1.813  -1.310  0.00  0.00    +0.089 C 
BRANCH  10  12
ATOM     11  N   UNL     1      -1.794  -2.104  -0.074  0.00  0.00    -0.311 N 
ATOM     12  C   UNL     1      -2.541  -2.407  -1.154  0.00  0.00    +0.212 C 
ATOM     13  O   UNL     1      -2.105  -3.158  -2.002  0.00  0.00    -0.276 OA
ATOM     14  H   UNL     1      -2.142  -1.504   0.603  0.00  0.00    +0.149 HD
BRANCH  11  15
ATOM     15  C   UNL     1      -0.456  -2.682   0.077  0.00  0.00    +0.139 C 
BRANCH  15  22
ATOM     16  C   UNL     1      -1.186  -3.896   2.594  0.00  0.00    +0.044 C 
ATOM     17  C   UNL     1      -0.187  -2.769   2.563  0.00  0.00    -0.046 A 
ATOM     18  C   UNL     1       0.385  -2.320   3.740  0.00  0.00    +0.006 A 
ATOM     19  C   UNL     1       1.302  -1.287   3.714  0.00  0.00    +0.038 A 
ATOM     20  C   UNL     1       1.648  -0.700   2.508  0.00  0.00    +0.124 A 
ATOM     21  C   UNL     1       1.076  -1.150   1.331  0.00  0.00    +0.043 A 
ATOM     22  C   UNL     1       0.163  -2.188   1.359  0.00  0.00    -0.025 A 
ATOM     23  F   UNL     1       2.544   0.310   2.481  0.00  0.00    -0.205 F 
ENDBRANCH  15  22
ENDBRANCH  11  15
ENDBRANCH  10  12
ENDBRANCH   1  10
BRANCH   8  24
ATOM     24  C   UNL     1      -3.518  -0.310  -3.803  0.00  0.00    -0.042 C 
BRANCH  24  25
ATOM     25  C   UNL     1      -2.896   0.105  -5.111  0.00  0.00    -0.061 A 
ATOM     26  C   UNL     1      -1.528   0.293  -5.195  0.00  0.00    +0.005 A 
ATOM     27  C   UNL     1      -0.955   0.668  -6.395  0.00  0.00    +0.046 A 
ATOM     28  C   UNL     1      -1.753   0.866  -7.512  0.00  0.00    +0.123 A 
ATOM     29  C   UNL     1      -3.125   0.681  -7.423  0.00  0.00    -0.006 A 
ATOM     30  C   UNL     1      -3.693   0.301  -6.223  0.00  0.00    -0.043 A 
ATOM     31  C   UNL     1      -5.184   0.101  -6.125  0.00  0.00    +0.044 C 
ATOM     32  C   UNL     1      -3.995   0.896  -8.635  0.00  0.00    +0.048 C 
BRANCH  28  33
ATOM     33  O   UNL     1      -1.192   1.239  -8.692  0.00  0.00    -0.495 OA
ATOM     34  C   UNL     1       0.227   1.411  -8.710  0.00  0.00    +0.277 C 
ENDBRANCH  28  33
ENDBRANCH  24  25
ENDBRANCH   8  24
TORSDOF 7
