REMARK  Name = ZINC27820094
REMARK  8 active torsions:
REMARK  status: ('A' for Active; 'I' for Inactive)
REMARK    1  A    between atoms: C_1  and  C_2
REMARK    2  A    between atoms: C_2  and  N_3
REMARK    3  A    between atoms: C_12  and  S_13
REMARK    4  A    between atoms: S_13  and  C_14
REMARK    5  A    between atoms: C_14  and  C_16
REMARK    6  A    between atoms: C_14  and  C_17
REMARK    7  A    between atoms: N_19  and  C_20
REMARK    8  A    between atoms: C_23  and  N_27
REMARK                            x       y       z     vdW  Elec       q    Type
REMARK                         _______ _______ _______ _____ _____    ______ ____
ROOT
ATOM      1  C   UNL     1      -1.026   3.900   0.045  0.00  0.00    +0.137 C 
ATOM      2  C   UNL     1      -0.289   4.198  -1.262  0.00  0.00    +0.029 C 
ENDROOT
BRANCH   1   3
ATOM      3  C   UNL     1      -2.218   4.814   0.169  0.00  0.00    +0.230 C 
ATOM      4  O   UNL     1      -3.326   4.407  -0.111  0.00  0.00    -0.274 OA
ATOM      5  N   UNL     1      -2.054   6.084   0.590  0.00  0.00    -0.283 N 
ATOM      6  H   UNL     1      -1.061   6.431   0.914  0.00  0.00    +0.155 HD
BRANCH   5   7
ATOM      7  C   UNL     1      -3.145   6.960   0.615  0.00  0.00    +0.052 A 
ATOM      8  C   UNL     1      -4.413   6.484   0.921  0.00  0.00    +0.027 A 
ATOM      9  C   UNL     1      -5.487   7.351   0.946  0.00  0.00    +0.034 A 
ATOM     10  C   UNL     1      -5.303   8.692   0.665  0.00  0.00    +0.128 A 
ATOM     11  C   UNL     1      -4.042   9.171   0.360  0.00  0.00    +0.054 A 
ATOM     12  C   UNL     1      -2.961   8.309   0.339  0.00  0.00    +0.064 A 
ATOM     13 CL   UNL     1      -1.377   8.911  -0.038  0.00  0.00    -0.082 Cl
BRANCH  10  14
ATOM     14  N   UNL     1      -6.457   9.618   0.692  0.00  0.00    +0.056 N 
ATOM     15  O   UNL     1      -7.569   9.198   0.961  0.00  0.00    -0.126 OA
ATOM     16  O   UNL     1      -6.296  10.800   0.445  0.00  0.00    -0.126 OA
ENDBRANCH  10  14
ENDBRANCH   5   7
ENDBRANCH   1   3
BRANCH   1  17
ATOM     17  S   UNL     1      -1.583   2.178   0.045  0.00  0.00    -0.075 S 
BRANCH  17  27
ATOM     18  N   UNL     1      -0.012  -0.013   0.046  0.00  0.00    -0.287 N 
ATOM     19  C   UNL     1       1.177  -0.661   0.041  0.00  0.00    +0.269 A 
ATOM     20  O   UNL     1       1.226  -1.880   0.041  0.00  0.00    -0.266 OA
ATOM     21  C   UNL     1       2.343   0.101   0.035  0.00  0.00    +0.102 A 
ATOM     22  C   UNL     1       2.305   1.506   0.035  0.00  0.00    +0.086 A 
ATOM     23  C   UNL     1       3.554   2.144   0.029  0.00  0.00    +0.036 A 
ATOM     24  C   UNL     1       4.689   1.414   0.024  0.00  0.00    +0.048 A 
ATOM     25  S   UNL     1       4.079  -0.264   0.027  0.00  0.00    -0.090 S 
ATOM     26  N   UNL     1       1.062   2.074   0.041  0.00  0.00    -0.222 NA
ATOM     27  C   UNL     1      -0.027   1.353   0.046  0.00  0.00    +0.173 A 
BRANCH  18  29
ATOM     28  C   UNL     1      -1.712  -1.031  -1.388  0.00  0.00    +0.027 C 
ATOM     29  C   UNL     1      -1.267  -0.768   0.052  0.00  0.00    +0.124 C 
ENDBRANCH  18  29
ENDBRANCH  17  27
ENDBRANCH   1  17
TORSDOF 6
