REMARK  Name = ZINC64175099
REMARK  5 active torsions:
REMARK  status: ('A' for Active; 'I' for Inactive)
REMARK    1  A    between atoms: C_1  and  C_2
REMARK    2  A    between atoms: C_4  and  C_12
REMARK    3  A    between atoms: C_18  and  C_20
REMARK    4  A    between atoms: C_20  and  N_21
REMARK    5  A    between atoms: C_29  and  C_33
REMARK                            x       y       z     vdW  Elec       q    Type
REMARK                         _______ _______ _______ _____ _____    ______ ____
ROOT
ATOM      1  C   UNL     1       0.379  -0.285  -2.575  0.00  0.00    +0.079 A 
ATOM      2  C   UNL     1       1.196  -0.730  -3.606  0.00  0.00    +0.076 A 
ATOM      3  S   UNL     1       0.358  -0.230  -4.976  0.00  0.00    -0.060 S 
ATOM      4  C   UNL     1      -1.030   0.543  -4.167  0.00  0.00    +0.165 A 
ATOM      5  N   UNL     1      -0.752   0.356  -2.895  0.00  0.00    -0.225 NA
ATOM      6  N   UNL     1      -2.126   1.176  -4.734  0.00  0.00    -0.263 N 
ATOM      7  C   UNL     1      -2.236   1.262  -6.075  0.00  0.00    +0.236 C 
ATOM      8  O   UNL     1      -1.375   0.787  -6.785  0.00  0.00    -0.274 OA
ATOM      9  H   UNL     1      -2.814   1.557  -4.166  0.00  0.00    +0.157 HD
ENDROOT
BRANCH   1  12
ATOM     10  C   UNL     1       1.782  -2.769  -1.166  0.00  0.00    +0.035 C 
ATOM     11  C   UNL     1       1.898  -1.315  -0.705  0.00  0.00    +0.109 C 
ATOM     12  C   UNL     1       0.728  -0.508  -1.226  0.00  0.00    +0.009 C 
ATOM     13  C   UNL     1       0.068  -0.033  -0.096  0.00  0.00    +0.005 A 
ATOM     14  C   UNL     1      -1.082   0.770   0.069  0.00  0.00    +0.010 A 
ATOM     15  C   UNL     1      -1.509   1.086   1.318  0.00  0.00    +0.001 A 
ATOM     16  C   UNL     1      -0.837   0.636   2.457  0.00  0.00    +0.002 A 
ATOM     17  C   UNL     1       0.273  -0.138   2.373  0.00  0.00    +0.026 A 
ATOM     18  C   UNL     1       0.779  -0.510   1.101  0.00  0.00    +0.043 A 
ATOM     19  N   UNL     1       1.824  -1.241   0.757  0.00  0.00    -0.377 N 
ATOM     20  H   UNL     1       2.443  -1.662   1.373  0.00  0.00    +0.160 HD
ENDBRANCH   1  12
BRANCH   7  21
ATOM     21  C   UNL     1      -3.426   1.950  -6.691  0.00  0.00    +0.210 C 
BRANCH  21  22
ATOM     22  N   UNL     1      -3.311   1.911  -8.151  0.00  0.00    -0.256 N 
ATOM     23  C   UNL     1      -2.654   2.939  -8.841  0.00  0.00    +0.079 A 
ATOM     24  C   UNL     1      -1.835   3.832  -8.169  0.00  0.00    +0.027 A 
ATOM     25  C   UNL     1      -1.196   4.839  -8.868  0.00  0.00    +0.002 A 
ATOM     26  C   UNL     1      -1.373   4.958 -10.235  0.00  0.00    +0.004 A 
ATOM     27  C   UNL     1      -2.189   4.070 -10.911  0.00  0.00    +0.047 A 
ATOM     28  C   UNL     1      -2.831   3.058 -10.219  0.00  0.00    +0.143 A 
ATOM     29  O   UNL     1      -3.635   2.174 -10.868  0.00  0.00    -0.478 OA
ATOM     30  C   UNL     1      -3.674   0.841 -10.352  0.00  0.00    +0.256 C 
ATOM     31  C   UNL     1      -3.832   0.881  -8.853  0.00  0.00    +0.261 C 
ATOM     32  O   UNL     1      -4.428  -0.007  -8.280  0.00  0.00    -0.271 OA
ATOM     33  C   UNL     1      -4.855   0.090 -10.970  0.00  0.00    +0.062 C 
ENDBRANCH  21  22
ENDBRANCH   7  21
TORSDOF 3
