REMARK  Name = ZINC16012647
REMARK  5 active torsions:
REMARK  status: ('A' for Active; 'I' for Inactive)
REMARK    1  A    between atoms: C_1  and  C_2
REMARK    2  A    between atoms: C_2  and  C_4
REMARK    3  A    between atoms: C_2  and  O_35
REMARK    4  A    between atoms: N_12  and  C_15
REMARK    5  A    between atoms: C_15  and  C_16
REMARK                            x       y       z     vdW  Elec       q    Type
REMARK                         _______ _______ _______ _____ _____    ______ ____
ROOT
ATOM      1  C   UNL     1      -1.433  -0.534   0.013  0.00  0.00    +0.096 C 
ATOM      2  C   UNL     1      -1.437  -2.077  -0.034  0.00  0.00    +0.109 C 
ATOM      3  C   UNL     1      -2.650  -2.444  -0.933  0.00  0.00    +0.123 C 
ATOM      4  C   UNL     1      -3.593  -3.141   0.021  0.00  0.00    +0.229 C 
ATOM      5  O   UNL     1      -4.679  -3.594  -0.272  0.00  0.00    -0.275 OA
ATOM      6  N   UNL     1      -3.043  -3.180   1.240  0.00  0.00    -0.237 N 
ATOM      7  C   UNL     1      -1.817  -2.613   1.328  0.00  0.00    +0.228 C 
ATOM      8  O   UNL     1      -1.133  -2.540   2.325  0.00  0.00    -0.275 OA
ATOM      9  C   UNL     1      -3.233  -1.095  -1.368  0.00  0.00    +0.136 C 
ATOM     10  N   UNL     1      -2.150  -0.111  -1.220  0.00  0.00    -0.293 NA
ATOM     11  C   UNL     1      -3.759  -1.148  -2.774  0.00  0.00    +0.005 A 
ATOM     12  C   UNL     1      -3.186  -1.442  -3.991  0.00  0.00    +0.027 A 
ATOM     13  C   UNL     1      -3.951  -1.407  -5.144  0.00  0.00    +0.041 A 
ATOM     14  C   UNL     1      -5.292  -1.075  -5.070  0.00  0.00    +0.022 A 
ATOM     15  C   UNL     1      -5.870  -0.780  -3.853  0.00  0.00    +0.025 A 
ATOM     16  C   UNL     1      -5.108  -0.814  -2.688  0.00  0.00    +0.039 A 
ATOM     17  N   UNL     1      -5.459  -0.561  -1.360  0.00  0.00    -0.283 N 
ATOM     18  C   UNL     1      -4.414  -0.706  -0.522  0.00  0.00    +0.243 C 
ATOM     19  O   UNL     1      -4.424  -0.553   0.681  0.00  0.00    -0.273 OA
ATOM     20 CL   UNL     1      -3.229  -1.777  -6.679  0.00  0.00    -0.084 Cl
ATOM     21  H   UNL     1      -2.514   0.825  -1.123  0.00  0.00    +0.124 HD
ATOM     22  H   UNL     1      -6.351  -0.310  -1.074  0.00  0.00    +0.155 HD
ENDROOT
BRANCH   1  24
ATOM     23  C   UNL     1      -0.019   1.526   0.010  0.00  0.00    +0.039 C 
ATOM     24  C   UNL     1       0.002  -0.004   0.002  0.00  0.00    +0.129 C 
BRANCH  24  25
ATOM     25  O   UNL     1       0.693  -0.477   1.160  0.00  0.00    -0.390 OA
ATOM     26  H   UNL     1       1.611  -0.180   1.219  0.00  0.00    +0.210 HD
ENDBRANCH  24  25
ENDBRANCH   1  24
BRANCH   6  27
ATOM     27  C   UNL     1      -3.710  -3.795   2.391  0.00  0.00    +0.151 C 
BRANCH  27  28
ATOM     28  C   UNL     1      -3.332  -5.252   2.471  0.00  0.00    -0.029 A 
ATOM     29  C   UNL     1      -4.092  -6.200   1.811  0.00  0.00    +0.008 A 
ATOM     30  C   UNL     1      -3.746  -7.536   1.883  0.00  0.00    +0.038 A 
ATOM     31  C   UNL     1      -2.639  -7.925   2.618  0.00  0.00    +0.123 A 
ATOM     32  C   UNL     1      -1.879  -6.975   3.279  0.00  0.00    +0.038 A 
ATOM     33  C   UNL     1      -2.223  -5.639   3.200  0.00  0.00    +0.008 A 
ATOM     34  F   UNL     1      -2.300  -9.231   2.690  0.00  0.00    -0.205 F 
ENDBRANCH  27  28
ENDBRANCH   6  27
TORSDOF 4
