REMARK  Name = ZINC36506459
REMARK  14 active torsions:
REMARK  status: ('A' for Active; 'I' for Inactive)
REMARK    1  A    between atoms: C_1  and  C_2
REMARK    2  A    between atoms: C_2  and  C_3
REMARK    3  A    between atoms: C_2  and  C_4
REMARK    4  A    between atoms: C_2  and  N_5
REMARK    5  A    between atoms: C_6  and  C_8
REMARK    6  A    between atoms: C_8  and  C_10
REMARK    7  A    between atoms: C_8  and  N_19
REMARK    8  A    between atoms: C_11  and  O_18
REMARK    9  A    between atoms: C_13  and  O_17
REMARK   10  A    between atoms: C_15  and  O_16
REMARK   11  A    between atoms: N_19  and  C_20
REMARK   12  A    between atoms: C_20  and  C_21
REMARK   13  A    between atoms: C_26  and  C_28
REMARK   14  A    between atoms: C_31  and  N_34
REMARK                            x       y       z     vdW  Elec       q    Type
REMARK                         _______ _______ _______ _____ _____    ______ ____
ROOT
ATOM      1  C   UNL     1       4.551  -1.387  -3.327  0.00  0.00    +0.200 C 
ENDROOT
BRANCH   1   2
ATOM      2  C   UNL     1       4.965  -1.584  -4.762  0.00  0.00    +0.065 A 
ATOM      3  C   UNL     1       6.269  -1.947  -5.064  0.00  0.00    +0.129 A 
ATOM      4  C   UNL     1       6.651  -2.128  -6.385  0.00  0.00    +0.091 A 
ATOM      5  C   UNL     1       5.728  -1.946  -7.404  0.00  0.00    +0.124 A 
ATOM      6  C   UNL     1       4.424  -1.583  -7.102  0.00  0.00    +0.091 A 
ATOM      7  C   UNL     1       4.042  -1.407  -5.781  0.00  0.00    +0.129 A 
BRANCH   7   8
ATOM      8  O   UNL     1       2.763  -1.056  -5.485  0.00  0.00    -0.506 OA
ATOM      9  H   UNL     1       2.614  -0.101  -5.452  0.00  0.00    +0.292 HD
ENDBRANCH   7   8
BRANCH   5  10
ATOM     10  O   UNL     1       6.103  -2.122  -8.698  0.00  0.00    -0.507 OA
ATOM     11  H   UNL     1       5.986  -3.026  -9.022  0.00  0.00    +0.292 HD
ENDBRANCH   5  10
BRANCH   3  12
ATOM     12  O   UNL     1       7.173  -2.126  -4.065  0.00  0.00    -0.506 OA
ATOM     13  H   UNL     1       7.157  -3.010  -3.674  0.00  0.00    +0.292 HD
ENDBRANCH   3  12
ENDBRANCH   1   2
BRANCH   1  15
ATOM     14  N   UNL     1       2.390  -2.571  -3.106  0.00  0.00    -0.309 N 
ATOM     15  C   UNL     1       3.047  -1.401  -3.232  0.00  0.00    +0.239 C 
ATOM     16  O   UNL     1       2.427  -0.359  -3.269  0.00  0.00    -0.273 OA
ATOM     17  H   UNL     1       2.886  -3.405  -3.076  0.00  0.00    +0.149 HD
BRANCH  14  19
ATOM     18  C   UNL     1       0.332  -1.961  -4.277  0.00  0.00    +0.031 C 
ATOM     19  C   UNL     1       0.928  -2.585  -3.013  0.00  0.00    +0.026 C 
ATOM     20  C   UNL     1       0.487  -1.780  -1.790  0.00  0.00    +0.031 C 
ATOM     21  C   UNL     1       0.439  -4.028  -2.877  0.00  0.00    +0.031 C 
ENDBRANCH  14  19
ENDBRANCH   1  15
BRANCH   1  22
ATOM     22  N   UNL     1       5.059  -0.101  -2.844  0.00  0.00    -0.274 N 
ATOM     23  C   UNL     1       5.151   0.133  -1.519  0.00  0.00    +0.248 C 
ATOM     24  O   UNL     1       5.155   1.275  -1.103  0.00  0.00    -0.270 OA
BRANCH  23  25
ATOM     25  C   UNL     1       5.246  -1.000  -0.574  0.00  0.00    +0.037 A 
ATOM     26  C   UNL     1       4.403  -2.103  -0.714  0.00  0.00    +0.015 A 
ATOM     27  C   UNL     1       4.497  -3.156   0.172  0.00  0.00    +0.033 A 
ATOM     28  C   UNL     1       5.425  -3.121   1.197  0.00  0.00    +0.126 A 
ATOM     29  C   UNL     1       6.264  -2.030   1.342  0.00  0.00    +0.033 A 
ATOM     30  C   UNL     1       6.184  -0.973   0.460  0.00  0.00    +0.015 A 
BRANCH  28  31
ATOM     31  N   UNL     1       5.521  -4.255   2.144  0.00  0.00    +0.056 N 
ATOM     32  O   UNL     1       4.789  -5.209   2.020  0.00  0.00    -0.126 OA
ATOM     33  O   UNL     1       6.331  -4.226   3.041  0.00  0.00    -0.126 OA
ENDBRANCH  28  31
ENDBRANCH  23  25
BRANCH  22  34
ATOM     34  C   UNL     1       5.467   0.931  -3.800  0.00  0.00    +0.183 C 
BRANCH  34  35
ATOM     35  C   UNL     1       4.506   2.090  -3.729  0.00  0.00    +0.122 A 
ATOM     36  C   UNL     1       4.569   3.112  -2.857  0.00  0.00    +0.046 A 
ATOM     37  C   UNL     1       3.479   3.965  -3.145  0.00  0.00    +0.041 A 
ATOM     38  C   UNL     1       2.814   3.412  -4.176  0.00  0.00    +0.195 A 
ATOM     39  O   UNL     1       3.444   2.280  -4.529  0.00  0.00    -0.466 OA
ENDBRANCH  34  35
ENDBRANCH  22  34
ENDBRANCH   1  22
TORSDOF 11
