REMARK  Name = ZINC01192195
REMARK  10 active torsions:
REMARK  status: ('A' for Active; 'I' for Inactive)
REMARK    1  A    between atoms: C_1  and  C_2
REMARK    2  A    between atoms: C_5  and  N_8
REMARK    3  A    between atoms: C_10  and  C_14
REMARK    4  A    between atoms: C_11  and  C_13
REMARK    5  A    between atoms: C_14  and  C_16
REMARK    6  A    between atoms: C_14  and  C_25
REMARK    7  A    between atoms: C_20  and  N_22
REMARK    8  A    between atoms: C_27  and  C_39
REMARK    9  A    between atoms: N_29  and  C_32
REMARK   10  A    between atoms: C_35  and  C_38
REMARK                            x       y       z     vdW  Elec       q    Type
REMARK                         _______ _______ _______ _____ _____    ______ ____
ROOT
ATOM      1  C   UNL     1       0.108  -7.541   1.475  0.00  0.00    +0.074 C 
ENDROOT
BRANCH   1   4
ATOM      2  N   UNL     1      -0.331  -4.568  -0.665  0.00  0.00    -0.219 N 
ATOM      3  C   UNL     1      -0.105  -5.119   0.545  0.00  0.00    +0.276 A 
ATOM      4  C   UNL     1      -0.106  -6.524   0.383  0.00  0.00    +0.047 A 
ATOM      5  C   UNL     1      -0.332  -6.795  -0.918  0.00  0.00    +0.039 A 
ATOM      6  N   UNL     1      -0.479  -5.613  -1.587  0.00  0.00    -0.294 N 
ATOM      7  C   UNL     1      -0.412  -8.170  -1.531  0.00  0.00    +0.065 C 
ATOM      8  O   UNL     1       0.068  -4.515   1.589  0.00  0.00    -0.266 OA
ATOM      9  H   UNL     1      -0.653  -5.514  -2.536  0.00  0.00    +0.187 HD
BRANCH   2  14
ATOM     10  C   UNL     1      -0.649   0.978  -1.813  0.00  0.00    +0.044 C 
ATOM     11  C   UNL     1      -0.564  -0.496  -1.508  0.00  0.00    -0.050 A 
ATOM     12  C   UNL     1      -0.724  -1.421  -2.523  0.00  0.00    +0.005 A 
ATOM     13  C   UNL     1      -0.647  -2.772  -2.248  0.00  0.00    +0.028 A 
ATOM     14  C   UNL     1      -0.409  -3.201  -0.948  0.00  0.00    +0.067 A 
ATOM     15  C   UNL     1      -0.248  -2.269   0.069  0.00  0.00    +0.028 A 
ATOM     16  C   UNL     1      -0.321  -0.920  -0.214  0.00  0.00    +0.005 A 
ENDBRANCH   2  14
ENDBRANCH   1   4
BRANCH   1  17
ATOM     17  C   UNL     1       1.403  -7.221   2.223  0.00  0.00    +0.135 C 
ATOM     18  C   UNL     1       2.593  -7.310   1.290  0.00  0.00    +0.047 C 
ATOM     19  N   UNL     1       3.358  -8.226   1.742  0.00  0.00    -0.181 NA
ATOM     20  N   UNL     1       2.871  -8.823   2.900  0.00  0.00    -0.160 N 
ATOM     21  C   UNL     1       1.690  -8.278   3.272  0.00  0.00    +0.249 C 
ATOM     22  O   UNL     1       1.007  -8.570   4.231  0.00  0.00    -0.273 OA
ATOM     23  C   UNL     1       2.829  -6.474   0.059  0.00  0.00    +0.063 C 
BRANCH  20  24
ATOM     24  C   UNL     1       3.520  -9.852   3.593  0.00  0.00    +0.060 A 
ATOM     25  C   UNL     1       2.948 -10.388   4.739  0.00  0.00    +0.026 A 
ATOM     26  C   UNL     1       3.590 -11.404   5.420  0.00  0.00    +0.005 A 
ATOM     27  C   UNL     1       4.802 -11.886   4.962  0.00  0.00    -0.050 A 
ATOM     28  C   UNL     1       5.375 -11.355   3.821  0.00  0.00    +0.005 A 
ATOM     29  C   UNL     1       4.734 -10.344   3.132  0.00  0.00    +0.026 A 
ATOM     30  C   UNL     1       5.501 -12.993   5.708  0.00  0.00    +0.044 C 
ENDBRANCH  20  24
ENDBRANCH   1  17
BRANCH   1  31
ATOM     31  C   UNL     1      -1.052  -7.496   2.437  0.00  0.00    -0.036 A 
ATOM     32  C   UNL     1      -1.223  -6.401   3.263  0.00  0.00    +0.004 A 
ATOM     33  C   UNL     1      -2.286  -6.360   4.145  0.00  0.00    +0.003 A 
ATOM     34  C   UNL     1      -3.179  -7.415   4.201  0.00  0.00    +0.033 A 
ATOM     35  C   UNL     1      -3.008  -8.509   3.375  0.00  0.00    +0.126 A 
ATOM     36  C   UNL     1      -1.947  -8.548   2.489  0.00  0.00    +0.037 A 
BRANCH  35  37
ATOM     37  N   UNL     1      -3.963  -9.639   3.435  0.00  0.00    +0.056 N 
ATOM     38  O   UNL     1      -4.892  -9.604   4.207  0.00  0.00    -0.126 OA
ATOM     39  O   UNL     1      -3.813 -10.596   2.712  0.00  0.00    -0.126 OA
ENDBRANCH  35  37
ENDBRANCH   1  31
TORSDOF 6
