REMARK  Name = ZINC06409028
REMARK  9 active torsions:
REMARK  status: ('A' for Active; 'I' for Inactive)
REMARK    1  A    between atoms: C_1  and  C_2
REMARK    2  A    between atoms: C_9  and  C_14
REMARK    3  A    between atoms: C_14  and  C_16
REMARK    4  A    between atoms: C_14  and  N_68
REMARK    5  A    between atoms: N_20  and  C_21
REMARK    6  A    between atoms: C_26  and  C_27
REMARK    7  A    between atoms: C_26  and  N_68
REMARK    8  A    between atoms: C_32  and  C_33
REMARK    9  A    between atoms: C_32  and  N_68
REMARK                            x       y       z     vdW  Elec       q    Type
REMARK                         _______ _______ _______ _____ _____    ______ ____
ROOT
ATOM      1  C   UNL     1       4.806  -2.884   0.206  0.00  0.00    +0.039 C 
ENDROOT
BRANCH   1  10
ATOM      2  C   UNL     1       4.073   4.530  -0.126  0.00  0.00    +0.044 C 
ATOM      3  C   UNL     1       3.558   3.144  -0.418  0.00  0.00    -0.050 A 
ATOM      4  C   UNL     1       2.348   2.985  -1.079  0.00  0.00    +0.005 A 
ATOM      5  C   UNL     1       1.858   1.727  -1.357  0.00  0.00    +0.026 A 
ATOM      6  C   UNL     1       2.583   0.604  -0.972  0.00  0.00    +0.049 A 
ATOM      7  C   UNL     1       3.810   0.769  -0.303  0.00  0.00    -0.001 A 
ATOM      8  C   UNL     1       4.288   2.056  -0.031  0.00  0.00    +0.013 A 
ATOM      9  C   UNL     1       4.566  -0.419   0.098  0.00  0.00    +0.017 A 
ATOM     10  C   UNL     1       4.054  -1.641  -0.192  0.00  0.00    +0.011 A 
ATOM     11  C   UNL     1       2.819  -1.752  -0.866  0.00  0.00    +0.251 A 
ATOM     12  O   UNL     1       2.377  -2.859  -1.117  0.00  0.00    -0.268 OA
ATOM     13  N   UNL     1       2.118  -0.666  -1.238  0.00  0.00    -0.322 N 
ATOM     14  H   UNL     1       1.272  -0.779  -1.699  0.00  0.00    +0.169 HD
ENDBRANCH   1  10
BRANCH   1  15
ATOM     15  C   UNL     1       5.127  -3.693  -1.024  0.00  0.00    +0.143 A 
ATOM     16  N   UNL     1       4.307  -4.475  -1.682  0.00  0.00    -0.115 NA
ATOM     17  N   UNL     1       4.954  -4.986  -2.672  0.00  0.00    -0.023 NA
ATOM     18  N   UNL     1       6.167  -4.557  -2.658  0.00  0.00    -0.044 NA
ATOM     19  N   UNL     1       6.314  -3.757  -1.657  0.00  0.00    -0.227 N 
BRANCH  19  20
ATOM     20  C   UNL     1       7.540  -3.051  -1.279  0.00  0.00    +0.111 C 
ATOM     21  C   UNL     1       7.948  -2.065  -2.393  0.00  0.00    +0.027 C 
ATOM     22  C   UNL     1       9.495  -2.137  -2.417  0.00  0.00    +0.002 C 
ATOM     23  C   UNL     1       9.771  -3.639  -2.162  0.00  0.00    +0.002 C 
ATOM     24  C   UNL     1       8.700  -4.052  -1.132  0.00  0.00    +0.027 C 
ENDBRANCH  19  20
ENDBRANCH   1  15
BRANCH   1  25
ATOM     25  N   UNL     1       3.958  -3.699   1.102  0.00  0.00    +0.396 N 
ATOM     26  H   UNL     1       3.221  -4.148   0.546  0.00  0.00    -0.080 HD
BRANCH  25  27
ATOM     27  C   UNL     1       4.773  -4.745   1.755  0.00  0.00    -0.002 C 
BRANCH  27  28
ATOM     28  C   UNL     1       4.990  -5.869   0.775  0.00  0.00    +0.089 A 
ATOM     29  C   UNL     1       6.155  -6.179   0.179  0.00  0.00    +0.042 A 
ATOM     30  C   UNL     1       5.905  -7.293  -0.655  0.00  0.00    +0.041 A 
ATOM     31  C   UNL     1       4.602  -7.597  -0.519  0.00  0.00    +0.195 A 
ATOM     32  O   UNL     1       4.054  -6.735   0.353  0.00  0.00    -0.470 OA
ENDBRANCH  27  28
ENDBRANCH  25  27
BRANCH  25  33
ATOM     33  C   UNL     1       3.330  -2.836   2.125  0.00  0.00    -0.045 C 
BRANCH  33  34
ATOM     34  C   UNL     1       1.849  -2.674   1.777  0.00  0.00    +0.102 C 
ATOM     35  C   UNL     1       1.123  -1.866   2.876  0.00  0.00    +0.032 C 
ATOM     36  C   UNL     1      -0.266  -2.536   2.979  0.00  0.00    +0.030 C 
ATOM     37  C   UNL     1      -0.215  -3.669   1.931  0.00  0.00    +0.160 C 
ATOM     38  O   UNL     1       1.190  -3.960   1.769  0.00  0.00    -0.378 OA
ENDBRANCH  33  34
ENDBRANCH  25  33
ENDBRANCH   1  25
TORSDOF 8
