REMARK  Name = ZINC24962238
REMARK  7 active torsions:
REMARK  status: ('A' for Active; 'I' for Inactive)
REMARK    1  A    between atoms: C_1  and  C_2
REMARK    2  A    between atoms: C_2  and  O_3
REMARK    3  A    between atoms: O_3  and  C_4
REMARK    4  A    between atoms: C_9  and  N_10
REMARK    5  A    between atoms: C_11  and  C_13
REMARK    6  A    between atoms: C_19  and  C_23
REMARK    7  A    between atoms: C_25  and  C_28
REMARK                            x       y       z     vdW  Elec       q    Type
REMARK                         _______ _______ _______ _____ _____    ______ ____
ROOT
ATOM      1  N   UNL     1      -1.982   2.991   3.427  0.00  0.00    -0.282 N 
ATOM      2  C   UNL     1      -2.996   3.408   4.211  0.00  0.00    +0.231 C 
ATOM      3  O   UNL     1      -3.498   4.496   4.026  0.00  0.00    -0.274 OA
ATOM      4  H   UNL     1      -1.587   1.970   3.535  0.00  0.00    +0.155 HD
ENDROOT
BRANCH   1  10
ATOM      5  C   UNL     1      -0.783   3.341   1.356  0.00  0.00    +0.142 A 
ATOM      6  C   UNL     1      -0.248   4.205   0.413  0.00  0.00    +0.055 A 
ATOM      7  C   UNL     1      -0.354   5.569   0.589  0.00  0.00    +0.001 A 
ATOM      8  C   UNL     1      -0.986   6.097   1.708  0.00  0.00    +0.126 A 
ATOM      9  C   UNL     1      -1.525   5.229   2.652  0.00  0.00    +0.073 A 
ATOM     10  C   UNL     1      -1.430   3.859   2.475  0.00  0.00    +0.079 A 
ATOM     11  O   UNL     1      -0.964   7.460   1.688  0.00  0.00    -0.488 OA
ATOM     12  C   UNL     1      -0.709   7.910   0.347  0.00  0.00    +0.175 C 
ATOM     13  C   UNL     1       0.104   6.740  -0.258  0.00  0.00    +0.083 C 
ATOM     14  C   UNL     1      -2.020   8.110  -0.416  0.00  0.00    +0.052 C 
BRANCH   5  15
ATOM     15  O   UNL     1      -0.682   1.995   1.186  0.00  0.00    -0.490 OA
BRANCH  15  17
ATOM     16  C   UNL     1       0.006   0.009  -0.007  0.00  0.00    +0.048 C 
ATOM     17  C   UNL     1      -0.009   1.539   0.010  0.00  0.00    +0.226 C 
ENDBRANCH  15  17
ENDBRANCH   5  15
ENDBRANCH   1  10
BRANCH   2  18
ATOM     18  C   UNL     1      -3.506   2.521   5.317  0.00  0.00    +0.142 C 
ATOM     19  C   UNL     1      -4.064   3.353   6.494  0.00  0.00    +0.060 C 
ATOM     20  C   UNL     1      -5.264   2.693   7.127  0.00  0.00    -0.032 A 
ATOM     21  C   UNL     1      -5.766   2.931   8.410  0.00  0.00    +0.005 A 
ATOM     22  C   UNL     1      -6.885   2.275   8.870  0.00  0.00    +0.004 A 
ATOM     23  C   UNL     1      -7.546   1.357   8.073  0.00  0.00    -0.049 A 
ATOM     24  C   UNL     1      -7.064   1.099   6.804  0.00  0.00    +0.018 A 
ATOM     25  C   UNL     1      -5.935   1.754   6.348  0.00  0.00    +0.012 A 
ATOM     26  S   UNL     1      -5.040   1.636   4.815  0.00  0.00    -0.112 S 
ATOM     27  C   UNL     1      -8.775   0.649   8.582  0.00  0.00    +0.044 C 
ENDBRANCH   2  18
TORSDOF 4
