REMARK  Name = ZINC20285982
REMARK  18 active torsions:
REMARK  status: ('A' for Active; 'I' for Inactive)
REMARK    1  A    between atoms: C_1  and  C_2
REMARK    2  A    between atoms: C_2  and  C_4
REMARK    3  A    between atoms: C_2  and  N_29
REMARK    4  A    between atoms: C_4  and  N_5
REMARK    5  A    between atoms: N_10  and  C_11
REMARK    6  A    between atoms: N_10  and  C_24
REMARK    7  A    between atoms: C_11  and  C_12
REMARK    8  A    between atoms: C_15  and  O_22
REMARK    9  A    between atoms: C_16  and  O_20
REMARK   10  A    between atoms: C_17  and  O_18
REMARK   11  A    between atoms: O_18  and  C_19
REMARK   12  A    between atoms: O_20  and  C_21
REMARK   13  A    between atoms: O_22  and  C_23
REMARK   14  A    between atoms: N_29  and  C_30
REMARK   15  A    between atoms: C_32  and  C_38
REMARK   16  A    between atoms: C_32  and  C_39
REMARK   17  A    between atoms: C_34  and  C_36
REMARK   18  A    between atoms: C_34  and  C_37
REMARK                            x       y       z     vdW  Elec       q    Type
REMARK                         _______ _______ _______ _____ _____    ______ ____
ROOT
ATOM      1  N   UNL     1       0.760  -2.189  -1.265  0.00  0.00    -0.258 NA
ATOM      2  C   UNL     1       0.051  -2.679  -2.239  0.00  0.00    +0.193 C 
ATOM      3  N   UNL     1      -0.696  -2.245  -3.341  0.00  0.00    -0.200 NA
ATOM      4  C   UNL     1      -1.275  -3.223  -4.090  0.00  0.00    +0.167 C 
ATOM      5  S   UNL     1      -0.475  -4.252  -2.879  0.00  0.00    -0.015 S 
ATOM      6  N   UNL     1      -2.058  -3.350  -5.198  0.00  0.00    -0.302 N 
ENDROOT
BRANCH   6   7
ATOM      7  C   UNL     1      -2.458  -4.680  -5.664  0.00  0.00    +0.076 C 
ATOM      8  C   UNL     1      -3.201  -5.432  -4.541  0.00  0.00    +0.022 C 
ATOM      9  C   UNL     1      -2.735  -6.901  -4.695  0.00  0.00    +0.002 C 
ATOM     10  C   UNL     1      -1.241  -6.748  -5.075  0.00  0.00    +0.002 C 
ATOM     11  C   UNL     1      -1.212  -5.516  -6.004  0.00  0.00    +0.022 C 
ENDBRANCH   6   7
BRANCH   1  12
ATOM     12  C   UNL     1       0.922  -0.739  -1.133  0.00  0.00    +0.162 C 
BRANCH  12  14
ATOM     13  C   UNL     1       0.315   1.260   0.237  0.00  0.00    +0.026 C 
ATOM     14  C   UNL     1       0.256  -0.267   0.160  0.00  0.00    +0.072 C 
BRANCH  14  15
ATOM     15  N   UNL     1      -1.147  -0.703   0.176  0.00  0.00    -0.309 NA
ATOM     16  H   UNL     1      -1.725  -0.082  -0.370  0.00  0.00    +0.123 HD
BRANCH  15  17
ATOM     17  C   UNL     1      -1.649  -0.816   1.555  0.00  0.00    +0.051 C 
ATOM     18  C   UNL     1      -1.319  -2.207   2.099  0.00  0.00    +0.006 C 
ATOM     19  C   UNL     1      -1.845  -2.344   3.527  0.00  0.00    -0.072 C 
ATOM     20  N   UNL     1      -3.263  -2.031   3.621  0.00  0.00    +0.386 N 
ATOM     21  C   UNL     1      -3.734  -0.824   2.959  0.00  0.00    -0.072 C 
ATOM     22  C   UNL     1      -3.169  -0.650   1.553  0.00  0.00    +0.006 C 
ATOM     23  C   UNL     1      -3.451   0.427   3.794  0.00  0.00    -0.010 C 
ATOM     24  C   UNL     1      -5.271  -0.939   2.824  0.00  0.00    -0.010 C 
ATOM     25  C   UNL     1      -1.004  -1.499   4.483  0.00  0.00    -0.010 C 
ATOM     26  C   UNL     1      -1.665  -3.822   3.942  0.00  0.00    -0.010 C 
ATOM     27  H   UNL     1      -3.792  -2.826   3.254  0.00  0.00    -0.084 HD
ATOM     28  H   UNL     1      -3.515  -1.974   4.611  0.00  0.00    -0.084 HD
ENDBRANCH  15  17
ENDBRANCH  14  15
ENDBRANCH  12  14
ENDBRANCH   1  12
BRANCH   6  29
ATOM     29  C   UNL     1      -2.500  -2.156  -5.923  0.00  0.00    +0.146 C 
BRANCH  29  30
ATOM     30  C   UNL     1      -1.489  -1.810  -6.985  0.00  0.00    +0.015 A 
ATOM     31  C   UNL     1      -0.560  -0.812  -6.757  0.00  0.00    +0.012 A 
ATOM     32  C   UNL     1       0.369  -0.491  -7.728  0.00  0.00    +0.050 A 
ATOM     33  C   UNL     1       0.374  -1.171  -8.937  0.00  0.00    +0.165 A 
ATOM     34  C   UNL     1      -0.557  -2.176  -9.171  0.00  0.00    +0.204 A 
ATOM     35  C   UNL     1      -1.487  -2.499  -8.189  0.00  0.00    +0.170 A 
BRANCH  35  36
ATOM     36  O   UNL     1      -2.397  -3.485  -8.411  0.00  0.00    -0.491 OA
ATOM     37  C   UNL     1      -3.638  -3.100  -9.006  0.00  0.00    +0.277 C 
ENDBRANCH  35  36
BRANCH  34  38
ATOM     38  O   UNL     1      -0.556  -2.845 -10.356  0.00  0.00    -0.488 OA
ATOM     39  C   UNL     1       0.249  -4.023 -10.435  0.00  0.00    +0.277 C 
ENDBRANCH  34  38
BRANCH  33  40
ATOM     40  O   UNL     1       1.288  -0.855  -9.893  0.00  0.00    -0.491 OA
ATOM     41  C   UNL     1       2.214   0.189  -9.584  0.00  0.00    +0.277 C 
ENDBRANCH  33  40
ENDBRANCH  29  30
ENDBRANCH   6  29
TORSDOF 10
