REMARK  Name = ZINC03670541
REMARK  8 active torsions:
REMARK  status: ('A' for Active; 'I' for Inactive)
REMARK    1  A    between atoms: C_1  and  C_2
REMARK    2  A    between atoms: C_5  and  N_9
REMARK    3  A    between atoms: C_7  and  C_8
REMARK    4  A    between atoms: C_19  and  C_20
REMARK    5  A    between atoms: C_19  and  O_31
REMARK    6  A    between atoms: N_22  and  C_23
REMARK    7  A    between atoms: C_23  and  C_24
REMARK    8  A    between atoms: C_24  and  C_25
REMARK                            x       y       z     vdW  Elec       q    Type
REMARK                         _______ _______ _______ _____ _____    ______ ____
ROOT
ATOM      1  N   UNL     1      -1.237   2.069   0.019  0.00  0.00    -0.214 N 
ATOM      2  C   UNL     1      -1.265   3.410   0.128  0.00  0.00    +0.314 C 
ATOM      3  O   UNL     1      -0.209   4.006   0.217  0.00  0.00    -0.252 OA
ATOM      4  N   UNL     1      -2.401   4.118   0.141  0.00  0.00    -0.269 N 
ATOM      5  C   UNL     1      -3.664   3.531   0.045  0.00  0.00    +0.043 A 
ATOM      6  C   UNL     1      -4.812   4.311   0.063  0.00  0.00    +0.025 A 
ATOM      7  C   UNL     1      -6.052   3.711  -0.034  0.00  0.00    +0.017 A 
ATOM      8  C   UNL     1      -6.157   2.336  -0.151  0.00  0.00    +0.018 A 
ATOM      9  C   UNL     1      -5.013   1.554  -0.169  0.00  0.00    +0.025 A 
ATOM     10  C   UNL     1      -3.777   2.150  -0.072  0.00  0.00    +0.034 A 
ATOM     11  C   UNL     1      -2.507   1.332  -0.096  0.00  0.00    +0.247 C 
ATOM     12 BR   UNL     1      -7.860   1.525  -0.284  0.00  0.00    -0.050 Br
ATOM     13  H   UNL     1      -2.345   5.083   0.222  0.00  0.00    +0.156 HD
ENDROOT
BRANCH   1  18
ATOM     14  C   UNL     1       3.719  -0.691  -0.019  0.00  0.00    +0.044 C 
ATOM     15  C   UNL     1       2.402   0.041  -0.009  0.00  0.00    -0.047 A 
ATOM     16  C   UNL     1       1.788   0.373  -1.203  0.00  0.00    +0.005 A 
ATOM     17  C   UNL     1       0.581   1.044  -1.197  0.00  0.00    +0.024 A 
ATOM     18  C   UNL     1      -0.017   1.385   0.010  0.00  0.00    +0.042 A 
ATOM     19  C   UNL     1       0.602   1.050   1.206  0.00  0.00    +0.027 A 
ATOM     20  C   UNL     1       1.810   0.379   1.194  0.00  0.00    -0.046 A 
ATOM     21  C   UNL     1       2.483   0.016   2.492  0.00  0.00    +0.044 C 
ENDBRANCH   1  18
BRANCH  11  22
ATOM     22  C   UNL     1      -2.574   0.343   1.040  0.00  0.00    +0.269 C 
ATOM     23  O   UNL     1      -2.660  -0.844   0.806  0.00  0.00    -0.270 OA
ATOM     24  N   UNL     1      -2.539   0.778   2.315  0.00  0.00    -0.311 N 
ATOM     25  H   UNL     1      -2.471   1.727   2.502  0.00  0.00    +0.149 HD
BRANCH  24  26
ATOM     26  C   UNL     1      -2.605  -0.183   3.419  0.00  0.00    +0.108 C 
BRANCH  26  27
ATOM     27  C   UNL     1      -2.548   0.566   4.751  0.00  0.00    +0.049 C 
BRANCH  27  28
ATOM     28  C   UNL     1      -2.615  -0.422   5.887  0.00  0.00    -0.072 C 
ATOM     29  C   UNL     1      -1.501  -0.831   6.403  0.00  0.00    -0.028 C 
ATOM     30  C   UNL     1      -1.408  -1.815   7.532  0.00  0.00    +0.027 C 
ATOM     31  C   UNL     1      -2.759  -1.938   8.239  0.00  0.00    +0.004 C 
ATOM     32  C   UNL     1      -3.845  -2.155   7.176  0.00  0.00    +0.005 C 
ATOM     33  C   UNL     1      -3.970  -0.876   6.345  0.00  0.00    +0.030 C 
ENDBRANCH  27  28
ENDBRANCH  26  27
ENDBRANCH  24  26
ENDBRANCH  11  22
BRANCH  11  34
ATOM     34  O   UNL     1      -2.477   0.591  -1.317  0.00  0.00    -0.360 OA
ATOM     35  H   UNL     1      -3.276   0.071  -1.481  0.00  0.00    +0.213 HD
ENDBRANCH  11  34
TORSDOF 6
