REMARK  Name = ZINC03046639
REMARK  11 active torsions:
REMARK  status: ('A' for Active; 'I' for Inactive)
REMARK    1  A    between atoms: C_1  and  C_2
REMARK    2  A    between atoms: C_5  and  C_8
REMARK    3  A    between atoms: N_12  and  C_20
REMARK    4  A    between atoms: C_20  and  C_21
REMARK    5  A    between atoms: N_23  and  C_24
REMARK    6  A    between atoms: C_24  and  C_25
REMARK    7  A    between atoms: C_25  and  N_26
REMARK    8  A    between atoms: N_26  and  C_27
REMARK    9  A    between atoms: N_26  and  C_28
REMARK   10  A    between atoms: C_28  and  C_29
REMARK   11  A    between atoms: C_29  and  C_30
REMARK                            x       y       z     vdW  Elec       q    Type
REMARK                         _______ _______ _______ _____ _____    ______ ____
ROOT
ATOM      1  C   UNL     1       0.733  -5.209   7.068  0.00  0.00    +0.028 C 
ATOM      2  C   UNL     1       1.433  -5.348   5.916  0.00  0.00    +0.076 C 
ATOM      3  C   UNL     1       0.947  -4.796   4.632  0.00  0.00    +0.258 C 
ATOM      4  O   UNL     1      -0.248  -4.657   4.449  0.00  0.00    -0.269 OA
ATOM      5  N   UNL     1       1.809  -4.449   3.673  0.00  0.00    -0.257 N 
ATOM      6  C   UNL     1       3.195  -4.463   3.759  0.00  0.00    +0.051 A 
ATOM      7  C   UNL     1       3.925  -3.691   2.857  0.00  0.00    +0.024 A 
ATOM      8  C   UNL     1       5.304  -3.673   2.908  0.00  0.00    +0.002 A 
ATOM      9  C   UNL     1       5.982  -4.420   3.854  0.00  0.00    +0.001 A 
ATOM     10  C   UNL     1       5.275  -5.181   4.759  0.00  0.00    +0.017 A 
ATOM     11  C   UNL     1       3.890  -5.208   4.711  0.00  0.00    +0.034 A 
ATOM     12  S   UNL     1       2.987  -6.202   5.860  0.00  0.00    -0.082 S 
ENDROOT
BRANCH   1  17
ATOM     13  C   UNL     1       2.453  -7.935  11.827  0.00  0.00    +0.044 C 
ATOM     14  C   UNL     1       2.003  -7.220  10.579  0.00  0.00    -0.050 A 
ATOM     15  C   UNL     1       1.369  -5.994  10.679  0.00  0.00    +0.004 A 
ATOM     16  C   UNL     1       0.953  -5.334   9.543  0.00  0.00    +0.008 A 
ATOM     17  C   UNL     1       1.174  -5.906   8.285  0.00  0.00    -0.024 A 
ATOM     18  C   UNL     1       1.811  -7.149   8.193  0.00  0.00    +0.008 A 
ATOM     19  C   UNL     1       2.225  -7.794   9.339  0.00  0.00    +0.004 A 
ENDBRANCH   1  17
BRANCH   5  20
ATOM     20  C   UNL     1       1.234  -4.016   2.397  0.00  0.00    +0.209 C 
BRANCH  20  21
ATOM     21  C   UNL     1       1.015  -2.525   2.425  0.00  0.00    +0.231 C 
ATOM     22  O   UNL     1       1.310  -1.888   3.414  0.00  0.00    -0.274 OA
ATOM     23  N   UNL     1       0.491  -1.901   1.352  0.00  0.00    -0.316 N 
ATOM     24  H   UNL     1       0.223  -2.479   0.456  0.00  0.00    +0.149 HD
BRANCH  23  25
ATOM     25  C   UNL     1       0.278  -0.451   1.380  0.00  0.00    +0.085 C 
BRANCH  25  26
ATOM     26  C   UNL     1      -0.322   0.002   0.047  0.00  0.00    -0.060 C 
BRANCH  26  27
ATOM     27  N   UNL     1      -0.535   1.455   0.075  0.00  0.00    +0.379 N 
ATOM     28  C   UNL     1       0.744   2.173   0.144  0.00  0.00    -0.096 C 
ATOM     29  H   UNL     1      -1.107   1.695   0.983  0.00  0.00    -0.082 HD
BRANCH  27  30
ATOM     30  C   UNL     1      -1.324   1.893  -1.084  0.00  0.00    -0.074 C 
BRANCH  30  31
ATOM     31  C   UNL     1      -1.737   3.354  -0.897  0.00  0.00    +0.016 C 
BRANCH  31  32
ATOM     32  C   UNL     1      -2.546   3.804  -2.086  0.00  0.00    -0.049 A 
ATOM     33  C   UNL     1      -1.914   4.370  -3.178  0.00  0.00    +0.003 A 
ATOM     34  C   UNL     1      -2.655   4.778  -4.271  0.00  0.00    +0.000 A 
ATOM     35  C   UNL     1      -4.029   4.630  -4.268  0.00  0.00    +0.000 A 
ATOM     36  C   UNL     1      -4.662   4.070  -3.174  0.00  0.00    +0.000 A 
ATOM     37  C   UNL     1      -3.920   3.657  -2.083  0.00  0.00    +0.003 A 
ENDBRANCH  31  32
ENDBRANCH  30  31
ENDBRANCH  27  30
ENDBRANCH  26  27
ENDBRANCH  25  26
ENDBRANCH  23  25
ENDBRANCH  20  21
ENDBRANCH   5  20
TORSDOF 9
