REMARK  Name = ZINC22384962
REMARK  7 active torsions:
REMARK  status: ('A' for Active; 'I' for Inactive)
REMARK    1  A    between atoms: C_1  and  C_2
REMARK    2  A    between atoms: C_5  and  N_9
REMARK    3  A    between atoms: C_13  and  S_14
REMARK    4  A    between atoms: S_14  and  C_15
REMARK    5  A    between atoms: C_15  and  C_17
REMARK    6  A    between atoms: C_15  and  C_18
REMARK    7  A    between atoms: C_28  and  C_30
REMARK                            x       y       z     vdW  Elec       q    Type
REMARK                         _______ _______ _______ _____ _____    ______ ____
ROOT
ATOM      1  S   UNL     1       1.663   1.785   0.030  0.00  0.00    -0.073 S 
ENDROOT
BRANCH   1   6
ATOM      2  N   UNL     1       3.594   1.067   1.927  0.00  0.00    -0.277 N 
ATOM      3  C   UNL     1       3.657   0.212   2.995  0.00  0.00    +0.230 A 
ATOM      4  N   UNL     1       2.498  -0.376   3.089  0.00  0.00    -0.137 NA
ATOM      5  N   UNL     1       1.710   0.048   2.166  0.00  0.00    -0.122 NA
ATOM      6  C   UNL     1       2.331   0.931   1.419  0.00  0.00    +0.197 A 
BRANCH   2  11
ATOM      7  C   UNL     1       7.715   4.466   0.006  0.00  0.00    +0.045 C 
ATOM      8  C   UNL     1       6.621   3.564   0.516  0.00  0.00    -0.032 A 
ATOM      9  C   UNL     1       5.947   2.734  -0.360  0.00  0.00    +0.007 A 
ATOM     10  C   UNL     1       4.947   1.902   0.106  0.00  0.00    +0.026 A 
ATOM     11  C   UNL     1       4.612   1.907   1.453  0.00  0.00    +0.051 A 
ATOM     12  C   UNL     1       5.291   2.740   2.331  0.00  0.00    +0.046 A 
ATOM     13  C   UNL     1       6.294   3.567   1.861  0.00  0.00    +0.046 A 
ATOM     14 CL   UNL     1       7.144   4.611   2.958  0.00  0.00    -0.083 Cl
ENDBRANCH   2  11
ENDBRANCH   1   6
BRANCH   1  15
ATOM     15  C   UNL     1      -0.003   1.078  -0.001  0.00  0.00    +0.137 C 
ATOM     16  C   UNL     1      -0.757   1.491   1.265  0.00  0.00    +0.029 C 
BRANCH  15  17
ATOM     17  C   UNL     1      -0.742   1.585  -1.213  0.00  0.00    +0.233 C 
ATOM     18  O   UNL     1      -0.389   2.613  -1.752  0.00  0.00    -0.274 OA
ATOM     19  N   UNL     1      -1.794   0.897  -1.698  0.00  0.00    -0.267 N 
ATOM     20  C   UNL     1      -2.358  -0.233  -1.098  0.00  0.00    +0.040 A 
ATOM     21  C   UNL     1      -1.991  -0.886   0.081  0.00  0.00    +0.024 A 
ATOM     22  C   UNL     1      -2.686  -1.999   0.504  0.00  0.00    +0.002 A 
ATOM     23  C   UNL     1      -3.752  -2.477  -0.235  0.00  0.00    +0.000 A 
ATOM     24  C   UNL     1      -4.121  -1.836  -1.403  0.00  0.00    +0.005 A 
ATOM     25  C   UNL     1      -3.428  -0.720  -1.831  0.00  0.00    -0.024 A 
ATOM     26  C   UNL     1      -3.616   0.157  -3.049  0.00  0.00    +0.059 C 
ATOM     27  C   UNL     1      -2.518   1.226  -2.929  0.00  0.00    +0.083 C 
ATOM     28  C   UNL     1      -3.140   2.620  -2.821  0.00  0.00    +0.029 C 
ENDBRANCH  15  17
ENDBRANCH   1  15
TORSDOF 4
