REMARK  Name = ZINC35727464
REMARK  4 active torsions:
REMARK  status: ('A' for Active; 'I' for Inactive)
REMARK    1  A    between atoms: N_11  and  C_12
REMARK    2  A    between atoms: C_18  and  C_20
REMARK    3  A    between atoms: C_22  and  C_32
REMARK    4  A    between atoms: N_24  and  C_25
REMARK                            x       y       z     vdW  Elec       q    Type
REMARK                         _______ _______ _______ _____ _____    ______ ____
ROOT
ATOM      1  C   UNL     1       5.006  -1.392  -0.872  0.00  0.00    +0.095 C 
ATOM      2  C   UNL     1       6.072  -1.206  -1.955  0.00  0.00    +0.044 C 
ATOM      3  C   UNL     1       7.286  -0.492  -1.353  0.00  0.00    +0.110 C 
ATOM      4  N   UNL     1       7.745  -1.247  -0.179  0.00  0.00    -0.296 N 
ATOM      5  C   UNL     1       6.777  -1.560   0.882  0.00  0.00    +0.110 C 
ATOM      6  C   UNL     1       5.568  -2.261   0.255  0.00  0.00    +0.044 C 
ATOM      7  C   UNL     1       9.028  -1.645  -0.077  0.00  0.00    +0.265 C 
ATOM      8  O   UNL     1       9.783  -1.512  -1.021  0.00  0.00    -0.268 OA
ENDROOT
BRANCH   1  19
ATOM      9  C   UNL     1      -0.157  -1.020  -1.870  0.00  0.00    +0.002 A 
ATOM     10  C   UNL     1       0.641  -0.080  -1.240  0.00  0.00    +0.002 A 
ATOM     11  C   UNL     1       1.987  -0.324  -1.050  0.00  0.00    +0.028 A 
ATOM     12  C   UNL     1       2.542  -1.516  -1.493  0.00  0.00    +0.070 A 
ATOM     13  C   UNL     1       1.737  -2.463  -2.129  0.00  0.00    +0.067 A 
ATOM     14  C   UNL     1       0.387  -2.209  -2.315  0.00  0.00    +0.028 A 
ATOM     15  N   UNL     1       2.561  -3.538  -2.454  0.00  0.00    -0.306 N 
ATOM     16  H   UNL     1       2.282  -4.351  -2.905  0.00  0.00    +0.170 HD
ATOM     17  C   UNL     1       3.809  -3.258  -2.035  0.00  0.00    +0.328 A 
ATOM     18  O   UNL     1       4.773  -3.990  -2.164  0.00  0.00    -0.247 OA
ATOM     19  N   UNL     1       3.830  -2.045  -1.451  0.00  0.00    -0.289 N 
ENDBRANCH   1  19
BRANCH   7  20
ATOM     20  C   UNL     1       9.516  -2.241   1.177  0.00  0.00    +0.130 A 
ATOM     21  C   UNL     1       9.036  -1.987   2.443  0.00  0.00    +0.063 A 
ATOM     22  C   UNL     1       9.782  -2.764   3.344  0.00  0.00    +0.100 A 
ATOM     23  N   UNL     1      10.672  -3.458   2.661  0.00  0.00    -0.165 NA
ATOM     24  N   UNL     1      10.528  -3.157   1.301  0.00  0.00    -0.227 N 
BRANCH  24  25
ATOM     25  C   UNL     1      11.285  -3.694   0.254  0.00  0.00    +0.068 A 
ATOM     26  C   UNL     1      10.665  -4.073  -0.930  0.00  0.00    +0.028 A 
ATOM     27  C   UNL     1      11.415  -4.603  -1.962  0.00  0.00    +0.003 A 
ATOM     28  C   UNL     1      12.781  -4.757  -1.817  0.00  0.00    +0.020 A 
ATOM     29  C   UNL     1      13.403  -4.380  -0.639  0.00  0.00    +0.043 A 
ATOM     30  C   UNL     1      12.658  -3.844   0.395  0.00  0.00    +0.047 A 
ATOM     31 CL   UNL     1      15.118  -4.576  -0.463  0.00  0.00    -0.083 Cl
ENDBRANCH  24  25
BRANCH  22  32
ATOM     32  C   UNL     1       9.600  -2.799   4.812  0.00  0.00    +0.039 A 
ATOM     33  C   UNL     1      10.287  -3.522   5.749  0.00  0.00    +0.018 A 
ATOM     34  C   UNL     1       9.936  -3.391   7.075  0.00  0.00    +0.008 A 
ATOM     35  C   UNL     1       8.923  -2.552   7.411  0.00  0.00    +0.046 A 
ATOM     36  S   UNL     1       8.432  -1.904   5.822  0.00  0.00    -0.095 S 
ENDBRANCH  22  32
ENDBRANCH   7  20
TORSDOF 4
