REMARK  Name = ZINC09672684
REMARK  8 active torsions:
REMARK  status: ('A' for Active; 'I' for Inactive)
REMARK    1  A    between atoms: C_1  and  C_2
REMARK    2  A    between atoms: C_6  and  N_8
REMARK    3  A    between atoms: C_9  and  C_31
REMARK    4  A    between atoms: C_12  and  S_13
REMARK    5  A    between atoms: S_13  and  C_14
REMARK    6  A    between atoms: C_14  and  C_15
REMARK    7  A    between atoms: C_28  and  C_30
REMARK    8  A    between atoms: C_31  and  C_32
REMARK                            x       y       z     vdW  Elec       q    Type
REMARK                         _______ _______ _______ _____ _____    ______ ____
ROOT
ATOM      1  N   UNL     1      -0.069   5.245   0.030  0.00  0.00    -0.274 N 
ATOM      2  C   UNL     1      -0.537   6.061   1.026  0.00  0.00    +0.143 A 
ATOM      3  N   UNL     1      -0.365   7.291   0.631  0.00  0.00    -0.133 NA
ATOM      4  N   UNL     1       0.166   7.310  -0.539  0.00  0.00    -0.122 NA
ATOM      5  C   UNL     1       0.370   6.082  -0.958  0.00  0.00    +0.197 A 
ENDROOT
BRANCH   1  11
ATOM      6  C   UNL     1       2.490   1.044  -0.016  0.00  0.00    +0.044 C 
ATOM      7  C   UNL     1       1.176   1.782   0.000  0.00  0.00    -0.048 A 
ATOM      8  C   UNL     1      -0.013   1.076   0.008  0.00  0.00    +0.003 A 
ATOM      9  C   UNL     1      -1.220   1.749   0.017  0.00  0.00    +0.002 A 
ATOM     10  C   UNL     1      -1.242   3.131   0.031  0.00  0.00    +0.026 A 
ATOM     11  C   UNL     1      -0.050   3.842   0.023  0.00  0.00    +0.050 A 
ATOM     12  C   UNL     1       1.161   3.163   0.008  0.00  0.00    +0.029 A 
ENDBRANCH   1  11
BRANCH   5  13
ATOM     13  S   UNL     1       1.075   5.605  -2.500  0.00  0.00    -0.076 S 
BRANCH  13  14
ATOM     14  C   UNL     1       1.385   7.235  -3.222  0.00  0.00    +0.173 C 
BRANCH  14  15
ATOM     15  C   UNL     1       2.006   7.071  -4.586  0.00  0.00    +0.230 C 
ATOM     16  O   UNL     1       2.218   5.961  -5.026  0.00  0.00    -0.274 OA
ATOM     17  N   UNL     1       2.325   8.158  -5.316  0.00  0.00    -0.266 N 
ATOM     18  C   UNL     1       2.086   9.447  -4.820  0.00  0.00    +0.058 A 
ATOM     19  C   UNL     1       2.858   9.963  -3.792  0.00  0.00    +0.025 A 
ATOM     20  C   UNL     1       2.623  11.245  -3.331  0.00  0.00    +0.002 A 
ATOM     21  C   UNL     1       1.620  12.014  -3.893  0.00  0.00    +0.002 A 
ATOM     22  C   UNL     1       0.839  11.503  -4.913  0.00  0.00    +0.025 A 
ATOM     23  C   UNL     1       1.062  10.216  -5.373  0.00  0.00    +0.055 A 
ATOM     24  N   UNL     1       0.249   9.658  -6.366  0.00  0.00    -0.284 N 
ATOM     25  C   UNL     1       0.798   9.029  -7.428  0.00  0.00    +0.219 C 
ATOM     26  O   UNL     1       0.083   8.477  -8.238  0.00  0.00    -0.275 OA
ATOM     27  C   UNL     1       2.292   9.008  -7.613  0.00  0.00    +0.118 C 
ATOM     28  C   UNL     1       2.934   8.014  -6.640  0.00  0.00    +0.087 C 
ATOM     29  C   UNL     1       4.436   8.289  -6.541  0.00  0.00    +0.029 C 
ATOM     30  H   UNL     1      -0.716   9.722  -6.291  0.00  0.00    +0.155 HD
ENDBRANCH  14  15
ENDBRANCH  13  14
ENDBRANCH   5  13
BRANCH   2  31
ATOM     31  C   UNL     1      -1.136   5.619   2.336  0.00  0.00    +0.111 C 
BRANCH  31  32
ATOM     32  C   UNL     1      -0.045   5.485   3.368  0.00  0.00    -0.040 A 
ATOM     33  C   UNL     1       0.608   4.278   3.530  0.00  0.00    +0.004 A 
ATOM     34  C   UNL     1       1.612   4.157   4.473  0.00  0.00    +0.000 A 
ATOM     35  C   UNL     1       1.955   5.241   5.260  0.00  0.00    +0.000 A 
ATOM     36  C   UNL     1       1.297   6.446   5.101  0.00  0.00    +0.000 A 
ATOM     37  C   UNL     1       0.297   6.569   4.155  0.00  0.00    +0.004 A 
ENDBRANCH  31  32
ENDBRANCH   2  31
TORSDOF 6
