REMARK  Name = ZINC15423936
REMARK  4 active torsions:
REMARK  status: ('A' for Active; 'I' for Inactive)
REMARK    1  A    between atoms: C_1  and  C_2
REMARK    2  A    between atoms: C_2  and  C_3
REMARK    3  A    between atoms: C_9  and  C_11
REMARK    4  A    between atoms: C_13  and  N_19
REMARK                            x       y       z     vdW  Elec       q    Type
REMARK                         _______ _______ _______ _____ _____    ______ ____
ROOT
ATOM      1  C   UNL     1       1.184   1.791   0.000  0.00  0.00    +0.029 A 
ATOM      2  C   UNL     1      -0.013   1.076   0.008  0.00  0.00    +0.036 A 
ATOM      3  C   UNL     1      -1.221   1.754   0.017  0.00  0.00    +0.044 A 
ATOM      4  C   UNL     1      -1.237   3.145   0.031  0.00  0.00    +0.063 A 
ATOM      5  C   UNL     1      -0.051   3.855   0.023  0.00  0.00    +0.042 A 
ATOM      6  C   UNL     1       1.158   3.187   0.008  0.00  0.00    +0.052 A 
ATOM      7 CL   UNL     1       2.645   4.083  -0.002  0.00  0.00    -0.083 Cl
ATOM      8 CL   UNL     1      -2.753   3.993   0.050  0.00  0.00    -0.082 Cl
ENDROOT
BRANCH   1  15
ATOM      9  C   UNL     1       6.180   0.816  -0.053  0.00  0.00    +0.155 A 
ATOM     10  N   UNL     1       6.657  -0.397  -0.065  0.00  0.00    -0.132 NA
ATOM     11  N   UNL     1       5.693  -1.250  -0.061  0.00  0.00    -0.120 NA
ATOM     12  C   UNL     1       4.559  -0.618  -0.047  0.00  0.00    +0.218 A 
ATOM     13  N   UNL     1       4.803   0.733  -0.041  0.00  0.00    -0.190 N 
ATOM     14  N   UNL     1       3.691   1.565  -0.031  0.00  0.00    -0.156 NA
ATOM     15  C   UNL     1       2.478   1.073  -0.016  0.00  0.00    +0.134 A 
ATOM     16  S   UNL     1       2.785  -0.686  -0.030  0.00  0.00    -0.026 S 
BRANCH   9  18
ATOM     17  C   UNL     1       7.252   2.525  -1.496  0.00  0.00    +0.012 C 
ATOM     18  C   UNL     1       6.991   2.087  -0.053  0.00  0.00    +0.075 C 
ENDBRANCH   9  18
ENDBRANCH   1  15
BRANCH   3  19
ATOM     19  N   UNL     1      -2.423   1.041   0.019  0.00  0.00    -0.357 N 
ATOM     20  H   UNL     1      -2.412   0.071   0.014  0.00  0.00    +0.142 HD
ATOM     21  H   UNL     1      -3.269   1.515   0.026  0.00  0.00    +0.142 HD
ENDBRANCH   3  19
TORSDOF 3
