REMARK  Name = ZINC65111785
REMARK  8 active torsions:
REMARK  status: ('A' for Active; 'I' for Inactive)
REMARK    1  A    between atoms: C_1  and  C_2
REMARK    2  A    between atoms: N_8  and  C_12
REMARK    3  A    between atoms: C_12  and  C_13
REMARK    4  A    between atoms: C_15  and  C_18
REMARK    5  A    between atoms: N_20  and  C_21
REMARK    6  A    between atoms: C_21  and  C_22
REMARK    7  A    between atoms: N_25  and  C_28
REMARK    8  A    between atoms: C_28  and  C_29
REMARK                            x       y       z     vdW  Elec       q    Type
REMARK                         _______ _______ _______ _____ _____    ______ ____
ROOT
ATOM      1  C   UNL     1      -4.396  -0.946   4.906  0.00  0.00    +0.302 C 
ATOM      2  O   UNL     1      -4.243   0.228   4.633  0.00  0.00    -0.265 OA
ATOM      3  N   UNL     1      -5.570  -1.372   5.411  0.00  0.00    -0.307 N 
ATOM      4  H   UNL     1      -5.693  -2.309   5.630  0.00  0.00    +0.149 HD
ENDROOT
BRANCH   1   7
ATOM      5  C   UNL     1      -1.360  -2.727   4.138  0.00  0.00    +0.192 A 
ATOM      6  N   UNL     1      -2.106  -1.623   4.203  0.00  0.00    -0.186 NA
ATOM      7  C   UNL     1      -3.291  -1.909   4.685  0.00  0.00    +0.313 A 
ATOM      8  O   UNL     1      -3.329  -3.227   4.944  0.00  0.00    -0.328 OA
ATOM      9  N   UNL     1      -2.057  -3.739   4.574  0.00  0.00    -0.059 NA
BRANCH   5  10
ATOM     10  C   UNL     1       0.059  -2.795   3.636  0.00  0.00    +0.208 C 
BRANCH  10  18
ATOM     11  C   UNL     1      -0.018   1.503   0.010  0.00  0.00    +0.044 C 
ATOM     12  C   UNL     1       0.002  -0.004   0.002  0.00  0.00    -0.048 A 
ATOM     13  C   UNL     1       0.006  -0.688  -1.202  0.00  0.00    +0.007 A 
ATOM     14  C   UNL     1       0.025  -2.069  -1.219  0.00  0.00    +0.049 A 
ATOM     15  C   UNL     1       0.041  -2.775  -0.026  0.00  0.00    +0.157 A 
ATOM     16  C   UNL     1       0.037  -2.085   1.186  0.00  0.00    +0.091 A 
ATOM     17  C   UNL     1       0.023  -0.699   1.196  0.00  0.00    +0.033 A 
ATOM     18  N   UNL     1       0.055  -3.050   2.193  0.00  0.00    -0.267 N 
ATOM     19  C   UNL     1       0.069  -4.258   1.597  0.00  0.00    +0.422 A 
ATOM     20  O   UNL     1       0.087  -5.327   2.176  0.00  0.00    -0.223 OA
ATOM     21  O   UNL     1       0.060  -4.099   0.264  0.00  0.00    -0.407 OA
ENDBRANCH  10  18
ENDBRANCH   5  10
ENDBRANCH   1   7
BRANCH   3  22
ATOM     22  C   UNL     1      -6.662  -0.420   5.630  0.00  0.00    +0.108 C 
BRANCH  22  23
ATOM     23  C   UNL     1      -7.873  -1.157   6.205  0.00  0.00    +0.003 C 
ATOM     24  C   UNL     1      -8.412  -2.146   5.168  0.00  0.00    -0.014 C 
ATOM     25  C   UNL     1      -9.670  -2.822   5.719  0.00  0.00    -0.078 C 
ATOM     26  N   UNL     1     -10.690  -1.806   6.005  0.00  0.00    +0.382 N 
ATOM     27  C   UNL     1     -10.208  -0.896   7.051  0.00  0.00    -0.078 C 
ATOM     28  C   UNL     1      -8.971  -0.147   6.551  0.00  0.00    -0.014 C 
ATOM     29  H   UNL     1     -10.883  -1.279   5.166  0.00  0.00    -0.081 HD
BRANCH  26  30
ATOM     30  C   UNL     1     -11.921  -2.465   6.460  0.00  0.00    -0.043 C 
BRANCH  30  31
ATOM     31  C   UNL     1     -13.007  -1.435   6.636  0.00  0.00    -0.064 A 
ATOM     32  C   UNL     1     -13.165  -0.799   7.854  0.00  0.00    +0.004 A 
ATOM     33  C   UNL     1     -14.160   0.146   8.017  0.00  0.00    +0.038 A 
ATOM     34  C   UNL     1     -14.999   0.457   6.959  0.00  0.00    +0.123 A 
ATOM     35  C   UNL     1     -14.839  -0.181   5.740  0.00  0.00    +0.038 A 
ATOM     36  C   UNL     1     -13.840  -1.122   5.579  0.00  0.00    +0.004 A 
ATOM     37  F   UNL     1     -15.972   1.380   7.117  0.00  0.00    -0.205 F 
ENDBRANCH  30  31
ENDBRANCH  26  30
ENDBRANCH  22  23
ENDBRANCH   3  22
TORSDOF 7
