REMARK  Name = ZINC39635124
REMARK  8 active torsions:
REMARK  status: ('A' for Active; 'I' for Inactive)
REMARK    1  A    between atoms: C_1  and  O_2
REMARK    2  A    between atoms: O_2  and  C_3
REMARK    3  A    between atoms: C_6  and  C_9
REMARK    4  A    between atoms: C_9  and  C_10
REMARK    5  A    between atoms: C_10  and  N_11
REMARK    6  A    between atoms: C_12  and  C_14
REMARK    7  A    between atoms: C_25  and  C_27
REMARK    8  A    between atoms: C_30  and  C_32
REMARK                            x       y       z     vdW  Elec       q    Type
REMARK                         _______ _______ _______ _____ _____    ______ ____
ROOT
ATOM      1  C   UNL     1       6.620  -4.335  -6.328  0.00  0.00    +0.100 C 
ATOM      2  C   UNL     1       6.455  -3.477  -7.602  0.00  0.00    +0.121 C 
ATOM      3  N   UNL     1       7.696  -2.670  -7.673  0.00  0.00    -0.294 N 
ATOM      4  C   UNL     1       8.768  -3.603  -7.249  0.00  0.00    +0.115 C 
ATOM      5  C   UNL     1       8.139  -4.418  -6.101  0.00  0.00    -0.004 C 
ATOM      6  C   UNL     1       8.605  -5.869  -6.168  0.00  0.00    -0.010 C 
ATOM      7  C   UNL     1      10.108  -5.932  -5.882  0.00  0.00    -0.082 C 
ATOM      8  N   UNL     1      10.379  -5.371  -4.553  0.00  0.00    +0.379 N 
ATOM      9  C   UNL     1      10.014  -3.950  -4.526  0.00  0.00    -0.082 C 
ATOM     10  C   UNL     1       8.507  -3.803  -4.755  0.00  0.00    -0.010 C 
ATOM     11  C   UNL     1       7.822  -1.379  -8.041  0.00  0.00    +0.282 C 
ATOM     12  O   UNL     1       8.920  -0.853  -8.048  0.00  0.00    -0.267 OA
ATOM     13  H   UNL     1       9.838  -5.869  -3.862  0.00  0.00    -0.086 HD
ATOM     14  H   UNL     1      11.361  -5.469  -4.342  0.00  0.00    -0.086 HD
ENDROOT
BRANCH  11  15
ATOM     15  C   UNL     1       6.639  -0.610  -8.432  0.00  0.00    +0.190 A 
ATOM     16  C   UNL     1       6.626   0.708  -8.833  0.00  0.00    +0.055 A 
ATOM     17  C   UNL     1       5.295   1.033  -9.110  0.00  0.00    +0.051 A 
ATOM     18  C   UNL     1       4.550  -0.086  -8.870  0.00  0.00    +0.139 A 
ATOM     19  O   UNL     1       5.370  -1.071  -8.468  0.00  0.00    -0.450 OA
BRANCH  18  20
ATOM     20  C   UNL     1       3.087  -0.197  -9.033  0.00  0.00    +0.052 A 
ATOM     21  C   UNL     1       2.243   0.760  -8.465  0.00  0.00    +0.014 A 
ATOM     22  C   UNL     1       0.877   0.651  -8.620  0.00  0.00    +0.001 A 
ATOM     23  C   UNL     1       0.340  -0.405  -9.337  0.00  0.00    +0.003 A 
ATOM     24  C   UNL     1       1.167  -1.358  -9.902  0.00  0.00    +0.039 A 
ATOM     25  C   UNL     1       2.539  -1.258  -9.760  0.00  0.00    +0.134 A 
ATOM     26  F   UNL     1       3.347  -2.186 -10.318  0.00  0.00    -0.205 F 
ENDBRANCH  18  20
ENDBRANCH  11  15
BRANCH   1  28
ATOM     27  N   UNL     1       5.468  -4.410  -4.140  0.00  0.00    -0.315 N 
ATOM     28  C   UNL     1       5.951  -3.666  -5.155  0.00  0.00    +0.218 C 
ATOM     29  O   UNL     1       5.847  -2.458  -5.124  0.00  0.00    -0.275 OA
ATOM     30  H   UNL     1       5.551  -5.377  -4.165  0.00  0.00    +0.149 HD
BRANCH  27  31
ATOM     31  C   UNL     1       4.817  -3.760  -3.000  0.00  0.00    +0.109 C 
BRANCH  31  32
ATOM     32  C   UNL     1       4.364  -4.824  -1.997  0.00  0.00    +0.054 C 
BRANCH  32  36
ATOM     33  C   UNL     1       2.465  -2.928   1.329  0.00  0.00    +0.120 A 
ATOM     34  C   UNL     1       1.715  -3.313   0.227  0.00  0.00    +0.046 A 
ATOM     35  C   UNL     1       2.331  -3.925  -0.847  0.00  0.00    +0.007 A 
ATOM     36  C   UNL     1       3.694  -4.155  -0.825  0.00  0.00    -0.046 A 
ATOM     37  C   UNL     1       4.444  -3.772   0.272  0.00  0.00    +0.007 A 
ATOM     38  C   UNL     1       3.834  -3.154   1.346  0.00  0.00    +0.046 A 
BRANCH  33  40
ATOM     39  C   UNL     1       0.450  -2.124   2.300  0.00  0.00    +0.277 C 
ATOM     40  O   UNL     1       1.862  -2.325   2.386  0.00  0.00    -0.495 OA
ENDBRANCH  33  40
ENDBRANCH  32  36
ENDBRANCH  31  32
ENDBRANCH  27  31
ENDBRANCH   1  28
TORSDOF 7
