REMARK  Name = ZINC34927456
REMARK  5 active torsions:
REMARK  status: ('A' for Active; 'I' for Inactive)
REMARK    1  A    between atoms: C_1  and  C_2
REMARK    2  A    between atoms: C_2  and  C_3
REMARK    3  A    between atoms: C_2  and  C_4
REMARK    4  A    between atoms: C_7  and  N_10
REMARK    5  A    between atoms: N_19  and  C_24
REMARK                            x       y       z     vdW  Elec       q    Type
REMARK                         _______ _______ _______ _____ _____    ______ ____
ROOT
ATOM      1  N   UNL     1      -4.843  -4.069  -1.880  0.00  0.00    -0.269 N 
ATOM      2  C   UNL     1      -5.846  -4.670  -2.549  0.00  0.00    +0.306 C 
ATOM      3  O   UNL     1      -5.600  -5.376  -3.508  0.00  0.00    -0.252 OA
ATOM      4  N   UNL     1      -7.122  -4.489  -2.155  0.00  0.00    -0.285 N 
ATOM      5  C   UNL     1      -7.452  -3.499  -1.121  0.00  0.00    +0.112 C 
ATOM      6  C   UNL     1      -8.519  -2.547  -1.675  0.00  0.00    +0.056 C 
ATOM      7  C   UNL     1      -9.694  -3.353  -2.204  0.00  0.00    +0.091 C 
ATOM      8  C   UNL     1      -9.271  -4.318  -3.300  0.00  0.00    +0.056 C 
ATOM      9  C   UNL     1      -8.208  -5.275  -2.757  0.00  0.00    +0.112 C 
ATOM     10  N   UNL     1     -10.404  -4.044  -1.122  0.00  0.00    -0.255 N 
ATOM     11  C   UNL     1     -11.729  -3.950  -1.057  0.00  0.00    +0.231 C 
ATOM     12  O   UNL     1     -12.356  -4.501  -0.178  0.00  0.00    -0.274 OA
ATOM     13  C   UNL     1     -12.428  -3.125  -2.127  0.00  0.00    +0.167 C 
ATOM     14  S   UNL     1     -10.989  -2.216  -2.844  0.00  0.00    -0.125 S 
ATOM     15  H   UNL     1      -5.023  -3.612  -1.044  0.00  0.00    +0.156 HD
ENDROOT
BRANCH  10  16
ATOM     16  C   UNL     1      -9.697  -4.791  -0.172  0.00  0.00    +0.038 A 
ATOM     17  C   UNL     1      -9.203  -4.175   0.970  0.00  0.00    +0.026 A 
ATOM     18  C   UNL     1      -8.506  -4.913   1.906  0.00  0.00    +0.040 A 
ATOM     19  C   UNL     1      -8.300  -6.268   1.706  0.00  0.00    +0.124 A 
ATOM     20  C   UNL     1      -8.792  -6.885   0.568  0.00  0.00    +0.040 A 
ATOM     21  C   UNL     1      -9.495  -6.151  -0.367  0.00  0.00    +0.026 A 
ATOM     22  F   UNL     1      -7.617  -6.989   2.622  0.00  0.00    -0.205 F 
ENDBRANCH  10  16
BRANCH   1  26
ATOM     23  C   UNL     1      -0.966  -4.171  -3.405  0.00  0.00    -0.045 A 
ATOM     24  C   UNL     1      -1.335  -3.170  -2.525  0.00  0.00    +0.006 A 
ATOM     25  C   UNL     1      -2.620  -3.133  -2.018  0.00  0.00    +0.023 A 
ATOM     26  C   UNL     1      -3.541  -4.103  -2.393  0.00  0.00    +0.035 A 
ATOM     27  C   UNL     1      -3.167  -5.106  -3.277  0.00  0.00    +0.023 A 
ATOM     28  C   UNL     1      -1.883  -5.134  -3.784  0.00  0.00    +0.006 A 
BRANCH  23  30
ATOM     29  C   UNL     1       0.718  -2.913  -4.720  0.00  0.00    +0.012 C 
ATOM     30  C   UNL     1       0.436  -4.208  -3.956  0.00  0.00    +0.013 C 
ATOM     31  C   UNL     1       1.433  -4.348  -2.804  0.00  0.00    +0.012 C 
ENDBRANCH  23  30
ENDBRANCH   1  26
TORSDOF 3
