REMARK  Name = ZINC39868158
REMARK  10 active torsions:
REMARK  status: ('A' for Active; 'I' for Inactive)
REMARK    1  A    between atoms: C_1  and  C_2
REMARK    2  A    between atoms: C_2  and  O_3
REMARK    3  A    between atoms: O_3  and  C_4
REMARK    4  A    between atoms: C_7  and  C_10
REMARK    5  A    between atoms: C_10  and  C_12
REMARK    6  A    between atoms: C_13  and  N_21
REMARK    7  A    between atoms: C_22  and  C_24
REMARK    8  A    between atoms: C_26  and  C_31
REMARK    9  A    between atoms: C_28  and  C_29
REMARK   10  A    between atoms: C_28  and  C_30
REMARK                            x       y       z     vdW  Elec       q    Type
REMARK                         _______ _______ _______ _____ _____    ______ ____
ROOT
ATOM      1  C   UNL     1      -3.293  -6.630   0.439  0.00  0.00    +0.197 A 
ATOM      2  C   UNL     1      -3.571  -7.967   0.235  0.00  0.00    +0.091 A 
ATOM      3  C   UNL     1      -5.022  -8.045   0.025  0.00  0.00    +0.042 A 
ATOM      4  C   UNL     1      -5.910  -9.091  -0.228  0.00  0.00    +0.013 A 
ATOM      5  C   UNL     1      -7.242  -8.828  -0.381  0.00  0.00    +0.001 A 
ATOM      6  C   UNL     1      -7.716  -7.527  -0.286  0.00  0.00    +0.004 A 
ATOM      7  C   UNL     1      -6.855  -6.480  -0.036  0.00  0.00    +0.047 A 
ATOM      8  C   UNL     1      -5.495  -6.724   0.122  0.00  0.00    +0.138 A 
ATOM      9  O   UNL     1      -4.442  -5.921   0.372  0.00  0.00    -0.450 OA
ENDROOT
BRANCH   2  10
ATOM     10  N   UNL     1      -2.666  -9.021   0.230  0.00  0.00    -0.282 N 
ATOM     11  C   UNL     1      -3.078 -10.265   0.543  0.00  0.00    +0.221 C 
ATOM     12  O   UNL     1      -4.223 -10.454   0.894  0.00  0.00    -0.275 OA
ATOM     13  H   UNL     1      -1.737  -8.860   0.001  0.00  0.00    +0.155 HD
BRANCH  11  14
ATOM     14  C   UNL     1      -2.116 -11.421   0.456  0.00  0.00    +0.089 C 
ATOM     15  C   UNL     1      -1.682 -12.079   1.768  0.00  0.00    +0.033 C 
ATOM     16  C   UNL     1      -2.644 -12.809   0.827  0.00  0.00    -0.016 C 
ATOM     17  C   UNL     1      -4.108 -12.916   1.256  0.00  0.00    +0.012 C 
ATOM     18  C   UNL     1      -2.095 -14.005   0.045  0.00  0.00    +0.012 C 
BRANCH  15  19
ATOM     19  C   UNL     1      -2.250 -11.521   3.047  0.00  0.00    +0.010 C 
ATOM     20  C   UNL     1      -1.786 -11.931   4.206  0.00  0.00    +0.103 C 
ATOM     21 CL   UNL     1      -0.520 -13.117   4.263  0.00  0.00    -0.071 Cl
ATOM     22 CL   UNL     1      -2.440 -11.287   5.679  0.00  0.00    -0.071 Cl
ENDBRANCH  15  19
ENDBRANCH  11  14
ENDBRANCH   2  10
BRANCH   1  23
ATOM     23  C   UNL     1      -2.007  -6.088   0.684  0.00  0.00    +0.230 C 
ATOM     24  O   UNL     1      -1.024  -6.806   0.636  0.00  0.00    -0.283 OA
BRANCH  23  28
ATOM     25  C   UNL     1      -1.581  -1.959   1.587  0.00  0.00    +0.121 A 
ATOM     26  C   UNL     1      -0.478  -2.803   1.662  0.00  0.00    +0.046 A 
ATOM     27  C   UNL     1      -0.613  -4.142   1.370  0.00  0.00    +0.015 A 
ATOM     28  C   UNL     1      -1.859  -4.652   0.999  0.00  0.00    +0.026 A 
ATOM     29  C   UNL     1      -2.965  -3.801   0.925  0.00  0.00    +0.015 A 
ATOM     30  C   UNL     1      -2.823  -2.464   1.224  0.00  0.00    +0.046 A 
BRANCH  25  31
ATOM     31  O   UNL     1      -1.444  -0.640   1.876  0.00  0.00    -0.492 OA
BRANCH  31  33
ATOM     32  C   UNL     1      -0.182   1.315   2.529  0.00  0.00    +0.048 C 
ATOM     33  C   UNL     1      -0.139  -0.188   2.242  0.00  0.00    +0.225 C 
ENDBRANCH  31  33
ENDBRANCH  25  31
ENDBRANCH  23  28
ENDBRANCH   1  23
TORSDOF 7
