REMARK  Name = ZINC12038105
REMARK  9 active torsions:
REMARK  status: ('A' for Active; 'I' for Inactive)
REMARK    1  A    between atoms: C_1  and  C_2
REMARK    2  A    between atoms: C_2  and  C_3
REMARK    3  A    between atoms: C_3  and  C_22
REMARK    4  A    between atoms: N_6  and  C_10
REMARK    5  A    between atoms: C_10  and  C_11
REMARK    6  A    between atoms: C_27  and  C_28
REMARK    7  A    between atoms: C_27  and  N_71
REMARK    8  A    between atoms: C_28  and  C_36
REMARK    9  A    between atoms: C_29  and  C_30
REMARK                            x       y       z     vdW  Elec       q    Type
REMARK                         _______ _______ _______ _____ _____    ______ ____
ROOT
ATOM      1  C   UNL     1       4.022  -1.419  -5.053  0.00  0.00    +0.115 C 
ATOM      2  C   UNL     1       5.473  -1.841  -5.176  0.00  0.00    +0.247 C 
ATOM      3  O   UNL     1       5.989  -2.834  -4.711  0.00  0.00    -0.273 OA
ATOM      4  N   UNL     1       6.071  -0.880  -5.908  0.00  0.00    -0.221 N 
ATOM      5  C   UNL     1       5.208   0.079  -6.262  0.00  0.00    +0.309 C 
ATOM      6  O   UNL     1       5.513   1.051  -6.926  0.00  0.00    -0.252 OA
ATOM      7  N   UNL     1       3.965  -0.151  -5.801  0.00  0.00    -0.285 N 
ATOM      8  H   UNL     1       3.184   0.408  -5.935  0.00  0.00    +0.151 HD
ENDROOT
BRANCH   1   9
ATOM      9  C   UNL     1       3.648  -1.196  -3.586  0.00  0.00    +0.018 C 
ATOM     10  C   UNL     1       4.618  -0.190  -2.959  0.00  0.00    -0.013 C 
ATOM     11  C   UNL     1       4.204   0.074  -1.509  0.00  0.00    -0.078 C 
ATOM     12  C   UNL     1       1.879  -0.365  -2.033  0.00  0.00    -0.078 C 
ATOM     13  C   UNL     1       2.224  -0.643  -3.498  0.00  0.00    -0.013 C 
ATOM     14  N   UNL     1       2.833   0.627  -1.495  0.00  0.00    +0.382 N 
ATOM     15  H   UNL     1       2.807   1.468  -2.085  0.00  0.00    -0.081 HD
BRANCH  14  16
ATOM     16  C   UNL     1       2.452   0.998  -0.116  0.00  0.00    -0.048 C 
BRANCH  16  17
ATOM     17  C   UNL     1       1.150   1.755  -0.159  0.00  0.00    -0.089 C 
ATOM     18  C   UNL     1       0.006   1.118   0.045  0.00  0.00    +0.005 C 
ATOM     19  C   UNL     1       1.149   3.237  -0.434  0.00  0.00    +0.037 C 
BRANCH  18  20
ATOM     20  C   UNL     1      -1.256   1.880   0.150  0.00  0.00    -0.025 A 
ATOM     21  C   UNL     1      -1.259   3.156   0.715  0.00  0.00    +0.008 A 
ATOM     22  C   UNL     1      -2.439   3.865   0.804  0.00  0.00    +0.001 A 
ATOM     23  C   UNL     1      -3.620   3.308   0.347  0.00  0.00    +0.000 A 
ATOM     24  C   UNL     1      -3.625   2.042  -0.209  0.00  0.00    +0.001 A 
ATOM     25  C   UNL     1      -2.451   1.325  -0.310  0.00  0.00    +0.008 A 
ENDBRANCH  18  20
ENDBRANCH  16  17
ENDBRANCH  14  16
ENDBRANCH   1   9
BRANCH   1  27
ATOM     26  C   UNL     1       3.494  -2.665  -7.153  0.00  0.00    +0.006 C 
ATOM     27  C   UNL     1       3.100  -2.461  -5.689  0.00  0.00    +0.032 C 
ENDBRANCH   1  27
BRANCH   4  28
ATOM     28  C   UNL     1       7.489  -0.887  -6.273  0.00  0.00    +0.166 C 
BRANCH  28  29
ATOM     29  C   UNL     1       8.297  -0.163  -5.194  0.00  0.00    +0.229 C 
ATOM     30  C   UNL     1       9.781  -0.140  -5.586  0.00  0.00    +0.275 C 
ATOM     31  O   UNL     1      10.504   0.554  -4.564  0.00  0.00    -0.485 OA
ATOM     32  C   UNL     1       9.972   1.729  -4.129  0.00  0.00    +0.162 A 
ATOM     33  C   UNL     1      10.769   2.617  -3.422  0.00  0.00    +0.049 A 
ATOM     34  C   UNL     1      10.241   3.811  -2.968  0.00  0.00    +0.004 A 
ATOM     35  C   UNL     1       8.918   4.124  -3.217  0.00  0.00    +0.004 A 
ATOM     36  C   UNL     1       8.118   3.244  -3.922  0.00  0.00    +0.049 A 
ATOM     37  C   UNL     1       8.642   2.045  -4.382  0.00  0.00    +0.163 A 
ATOM     38  O   UNL     1       7.843   1.190  -5.077  0.00  0.00    -0.480 OA
ENDBRANCH  28  29
ENDBRANCH   4  28
TORSDOF 7
