REMARK  Name = ZINC39596340
REMARK  10 active torsions:
REMARK  status: ('A' for Active; 'I' for Inactive)
REMARK    1  A    between atoms: C_1  and  C_2
REMARK    2  A    between atoms: C_4  and  C_7
REMARK    3  A    between atoms: C_8  and  C_13
REMARK    4  A    between atoms: C_9  and  C_12
REMARK    5  A    between atoms: C_17  and  C_26
REMARK    6  A    between atoms: N_28  and  C_29
REMARK    7  A    between atoms: C_29  and  C_30
REMARK    8  A    between atoms: C_30  and  C_32
REMARK    9  A    between atoms: C_30  and  O_33
REMARK   10  A    between atoms: O_33  and  C_34
REMARK                            x       y       z     vdW  Elec       q    Type
REMARK                         _______ _______ _______ _____ _____    ______ ____
ROOT
ATOM      1  C   UNL     1       0.407  -5.125   0.012  0.00  0.00    +0.252 C 
ATOM      2  O   UNL     1       0.994  -5.306   1.062  0.00  0.00    -0.270 OA
ATOM      3  N   UNL     1       1.042  -5.332  -1.159  0.00  0.00    -0.296 N 
ATOM      4  C   UNL     1       0.501  -5.160  -2.528  0.00  0.00    +0.121 C 
ATOM      5  C   UNL     1       1.665  -4.542  -3.333  0.00  0.00    +0.100 C 
ATOM      6  C   UNL     1       2.934  -4.955  -2.569  0.00  0.00    -0.004 C 
ATOM      7  C   UNL     1       2.441  -5.776  -1.369  0.00  0.00    +0.115 C 
ATOM      8  C   UNL     1       3.833  -5.807  -3.459  0.00  0.00    -0.010 C 
ATOM      9  C   UNL     1       5.115  -6.157  -2.697  0.00  0.00    -0.082 C 
ATOM     10  N   UNL     1       5.807  -4.923  -2.306  0.00  0.00    +0.379 N 
ATOM     11  C   UNL     1       4.971  -4.154  -1.376  0.00  0.00    -0.082 C 
ATOM     12  C   UNL     1       3.684  -3.719  -2.083  0.00  0.00    -0.010 C 
ATOM     13  H   UNL     1       6.680  -5.156  -1.858  0.00  0.00    -0.086 HD
ATOM     14  H   UNL     1       5.991  -4.368  -3.128  0.00  0.00    -0.086 HD
ENDROOT
BRANCH   1  16
ATOM     15  C   UNL     1      -1.443  -3.366   0.020  0.00  0.00    +0.201 A 
ATOM     16  C   UNL     1      -0.996  -4.680   0.020  0.00  0.00    +0.108 A 
ATOM     17  C   UNL     1      -2.142  -5.513   0.030  0.00  0.00    +0.093 A 
ATOM     18  N   UNL     1      -3.196  -4.753   0.035  0.00  0.00    -0.082 NA
ATOM     19  O   UNL     1      -2.785  -3.400   0.034  0.00  0.00    -0.352 OA
ATOM     20  C   UNL     1      -2.139  -7.020   0.033  0.00  0.00    +0.070 C 
BRANCH  15  24
ATOM     21  C   UNL     1      -0.015   1.503   0.007  0.00  0.00    +0.089 C 
ATOM     22  C   UNL     1       0.015  -0.004   0.007  0.00  0.00    +0.135 A 
ATOM     23  C   UNL     1      -1.058  -0.813   0.017  0.00  0.00    +0.079 A 
ATOM     24  C   UNL     1      -0.597  -2.153   0.011  0.00  0.00    +0.152 A 
ATOM     25  N   UNL     1       0.715  -2.125  -0.001  0.00  0.00    -0.075 NA
ATOM     26  O   UNL     1       1.119  -0.767  -0.010  0.00  0.00    -0.359 OA
ENDBRANCH  15  24
ENDBRANCH   1  16
BRANCH   5  27
ATOM     27  C   UNL     1       1.538  -3.041  -3.371  0.00  0.00    +0.218 C 
ATOM     28  O   UNL     1       0.930  -2.461  -2.497  0.00  0.00    -0.275 OA
ATOM     29  N   UNL     1       2.101  -2.342  -4.377  0.00  0.00    -0.312 N 
ATOM     30  H   UNL     1       2.588  -2.805  -5.076  0.00  0.00    +0.149 HD
BRANCH  29  31
ATOM     31  C   UNL     1       1.978  -0.883  -4.413  0.00  0.00    +0.148 C 
BRANCH  31  32
ATOM     32  C   UNL     1       2.701  -0.341  -5.648  0.00  0.00    +0.187 C 
ATOM     33  C   UNL     1       2.572   1.183  -5.686  0.00  0.00    +0.053 C 
BRANCH  32  34
ATOM     34  O   UNL     1       4.083  -0.701  -5.587  0.00  0.00    -0.488 OA
BRANCH  34  35
ATOM     35  C   UNL     1       4.752  -0.779  -6.768  0.00  0.00    +0.121 A 
ATOM     36  C   UNL     1       6.061  -1.238  -6.794  0.00  0.00    +0.048 A 
ATOM     37  C   UNL     1       6.741  -1.317  -7.994  0.00  0.00    +0.042 A 
ATOM     38  C   UNL     1       6.116  -0.939  -9.170  0.00  0.00    +0.124 A 
ATOM     39  C   UNL     1       4.810  -0.480  -9.146  0.00  0.00    +0.042 A 
ATOM     40  C   UNL     1       4.126  -0.406  -7.948  0.00  0.00    +0.048 A 
ATOM     41  F   UNL     1       6.782  -1.016 -10.343  0.00  0.00    -0.205 F 
ENDBRANCH  34  35
ENDBRANCH  32  34
ENDBRANCH  31  32
ENDBRANCH  29  31
ENDBRANCH   5  27
TORSDOF 7
