REMARK  Name = ZINC36764829
REMARK  6 active torsions:
REMARK  status: ('A' for Active; 'I' for Inactive)
REMARK    1  A    between atoms: C_1  and  C_2
REMARK    2  A    between atoms: C_2  and  C_3
REMARK    3  A    between atoms: C_2  and  C_4
REMARK    4  A    between atoms: C_2  and  C_5
REMARK    5  A    between atoms: C_7  and  C_10
REMARK    6  A    between atoms: C_10  and  N_21
REMARK                            x       y       z     vdW  Elec       q    Type
REMARK                         _______ _______ _______ _____ _____    ______ ____
ROOT
ATOM      1  C   UNL     1       3.576  -0.751  -3.427  0.00  0.00    +0.020 C 
ATOM      2  C   UNL     1       3.386  -1.388  -4.803  0.00  0.00    -0.001 C 
ATOM      3  C   UNL     1       4.294  -0.664  -5.798  0.00  0.00    -0.000 C 
ATOM      4  C   UNL     1       5.751  -0.817  -5.371  0.00  0.00    +0.005 C 
ATOM      5  C   UNL     1       5.898  -2.189  -4.706  0.00  0.00    +0.035 C 
ATOM      6  C   UNL     1       5.724  -2.088  -3.214  0.00  0.00    -0.045 A 
ATOM      7  C   UNL     1       4.650  -1.455  -2.635  0.00  0.00    -0.048 A 
ATOM      8  C   UNL     1       4.527  -1.442  -1.250  0.00  0.00    +0.003 A 
ATOM      9  C   UNL     1       5.485  -2.035  -0.454  0.00  0.00    +0.000 A 
ATOM     10  C   UNL     1       6.580  -2.645  -1.037  0.00  0.00    +0.000 A 
ATOM     11  C   UNL     1       6.696  -2.672  -2.411  0.00  0.00    +0.004 A 
ENDROOT
BRANCH   1  14
ATOM     12  C   UNL     1       0.814  -0.502  -1.104  0.00  0.00    +0.233 A 
ATOM     13  N   UNL     1       2.034  -0.247  -1.485  0.00  0.00    -0.197 NA
ATOM     14  C   UNL     1       2.277  -0.823  -2.668  0.00  0.00    +0.165 A 
ATOM     15  N   UNL     1       1.206  -1.455  -3.056  0.00  0.00    -0.062 NA
ATOM     16  O   UNL     1       0.233  -1.263  -2.041  0.00  0.00    -0.338 OA
BRANCH  12  18
ATOM     17  C   UNL     1       0.158   1.502   0.201  0.00  0.00    +0.020 C 
ATOM     18  C   UNL     1       0.169  -0.028   0.173  0.00  0.00    +0.041 C 
ATOM     19  C   UNL     1       0.963  -0.554   1.371  0.00  0.00    +0.020 C 
ATOM     20  C   UNL     1      -1.267  -0.550   0.244  0.00  0.00    +0.020 C 
ENDBRANCH  12  18
ENDBRANCH   1  14
BRANCH   1  21
ATOM     21  N   UNL     1       3.954   0.658  -3.601  0.00  0.00    +0.389 N 
ATOM     22  H   UNL     1       3.940   1.122  -2.705  0.00  0.00    -0.088 HD
ATOM     23  H   UNL     1       4.881   0.712  -3.994  0.00  0.00    -0.088 HD
ATOM     24  H   UNL     1       3.298   1.107  -4.222  0.00  0.00    -0.088 HD
ENDBRANCH   1  21
TORSDOF 3
