REMARK  Name = ZINC44422135
REMARK  4 active torsions:
REMARK  status: ('A' for Active; 'I' for Inactive)
REMARK    1  A    between atoms: C_4  and  C_7
REMARK    2  A    between atoms: C_9  and  C_13
REMARK    3  A    between atoms: C_15  and  C_18
REMARK    4  A    between atoms: N_23  and  C_25
REMARK                            x       y       z     vdW  Elec       q    Type
REMARK                         _______ _______ _______ _____ _____    ______ ____
ROOT
ATOM      1  C   UNL     1       5.821  -3.697  -0.090  0.00  0.00    +0.276 A 
ATOM      2  N   UNL     1       7.117  -3.930  -0.088  0.00  0.00    -0.190 NA
ATOM      3  C   UNL     1       7.343  -5.245  -0.109  0.00  0.00    +0.177 A 
ATOM      4  N   UNL     1       6.202  -5.875  -0.124  0.00  0.00    -0.060 NA
ATOM      5  O   UNL     1       5.186  -4.883  -0.107  0.00  0.00    -0.331 OA
ENDROOT
BRANCH   1   8
ATOM      6  C   UNL     1       3.653  -0.728  -0.045  0.00  0.00    +0.093 A 
ATOM      7  C   UNL     1       3.826  -2.120  -0.066  0.00  0.00    +0.062 A 
ATOM      8  C   UNL     1       5.180  -2.372  -0.070  0.00  0.00    +0.123 A 
ATOM      9  N   UNL     1       5.818  -1.163  -0.051  0.00  0.00    -0.272 N 
ATOM     10  H   UNL     1       6.778  -1.025  -0.050  0.00  0.00    +0.189 HD
ATOM     11  N   UNL     1       4.841  -0.160  -0.042  0.00  0.00    -0.173 NA
BRANCH   6  15
ATOM     12  C   UNL     1      -0.077   1.314  -0.015  0.00  0.00    +0.000 A 
ATOM     13  C   UNL     1       1.103   2.035  -0.009  0.00  0.00    +0.001 A 
ATOM     14  C   UNL     1       2.316   1.378  -0.019  0.00  0.00    +0.010 A 
ATOM     15  C   UNL     1       2.351  -0.015  -0.034  0.00  0.00    +0.002 A 
ATOM     16  C   UNL     1       1.159  -0.736  -0.040  0.00  0.00    +0.010 A 
ATOM     17  C   UNL     1      -0.049  -0.068  -0.031  0.00  0.00    +0.001 A 
ENDBRANCH   6  15
ENDBRANCH   1   8
BRANCH   3  18
ATOM     18  C   UNL     1       8.701  -5.898  -0.114  0.00  0.00    +0.087 C 
ATOM     19  C   UNL     1       8.851  -6.854  -1.320  0.00  0.00    +0.109 C 
ATOM     20  C   UNL     1       9.655  -8.014  -0.775  0.00  0.00    +0.221 C 
ATOM     21  O   UNL     1      10.227  -8.842  -1.453  0.00  0.00    -0.275 OA
ATOM     22  N   UNL     1       9.643  -7.994   0.569  0.00  0.00    -0.271 N 
ATOM     23  C   UNL     1       8.853  -6.867   1.079  0.00  0.00    +0.125 C 
BRANCH  22  24
ATOM     24  C   UNL     1      10.302  -8.928   1.378  0.00  0.00    +0.038 A 
ATOM     25  C   UNL     1      10.932 -10.024   0.804  0.00  0.00    +0.026 A 
ATOM     26  C   UNL     1      11.582 -10.944   1.604  0.00  0.00    +0.041 A 
ATOM     27  C   UNL     1      11.604 -10.775   2.978  0.00  0.00    +0.142 A 
ATOM     28  C   UNL     1      10.976  -9.682   3.553  0.00  0.00    +0.078 A 
ATOM     29  C   UNL     1      10.330  -8.756   2.756  0.00  0.00    +0.046 A 
ATOM     30 CL   UNL     1      11.005  -9.472   5.276  0.00  0.00    -0.081 Cl
ATOM     31  F   UNL     1      12.239 -11.677   3.758  0.00  0.00    -0.204 F 
ENDBRANCH  22  24
ENDBRANCH   3  18
TORSDOF 4
