REMARK  Name = ZINC32099590
REMARK  6 active torsions:
REMARK  status: ('A' for Active; 'I' for Inactive)
REMARK    1  A    between atoms: C_3  and  C_16
REMARK    2  A    between atoms: N_4  and  C_6
REMARK    3  A    between atoms: C_9  and  S_12
REMARK    4  A    between atoms: S_12  and  N_15
REMARK    5  A    between atoms: C_17  and  C_18
REMARK    6  A    between atoms: C_17  and  C_20
REMARK                            x       y       z     vdW  Elec       q    Type
REMARK                         _______ _______ _______ _____ _____    ______ ____
ROOT
ATOM      1  C   UNL     1       3.318   5.875  -0.156  0.00  0.00    +0.020 A 
ATOM      2  C   UNL     1       4.026   4.682  -0.322  0.00  0.00    +0.027 A 
ATOM      3  C   UNL     1       3.122   3.644  -0.155  0.00  0.00    +0.048 A 
ATOM      4  N   UNL     1       1.892   4.209   0.116  0.00  0.00    -0.316 N 
ATOM      5  C   UNL     1       2.026   5.562   0.112  0.00  0.00    +0.092 A 
ENDROOT
BRANCH   4   6
ATOM      6  C   UNL     1       0.704   3.506   0.355  0.00  0.00    +0.047 A 
ATOM      7  C   UNL     1       0.280   2.533  -0.539  0.00  0.00    +0.028 A 
ATOM      8  C   UNL     1      -0.889   1.838  -0.298  0.00  0.00    +0.030 A 
ATOM      9  C   UNL     1      -1.642   2.118   0.827  0.00  0.00    +0.105 A 
ATOM     10  C   UNL     1      -1.225   3.090   1.718  0.00  0.00    +0.030 A 
ATOM     11  C   UNL     1      -0.054   3.784   1.485  0.00  0.00    +0.028 A 
BRANCH   9  12
ATOM     12  S   UNL     1      -3.137   1.234   1.127  0.00  0.00    +0.056 S 
ATOM     13  O   UNL     1      -2.979  -0.046   0.531  0.00  0.00    -0.153 OA
ATOM     14  O   UNL     1      -3.437   1.401   2.506  0.00  0.00    -0.153 OA
BRANCH  12  15
ATOM     15  N   UNL     1      -4.338   2.003   0.285  0.00  0.00    -0.204 NA
ATOM     16  H   UNL     1      -5.292   1.480   0.447  0.00  0.00    +0.144 HD
ATOM     17  H   UNL     1      -4.094   1.998  -0.788  0.00  0.00    +0.144 HD
ENDBRANCH  12  15
ENDBRANCH   9  12
ENDBRANCH   4   6
BRANCH   3  18
ATOM     18  C   UNL     1       3.408   2.267  -0.240  0.00  0.00    +0.048 C 
ATOM     19  C   UNL     1       3.136   1.437   0.833  0.00  0.00    +0.098 C 
BRANCH  19  20
ATOM     20  C   UNL     1       2.677   2.010   2.108  0.00  0.00    +0.173 A 
ATOM     21  N   UNL     1       2.258   1.285   3.193  0.00  0.00    -0.223 NA
ATOM     22  C   UNL     1       1.908   2.193   4.174  0.00  0.00    +0.111 A 
ATOM     23  C   UNL     1       1.430   2.078   5.472  0.00  0.00    +0.048 A 
ATOM     24  C   UNL     1       1.190   3.240   6.188  0.00  0.00    +0.038 A 
ATOM     25  C   UNL     1       1.437   4.469   5.596  0.00  0.00    +0.128 A 
ATOM     26  N   UNL     1       1.896   4.558   4.366  0.00  0.00    -0.233 NA
ATOM     27  C   UNL     1       2.143   3.472   3.634  0.00  0.00    +0.181 A 
ATOM     28  N   UNL     1       2.605   3.294   2.380  0.00  0.00    -0.206 NA
ATOM     29 BR   UNL     1       0.531   3.150   7.958  0.00  0.00    -0.049 Br
ENDBRANCH  19  20
BRANCH  19  30
ATOM     30  C   UNL     1       3.303   0.021   0.702  0.00  0.00    +0.103 C 
ATOM     31  N   UNL     1       3.435  -1.103   0.599  0.00  0.00    -0.191 NA
ENDBRANCH  19  30
ENDBRANCH   3  18
TORSDOF 6
