REMARK  Name = ZINC39708418
REMARK  11 active torsions:
REMARK  status: ('A' for Active; 'I' for Inactive)
REMARK    1  A    between atoms: C_1  and  C_2
REMARK    2  A    between atoms: C_2  and  C_3
REMARK    3  A    between atoms: C_8  and  C_12
REMARK    4  A    between atoms: C_12  and  C_14
REMARK    5  A    between atoms: C_14  and  S_15
REMARK    6  A    between atoms: S_15  and  C_16
REMARK    7  A    between atoms: C_20  and  C_27
REMARK    8  A    between atoms: N_22  and  C_23
REMARK    9  A    between atoms: C_23  and  C_24
REMARK   10  A    between atoms: C_30  and  O_33
REMARK   11  A    between atoms: O_33  and  C_34
REMARK                            x       y       z     vdW  Elec       q    Type
REMARK                         _______ _______ _______ _____ _____    ______ ____
ROOT
ATOM      1  C   UNL     1      -7.770  -2.535  -6.347  0.00  0.00    +0.078 C 
ATOM      2  N   UNL     1      -6.585  -3.221  -6.912  0.00  0.00    -0.262 NA
ATOM      3  N   UNL     1      -6.274  -2.469  -8.137  0.00  0.00    -0.267 NA
ATOM      4  C   UNL     1      -6.555  -1.062  -7.748  0.00  0.00    +0.050 C 
ATOM      5  N   UNL     1      -7.753  -1.157  -6.879  0.00  0.00    +0.417 N 
ATOM      6  H   UNL     1      -6.792  -4.186  -7.122  0.00  0.00    +0.140 HD
ATOM      7  H   UNL     1      -6.868  -2.758  -8.900  0.00  0.00    +0.139 HD
ATOM      8  H   UNL     1      -7.685  -0.494  -6.121  0.00  0.00    -0.074 HD
ENDROOT
BRANCH   4   9
ATOM      9  C   UNL     1      -6.850  -0.226  -8.967  0.00  0.00    -0.046 A 
ATOM     10  C   UNL     1      -6.373   1.069  -9.047  0.00  0.00    +0.007 A 
ATOM     11  C   UNL     1      -6.643   1.837 -10.163  0.00  0.00    +0.046 A 
ATOM     12  C   UNL     1      -7.392   1.308 -11.204  0.00  0.00    +0.120 A 
ATOM     13  C   UNL     1      -7.870   0.008 -11.121  0.00  0.00    +0.046 A 
ATOM     14  C   UNL     1      -7.593  -0.758 -10.005  0.00  0.00    +0.007 A 
BRANCH  12  15
ATOM     15  O   UNL     1      -7.659   2.062 -12.303  0.00  0.00    -0.495 OA
ATOM     16  C   UNL     1      -8.437   1.452 -13.335  0.00  0.00    +0.277 C 
ENDBRANCH  12  15
ENDBRANCH   4   9
BRANCH   1  17
ATOM     17  S   UNL     1      -7.667  -2.505  -4.537  0.00  0.00    -0.152 S 
BRANCH  17  18
ATOM     18  C   UNL     1      -6.102  -1.651  -4.201  0.00  0.00    +0.148 C 
BRANCH  18  19
ATOM     19  C   UNL     1      -5.891  -1.556  -2.712  0.00  0.00    +0.171 C 
ATOM     20  O   UNL     1      -6.716  -2.020  -1.951  0.00  0.00    -0.291 OA
BRANCH  19  26
ATOM     21  C   UNL     1      -2.535   0.236   0.526  0.00  0.00    -0.024 A 
ATOM     22  C   UNL     1      -3.222  -0.156   1.621  0.00  0.00    +0.005 A 
ATOM     23  C   UNL     1      -4.451  -0.828   1.526  0.00  0.00    +0.001 A 
ATOM     24  C   UNL     1      -5.026  -1.125   0.339  0.00  0.00    +0.010 A 
ATOM     25  C   UNL     1      -4.392  -0.760  -0.872  0.00  0.00    +0.006 A 
ATOM     26  C   UNL     1      -4.735  -0.929  -2.201  0.00  0.00    +0.024 C 
ATOM     27  C   UNL     1      -3.609  -0.301  -2.994  0.00  0.00    +0.152 C 
ATOM     28  N   UNL     1      -2.653   0.209  -2.006  0.00  0.00    -0.380 N 
ATOM     29  C   UNL     1      -3.095  -0.043  -0.807  0.00  0.00    +0.046 A 
ATOM     30  H   UNL     1      -1.823   0.667  -2.213  0.00  0.00    +0.160 HD
BRANCH  21  32
ATOM     31  C   UNL     1      -1.455   2.467   0.615  0.00  0.00    +0.009 C 
ATOM     32  C   UNL     1      -1.219   0.956   0.666  0.00  0.00    +0.034 C 
ENDBRANCH  21  32
ENDBRANCH  19  26
ENDBRANCH  18  19
ENDBRANCH  17  18
ENDBRANCH   1  17
BRANCH   5  33
ATOM     33  C   UNL     1      -8.968  -0.904  -7.665  0.00  0.00    +0.055 C 
BRANCH  33  34
ATOM     34  C   UNL     1     -10.169  -0.929  -6.754  0.00  0.00    +0.340 C 
ATOM     35  O   UNL     1     -10.025  -1.138  -5.562  0.00  0.00    -0.249 OA
ATOM     36  O   UNL     1     -11.284  -0.740  -7.211  0.00  0.00    -0.249 OA
ENDBRANCH  33  34
ENDBRANCH   5  33
TORSDOF 9
