REMARK  Name = ZINC49508654
REMARK  7 active torsions:
REMARK  status: ('A' for Active; 'I' for Inactive)
REMARK    1  A    between atoms: C_1  and  N_2
REMARK    2  A    between atoms: C_10  and  C_12
REMARK    3  A    between atoms: C_12  and  C_14
REMARK    4  A    between atoms: C_12  and  N_34
REMARK    5  A    between atoms: C_14  and  N_15
REMARK    6  A    between atoms: C_16  and  C_18
REMARK    7  A    between atoms: N_20  and  C_21
REMARK                            x       y       z     vdW  Elec       q    Type
REMARK                         _______ _______ _______ _____ _____    ______ ____
ROOT
ATOM      1  N   UNL     1       5.281  -3.195   1.926  0.00  0.00    -0.309 N 
ATOM      2  C   UNL     1       5.925  -3.191   3.111  0.00  0.00    +0.299 C 
ATOM      3  O   UNL     1       6.993  -2.626   3.219  0.00  0.00    -0.265 OA
ATOM      4  H   UNL     1       4.428  -3.646   1.839  0.00  0.00    +0.149 HD
ENDROOT
BRANCH   2   5
ATOM      5  C   UNL     1       5.322  -3.883   4.289  0.00  0.00    +0.303 C 
ATOM      6  O   UNL     1       4.254  -4.448   4.180  0.00  0.00    -0.265 OA
ATOM      7  N   UNL     1       5.965  -3.879   5.474  0.00  0.00    -0.278 N 
ATOM      8  H   UNL     1       6.781  -3.365   5.581  0.00  0.00    +0.155 HD
BRANCH   7   9
ATOM      9  C   UNL     1       5.457  -4.617   6.547  0.00  0.00    +0.034 A 
ATOM     10  C   UNL     1       5.599  -4.112   7.837  0.00  0.00    +0.028 A 
ATOM     11  C   UNL     1       5.103  -4.800   8.918  0.00  0.00    -0.023 A 
ATOM     12  C   UNL     1       4.448  -6.005   8.652  0.00  0.00    +0.043 A 
ATOM     13  C   UNL     1       4.324  -6.529   7.375  0.00  0.00    -0.022 A 
ATOM     14  C   UNL     1       4.819  -5.834   6.287  0.00  0.00    +0.028 A 
ATOM     15  C   UNL     1       3.629  -7.852   7.491  0.00  0.00    +0.056 C 
ATOM     16  C   UNL     1       3.351  -8.020   9.004  0.00  0.00    +0.118 C 
ATOM     17  N   UNL     1       3.850  -6.799   9.629  0.00  0.00    -0.271 N 
ATOM     18  C   UNL     1       3.768  -6.364  10.905  0.00  0.00    +0.220 C 
ATOM     19  O   UNL     1       3.462  -7.121  11.802  0.00  0.00    -0.275 OA
ATOM     20  C   UNL     1       4.066  -4.911  11.186  0.00  0.00    +0.101 C 
ATOM     21  C   UNL     1       5.228  -4.377  10.350  0.00  0.00    +0.046 C 
ENDBRANCH   7   9
ENDBRANCH   2   5
BRANCH   1  22
ATOM     22  C   UNL     1       5.872  -2.516   0.770  0.00  0.00    +0.094 C 
BRANCH  22  23
ATOM     23  C   UNL     1       5.010  -2.773  -0.468  0.00  0.00    -0.020 C 
BRANCH  23  33
ATOM     24  C   UNL     1      -0.140   1.166   0.266  0.00  0.00    +0.129 C 
ATOM     25  N   UNL     1      -0.046  -0.295   0.214  0.00  0.00    -0.333 N 
ATOM     26  C   UNL     1      -1.253  -1.126   0.329  0.00  0.00    +0.105 C 
ATOM     27  C   UNL     1      -0.939  -2.276   1.295  0.00  0.00    +0.024 C 
ATOM     28  C   UNL     1       0.168  -3.139   0.691  0.00  0.00    +0.038 C 
ATOM     29  C   UNL     1       1.336  -2.284   0.276  0.00  0.00    -0.026 A 
ATOM     30  C   UNL     1       1.193  -0.923   0.047  0.00  0.00    +0.033 A 
ATOM     31  C   UNL     1       2.289  -0.163  -0.345  0.00  0.00    +0.023 A 
ATOM     32  C   UNL     1       3.522  -0.762  -0.512  0.00  0.00    +0.004 A 
ATOM     33  C   UNL     1       3.665  -2.119  -0.288  0.00  0.00    -0.059 A 
ATOM     34  C   UNL     1       2.577  -2.877   0.113  0.00  0.00    +0.007 A 
ENDBRANCH  23  33
BRANCH  23  35
ATOM     35  N   UNL     1       5.673  -2.211  -1.652  0.00  0.00    +0.385 N 
ATOM     36  C   UNL     1       6.909  -2.976  -1.958  0.00  0.00    -0.078 C 
ATOM     37  C   UNL     1       7.156  -2.666  -3.456  0.00  0.00    -0.020 C 
ATOM     38  C   UNL     1       5.726  -2.632  -4.042  0.00  0.00    -0.020 C 
ATOM     39  C   UNL     1       4.804  -2.356  -2.840  0.00  0.00    -0.078 C 
ATOM     40  H   UNL     1       5.894  -1.239  -1.499  0.00  0.00    -0.081 HD
ENDBRANCH  23  35
ENDBRANCH  22  23
ENDBRANCH   1  22
TORSDOF 6
