REMARK  Name = ZINC13065164
REMARK  13 active torsions:
REMARK  status: ('A' for Active; 'I' for Inactive)
REMARK    1  A    between atoms: C_1  and  C_2
REMARK    2  A    between atoms: C_2  and  C_3
REMARK    3  A    between atoms: C_3  and  C_5
REMARK    4  A    between atoms: C_3  and  N_71
REMARK    5  A    between atoms: N_9  and  C_10
REMARK    6  A    between atoms: C_10  and  C_11
REMARK    7  A    between atoms: C_10  and  C_12
REMARK    8  A    between atoms: C_10  and  C_13
REMARK    9  A    between atoms: C_14  and  C_15
REMARK   10  A    between atoms: C_14  and  N_71
REMARK   11  A    between atoms: C_18  and  C_28
REMARK   12  A    between atoms: C_21  and  C_27
REMARK   13  A    between atoms: C_29  and  N_71
REMARK                            x       y       z     vdW  Elec       q    Type
REMARK                         _______ _______ _______ _____ _____    ______ ____
ROOT
ATOM      1  N   UNL     1       3.666   0.054  -1.125  0.00  0.00    +0.391 N 
ATOM      2  H   UNL     1       3.404   0.163  -2.112  0.00  0.00    -0.080 HD
ENDROOT
BRANCH   1   3
ATOM      3  C   UNL     1       3.437  -1.349  -0.719  0.00  0.00    -0.067 C 
ATOM      4  C   UNL     1       1.998  -1.735  -1.069  0.00  0.00    -0.015 C 
ATOM      5  C   UNL     1       1.752  -3.193  -0.675  0.00  0.00    -0.002 C 
ATOM      6  C   UNL     1       1.973  -3.359   0.830  0.00  0.00    -0.000 C 
ATOM      7  C   UNL     1       3.412  -2.972   1.180  0.00  0.00    -0.002 C 
ATOM      8  C   UNL     1       3.658  -1.514   0.786  0.00  0.00    -0.015 C 
ENDBRANCH   1   3
BRANCH   1   9
ATOM      9  C   UNL     1       2.833   0.960  -0.305  0.00  0.00    +0.003 C 
BRANCH   9  10
ATOM     10  C   UNL     1       3.442   1.143   1.061  0.00  0.00    +0.139 A 
ATOM     11  N   UNL     1       4.719   1.225   1.344  0.00  0.00    -0.115 NA
ATOM     12  N   UNL     1       4.835   1.379   2.618  0.00  0.00    -0.023 NA
ATOM     13  N   UNL     1       3.666   1.397   3.155  0.00  0.00    -0.043 NA
ATOM     14  N   UNL     1       2.780   1.254   2.228  0.00  0.00    -0.226 N 
BRANCH  14  15
ATOM     15  C   UNL     1       1.327   1.219   2.410  0.00  0.00    +0.059 C 
ATOM     16  C   UNL     1       0.988   1.546   3.866  0.00  0.00    +0.036 C 
ATOM     17  C   UNL     1       0.672   2.252   1.490  0.00  0.00    +0.036 C 
ATOM     18  C   UNL     1       0.803  -0.176   2.065  0.00  0.00    +0.036 C 
ENDBRANCH  14  15
ENDBRANCH   9  10
BRANCH   9  20
ATOM     19  C   UNL     1       2.072   2.137  -2.373  0.00  0.00    +0.002 C 
ATOM     20  C   UNL     1       2.743   2.315  -1.009  0.00  0.00    -0.011 C 
ENDBRANCH   9  20
ENDBRANCH   1   9
BRANCH   1  21
ATOM     21  C   UNL     1       5.094   0.399  -0.966  0.00  0.00    -0.036 C 
BRANCH  21  22
ATOM     22  C   UNL     1       5.873  -0.237  -2.089  0.00  0.00    +0.001 A 
ATOM     23  C   UNL     1       6.111   0.463  -3.226  0.00  0.00    +0.017 A 
ATOM     24  C   UNL     1       6.870  -0.184  -4.298  0.00  0.00    +0.002 A 
ATOM     25  C   UNL     1       7.148   0.487  -5.494  0.00  0.00    -0.041 A 
ATOM     26  C   UNL     1       7.859  -0.144  -6.475  0.00  0.00    +0.004 A 
ATOM     27  C   UNL     1       8.309  -1.445  -6.296  0.00  0.00    +0.005 A 
ATOM     28  C   UNL     1       8.047  -2.125  -5.126  0.00  0.00    -0.026 A 
ATOM     29  C   UNL     1       7.325  -1.503  -4.113  0.00  0.00    +0.052 A 
ATOM     30  N   UNL     1       7.050  -2.159  -2.932  0.00  0.00    -0.322 N 
ATOM     31  H   UNL     1       7.364  -3.068  -2.806  0.00  0.00    +0.169 HD
ATOM     32  C   UNL     1       6.356  -1.555  -1.951  0.00  0.00    +0.251 A 
ATOM     33  O   UNL     1       6.135  -2.164  -0.918  0.00  0.00    -0.268 OA
ATOM     34  C   UNL     1       8.542  -3.537  -4.945  0.00  0.00    +0.046 C 
ATOM     35  C   UNL     1       6.663   1.899  -5.699  0.00  0.00    +0.044 C 
ENDBRANCH  21  22
ENDBRANCH   1  21
TORSDOF 7
