REMARK  Name = ZINC41584800
REMARK  8 active torsions:
REMARK  status: ('A' for Active; 'I' for Inactive)
REMARK    1  A    between atoms: C_1  and  O_2
REMARK    2  A    between atoms: O_2  and  C_3
REMARK    3  A    between atoms: C_6  and  O_38
REMARK    4  A    between atoms: C_7  and  C_9
REMARK    5  A    between atoms: C_14  and  O_37
REMARK    6  A    between atoms: C_15  and  C_20
REMARK    7  A    between atoms: C_20  and  N_21
REMARK    8  A    between atoms: O_38  and  C_39
REMARK                            x       y       z     vdW  Elec       q    Type
REMARK                         _______ _______ _______ _____ _____    ______ ____
ROOT
ATOM      1  C   UNL     1       1.393  -4.108   2.220  0.00  0.00    +0.071 A 
ATOM      2  C   UNL     1       2.254  -4.814   1.416  0.00  0.00    +0.027 A 
ATOM      3  C   UNL     1       2.243  -6.231   1.502  0.00  0.00    +0.019 A 
ATOM      4  C   UNL     1       3.232  -6.990   0.859  0.00  0.00    +0.015 A 
ATOM      5  C   UNL     1       3.233  -8.348   0.982  0.00  0.00    +0.046 A 
ATOM      6  C   UNL     1       2.254  -8.991   1.738  0.00  0.00    +0.122 A 
ATOM      7  C   UNL     1       1.258  -8.260   2.365  0.00  0.00    +0.020 A 
ATOM      8  C   UNL     1       1.238  -6.879   2.244  0.00  0.00    +0.144 A 
ATOM      9  O   UNL     1       0.247  -6.154   2.818  0.00  0.00    -0.421 OA
ATOM     10  C   UNL     1       0.544  -4.873   3.147  0.00  0.00    +0.345 A 
ATOM     11  O   UNL     1       0.121  -4.371   4.172  0.00  0.00    -0.245 OA
ENDROOT
BRANCH   1  16
ATOM     12  C   UNL     1       0.626  -0.619   1.042  0.00  0.00    +0.121 A 
ATOM     13  C   UNL     1       1.202   0.141   2.051  0.00  0.00    +0.049 A 
ATOM     14  C   UNL     1       1.838  -0.476   3.111  0.00  0.00    +0.050 A 
ATOM     15  C   UNL     1       1.905  -1.859   3.173  0.00  0.00    +0.128 A 
ATOM     16  C   UNL     1       1.326  -2.629   2.160  0.00  0.00    +0.034 A 
ATOM     17  C   UNL     1       0.681  -2.001   1.095  0.00  0.00    +0.058 A 
BRANCH  12  19
ATOM     18  C   UNL     1      -0.017   1.425   0.010  0.00  0.00    +0.277 C 
ATOM     19  O   UNL     1       0.002  -0.004   0.002  0.00  0.00    -0.495 OA
ENDBRANCH  12  19
BRANCH  15  20
ATOM     20  O   UNL     1       2.531  -2.465   4.216  0.00  0.00    -0.494 OA
ATOM     21  C   UNL     1       3.100  -1.614   5.214  0.00  0.00    +0.277 C 
ENDBRANCH  15  20
ENDBRANCH   1  16
BRANCH   6  22
ATOM     22  O   UNL     1       2.275 -10.343   1.859  0.00  0.00    -0.506 OA
ATOM     23  H   UNL     1       2.789 -10.662   2.614  0.00  0.00    +0.292 HD
ENDBRANCH   6  22
BRANCH   7  24
ATOM     24  C   UNL     1       0.200  -8.963   3.175  0.00  0.00    -0.036 C 
BRANCH  24  25
ATOM     25  N   UNL     1       0.649  -9.082   4.569  0.00  0.00    +0.383 N 
ATOM     26  C   UNL     1      -0.431  -9.649   5.382  0.00  0.00    -0.073 C 
ATOM     27  C   UNL     1      -0.007  -9.792   6.836  0.00  0.00    -0.007 C 
ATOM     28  C   UNL     1       1.264 -10.639   6.949  0.00  0.00    +0.011 C 
ATOM     29  C   UNL     1       2.338  -9.972   6.080  0.00  0.00    +0.020 C 
ATOM     30  C   UNL     1       1.830  -9.955   4.629  0.00  0.00    -0.069 C 
ATOM     31  C   UNL     1       2.517  -8.539   6.529  0.00  0.00    +0.023 A 
ATOM     32  C   UNL     1       3.739  -7.972   6.348  0.00  0.00    +0.022 A 
ATOM     33  C   UNL     1       3.956  -6.630   6.682  0.00  0.00    +0.007 A 
ATOM     34  C   UNL     1       2.914  -5.895   7.167  0.00  0.00    +0.070 A 
ATOM     35  C   UNL     1       1.666  -6.509   7.338  0.00  0.00    +0.251 A 
ATOM     36  O   UNL     1       0.712  -5.846   7.712  0.00  0.00    -0.268 OA
ATOM     37  N   UNL     1       1.507  -7.833   7.090  0.00  0.00    -0.312 N 
ATOM     38  C   UNL     1       0.240  -8.441   7.487  0.00  0.00    +0.126 C 
ATOM     39  H   UNL     1       0.889  -8.168   4.923  0.00  0.00    -0.081 HD
ENDBRANCH  24  25
ENDBRANCH   7  24
TORSDOF 6
