REMARK  Name = ZINC23956788
REMARK  4 active torsions:
REMARK  status: ('A' for Active; 'I' for Inactive)
REMARK    1  A    between atoms: C_3  and  C_6
REMARK    2  A    between atoms: N_11  and  C_14
REMARK    3  A    between atoms: C_14  and  C_15
REMARK    4  A    between atoms: C_20  and  C_25
REMARK                            x       y       z     vdW  Elec       q    Type
REMARK                         _______ _______ _______ _____ _____    ______ ____
ROOT
ATOM      1  C   UNL     1      -1.405   3.165   0.130  0.00  0.00    +0.126 A 
ATOM      2  N   UNL     1      -1.419   1.808   0.132  0.00  0.00    -0.194 NA
ATOM      3  C   UNL     1      -0.276   1.097   0.159  0.00  0.00    +0.282 A 
ATOM      4  O   UNL     1      -0.304  -0.121   0.164  0.00  0.00    -0.265 OA
ATOM      5  C   UNL     1       0.974   1.795   0.175  0.00  0.00    +0.080 A 
ATOM      6  C   UNL     1       2.330   1.258   0.198  0.00  0.00    +0.004 A 
ATOM      7  C   UNL     1       3.373   2.123   0.210  0.00  0.00    +0.056 A 
ATOM      8  S   UNL     1       2.583   3.722   0.190  0.00  0.00    -0.078 S 
ATOM      9  C   UNL     1       0.889   3.197   0.166  0.00  0.00    +0.092 A 
ATOM     10  N   UNL     1      -0.281   3.830   0.144  0.00  0.00    -0.336 N 
ATOM     11  H   UNL     1      -0.292   4.930   0.139  0.00  0.00    +0.168 HD
ENDROOT
BRANCH   6  12
ATOM     12  C   UNL     1       2.563  -0.205   0.210  0.00  0.00    -0.017 A 
ATOM     13  C   UNL     1       1.897  -1.012   1.132  0.00  0.00    +0.009 A 
ATOM     14  C   UNL     1       2.114  -2.375   1.135  0.00  0.00    +0.016 A 
ATOM     15  C   UNL     1       2.999  -2.940   0.233  0.00  0.00    +0.018 A 
ATOM     16  C   UNL     1       3.666  -2.143  -0.682  0.00  0.00    +0.016 A 
ATOM     17  C   UNL     1       3.452  -0.779  -0.697  0.00  0.00    +0.009 A 
ATOM     18 BR   UNL     1       3.297  -4.807   0.248  0.00  0.00    -0.050 Br
ENDBRANCH   6  12
BRANCH   1  19
ATOM     19  C   UNL     1      -2.711   3.919   0.106  0.00  0.00    +0.158 C 
BRANCH  19  25
ATOM     20  C   UNL     1      -2.910   9.151   1.527  0.00  0.00    +0.282 C 
ATOM     21  O   UNL     1      -3.837   9.836   1.137  0.00  0.00    -0.267 OA
ATOM     22  N   UNL     1      -2.552   8.048   0.841  0.00  0.00    -0.293 N 
ATOM     23  C   UNL     1      -3.320   7.607  -0.334  0.00  0.00    +0.123 C 
ATOM     24  C   UNL     1      -3.670   6.126  -0.159  0.00  0.00    +0.104 C 
ATOM     25  N   UNL     1      -2.442   5.363   0.102  0.00  0.00    -0.292 NA
ATOM     26  C   UNL     1      -1.811   5.784   1.360  0.00  0.00    +0.104 C 
ATOM     27  C   UNL     1      -1.384   7.251   1.248  0.00  0.00    +0.123 C 
BRANCH  20  30
ATOM     28  C   UNL     1      -1.552  10.537   4.620  0.00  0.00    +0.042 A 
ATOM     29  C   UNL     1      -2.517  10.535   3.600  0.00  0.00    +0.054 A 
ATOM     30  C   UNL     1      -2.182   9.526   2.744  0.00  0.00    +0.189 A 
ATOM     31  O   UNL     1      -1.067   8.931   3.216  0.00  0.00    -0.458 OA
ATOM     32  C   UNL     1      -0.681   9.541   4.344  0.00  0.00    +0.196 A 
ENDBRANCH  20  30
ENDBRANCH  19  25
ENDBRANCH   1  19
TORSDOF 4
