REMARK  Name = ZINC09041160
REMARK  11 active torsions:
REMARK  status: ('A' for Active; 'I' for Inactive)
REMARK    1  A    between atoms: C_1  and  C_2
REMARK    2  A    between atoms: C_2  and  C_3
REMARK    3  A    between atoms: C_2  and  C_4
REMARK    4  A    between atoms: C_2  and  C_5
REMARK    5  A    between atoms: C_18  and  S_20
REMARK    6  A    between atoms: S_20  and  C_21
REMARK    7  A    between atoms: C_21  and  C_22
REMARK    8  A    between atoms: N_24  and  C_25
REMARK    9  A    between atoms: C_30  and  C_31
REMARK   10  A    between atoms: C_31  and  O_33
REMARK   11  A    between atoms: O_33  and  C_34
REMARK                            x       y       z     vdW  Elec       q    Type
REMARK                         _______ _______ _______ _____ _____    ______ ____
ROOT
ATOM      1  C   UNL     1      -0.082   0.045   0.129  0.00  0.00    -0.000 C 
ATOM      2  C   UNL     1       0.663  -0.476   1.362  0.00  0.00    +0.009 C 
ATOM      3  C   UNL     1       0.916  -1.977   1.220  0.00  0.00    +0.037 C 
ATOM      4  C   UNL     1      -0.407  -2.674   0.911  0.00  0.00    -0.023 A 
ATOM      5  C   UNL     1      -1.461  -1.970   0.439  0.00  0.00    -0.004 A 
ATOM      6  S   UNL     1      -2.759  -3.162   0.227  0.00  0.00    -0.073 S 
ATOM      7  C   UNL     1      -1.889  -4.598   0.770  0.00  0.00    +0.117 A 
ATOM      8  C   UNL     1      -0.607  -4.101   1.101  0.00  0.00    +0.075 A 
ATOM      9  C   UNL     1       0.357  -5.044   1.585  0.00  0.00    +0.261 A 
ATOM     10  O   UNL     1       1.488  -4.712   1.896  0.00  0.00    -0.267 OA
ATOM     11  N   UNL     1      -0.066  -6.327   1.675  0.00  0.00    -0.301 N 
ATOM     12  H   UNL     1       0.556  -6.998   1.999  0.00  0.00    +0.171 HD
ATOM     13  C   UNL     1      -1.324  -6.719   1.334  0.00  0.00    +0.170 A 
ATOM     14  N   UNL     1      -2.241  -5.873   0.884  0.00  0.00    -0.216 NA
ATOM     15  C   UNL     1      -1.517  -0.501   0.156  0.00  0.00    +0.046 C 
ENDROOT
BRANCH   1  17
ATOM     16  C   UNL     1       1.318   2.114   0.151  0.00  0.00    +0.011 C 
ATOM     17  C   UNL     1      -0.114   1.574   0.157  0.00  0.00    -0.035 C 
ATOM     18  C   UNL     1      -0.858   2.091  -1.076  0.00  0.00    +0.011 C 
ATOM     19  C   UNL     1      -0.832   2.047   1.422  0.00  0.00    +0.011 C 
ENDBRANCH   1  17
BRANCH  13  20
ATOM     20  S   UNL     1      -1.753  -8.420   1.498  0.00  0.00    -0.078 S 
BRANCH  20  21
ATOM     21  C   UNL     1      -3.470  -8.368   0.928  0.00  0.00    +0.173 C 
BRANCH  21  22
ATOM     22  C   UNL     1      -4.060  -9.754   0.983  0.00  0.00    +0.228 C 
ATOM     23  O   UNL     1      -3.386 -10.685   1.370  0.00  0.00    -0.275 OA
ATOM     24  N   UNL     1      -5.337  -9.958   0.602  0.00  0.00    -0.284 N 
ATOM     25  H   UNL     1      -5.896  -9.205   0.354  0.00  0.00    +0.155 HD
BRANCH  24  26
ATOM     26  C   UNL     1      -5.854 -11.251   0.564  0.00  0.00    +0.047 A 
ATOM     27  C   UNL     1      -5.457 -12.189   1.508  0.00  0.00    +0.024 A 
ATOM     28  C   UNL     1      -5.973 -13.468   1.471  0.00  0.00    +0.002 A 
ATOM     29  C   UNL     1      -6.883 -13.829   0.490  0.00  0.00    +0.001 A 
ATOM     30  C   UNL     1      -7.285 -12.914  -0.458  0.00  0.00    +0.017 A 
ATOM     31  C   UNL     1      -6.774 -11.613  -0.431  0.00  0.00    +0.080 A 
BRANCH  31  32
ATOM     32  C   UNL     1      -7.199 -10.629  -1.442  0.00  0.00    +0.341 C 
ATOM     33  O   UNL     1      -6.681  -9.530  -1.476  0.00  0.00    -0.245 OA
BRANCH  32  34
ATOM     34  O   UNL     1      -8.162 -10.947  -2.329  0.00  0.00    -0.464 OA
ATOM     35  C   UNL     1      -8.531  -9.928  -3.296  0.00  0.00    +0.280 C 
ENDBRANCH  32  34
ENDBRANCH  31  32
ENDBRANCH  24  26
ENDBRANCH  21  22
ENDBRANCH  20  21
ENDBRANCH  13  20
TORSDOF 7
