REMARK  Name = ZINC44934303
REMARK  10 active torsions:
REMARK  status: ('A' for Active; 'I' for Inactive)
REMARK    1  A    between atoms: C_1  and  C_2
REMARK    2  A    between atoms: C_2  and  C_4
REMARK    3  A    between atoms: C_2  and  N_11
REMARK    4  A    between atoms: C_12  and  C_14
REMARK    5  A    between atoms: N_17  and  S_29
REMARK    6  A    between atoms: C_20  and  C_25
REMARK    7  A    between atoms: C_25  and  C_26
REMARK    8  A    between atoms: C_25  and  C_27
REMARK    9  A    between atoms: C_25  and  C_28
REMARK   10  A    between atoms: S_29  and  C_32
REMARK                            x       y       z     vdW  Elec       q    Type
REMARK                         _______ _______ _______ _____ _____    ______ ____
ROOT
ATOM      1  C   UNL     1      -3.442  -1.177   1.191  0.00  0.00    +0.277 C 
ATOM      2  C   UNL     1      -3.459  -2.630   0.696  0.00  0.00    +0.185 C 
ATOM      3  N   UNL     1      -4.849  -3.110   0.770  0.00  0.00    -0.200 N 
ATOM      4  C   UNL     1      -5.597  -2.768   1.908  0.00  0.00    +0.093 A 
ATOM      5  C   UNL     1      -6.794  -3.415   2.173  0.00  0.00    +0.032 A 
ATOM      6  C   UNL     1      -7.529  -3.072   3.293  0.00  0.00    -0.040 A 
ATOM      7  C   UNL     1      -7.071  -2.086   4.146  0.00  0.00    +0.008 A 
ATOM      8  C   UNL     1      -5.878  -1.438   3.887  0.00  0.00    +0.048 A 
ATOM      9  C   UNL     1      -5.133  -1.776   2.767  0.00  0.00    +0.144 A 
ATOM     10  O   UNL     1      -3.958  -1.136   2.524  0.00  0.00    -0.476 OA
ENDROOT
BRANCH   1  12
ATOM     11  N   UNL     1      -1.372  -0.511   0.012  0.00  0.00    -0.306 N 
ATOM     12  C   UNL     1      -2.029  -0.655   1.181  0.00  0.00    +0.256 C 
ATOM     13  O   UNL     1      -1.481  -0.365   2.224  0.00  0.00    -0.272 OA
ATOM     14  H   UNL     1      -1.810  -0.743  -0.822  0.00  0.00    +0.149 HD
BRANCH  11  16
ATOM     15  C   UNL     1      -0.019   1.526   0.010  0.00  0.00    +0.033 C 
ATOM     16  C   UNL     1       0.002  -0.004   0.002  0.00  0.00    +0.100 C 
BRANCH  16  17
ATOM     17  C   UNL     1       0.707  -0.490  -1.238  0.00  0.00    -0.027 A 
ATOM     18  C   UNL     1       0.037  -0.521  -2.446  0.00  0.00    +0.008 A 
ATOM     19  C   UNL     1       0.683  -0.966  -3.584  0.00  0.00    +0.038 A 
ATOM     20  C   UNL     1       2.002  -1.381  -3.513  0.00  0.00    +0.123 A 
ATOM     21  C   UNL     1       2.673  -1.349  -2.302  0.00  0.00    +0.038 A 
ATOM     22  C   UNL     1       2.026  -0.899  -1.167  0.00  0.00    +0.008 A 
ATOM     23  F   UNL     1       2.635  -1.817  -4.625  0.00  0.00    -0.205 F 
ENDBRANCH  16  17
ENDBRANCH  11  16
ENDBRANCH   1  12
BRANCH   6  24
ATOM     24  C   UNL     1      -8.830  -3.775   3.583  0.00  0.00    -0.013 C 
ATOM     25  C   UNL     1      -8.573  -5.274   3.753  0.00  0.00    +0.015 C 
ATOM     26  C   UNL     1      -9.438  -3.212   4.869  0.00  0.00    +0.015 C 
ATOM     27  C   UNL     1      -9.800  -3.553   2.421  0.00  0.00    +0.015 C 
ENDBRANCH   6  24
BRANCH   3  28
ATOM     28  S   UNL     1      -5.507  -4.022  -0.445  0.00  0.00    +0.043 S 
ATOM     29  O   UNL     1      -6.905  -3.779  -0.365  0.00  0.00    -0.155 OA
ATOM     30  O   UNL     1      -4.774  -3.660  -1.608  0.00  0.00    -0.155 OA
ATOM     31  C   UNL     1      -5.144  -5.740   0.012  0.00  0.00    +0.218 C 
ENDBRANCH   3  28
TORSDOF 5
