REMARK  Name = ZINC59171162
REMARK  6 active torsions:
REMARK  status: ('A' for Active; 'I' for Inactive)
REMARK    1  A    between atoms: C_1  and  C_2
REMARK    2  A    between atoms: C_2  and  O_3
REMARK    3  A    between atoms: O_3  and  C_4
REMARK    4  A    between atoms: C_8  and  N_10
REMARK    5  A    between atoms: C_12  and  C_23
REMARK    6  A    between atoms: C_23  and  N_25
REMARK                            x       y       z     vdW  Elec       q    Type
REMARK                         _______ _______ _______ _____ _____    ______ ____
ROOT
ATOM      1  N   UNL     1       2.461  -3.909  -3.872  0.00  0.00    -0.325 N 
ATOM      2  C   UNL     1       3.140  -5.011  -3.639  0.00  0.00    +0.209 A 
ATOM      3  C   UNL     1       3.633  -5.851  -4.750  0.00  0.00    +0.064 A 
ATOM      4  C   UNL     1       4.761  -6.623  -4.506  0.00  0.00    +0.027 A 
ATOM      5  C   UNL     1       5.360  -6.537  -3.172  0.00  0.00    +0.020 A 
ATOM      6  C   UNL     1       6.633  -7.064  -2.924  0.00  0.00    +0.027 A 
ATOM      7  C   UNL     1       7.176  -6.967  -1.662  0.00  0.00    +0.020 A 
ATOM      8  C   UNL     1       6.468  -6.351  -0.639  0.00  0.00    +0.034 A 
ATOM      9  C   UNL     1       5.212  -5.827  -0.869  0.00  0.00    +0.062 A 
ATOM     10  C   UNL     1       4.645  -5.915  -2.132  0.00  0.00    +0.151 A 
ATOM     11  O   UNL     1       3.414  -5.409  -2.371  0.00  0.00    -0.438 OA
ATOM     12 BR   UNL     1       4.263  -4.990   0.537  0.00  0.00    -0.046 Br
ATOM     13 BR   UNL     1       8.895  -7.678  -1.320  0.00  0.00    -0.050 Br
ATOM     14  H   UNL     1       2.360  -3.585  -4.781  0.00  0.00    +0.169 HD
ENDROOT
BRANCH   1  19
ATOM     15  C   UNL     1       1.450  -1.140  -1.712  0.00  0.00    +0.122 A 
ATOM     16  C   UNL     1       0.757  -1.829  -0.724  0.00  0.00    +0.046 A 
ATOM     17  C   UNL     1       0.635  -3.204  -0.788  0.00  0.00    +0.006 A 
ATOM     18  C   UNL     1       1.200  -3.903  -1.835  0.00  0.00    +0.026 A 
ATOM     19  C   UNL     1       1.899  -3.220  -2.833  0.00  0.00    +0.045 A 
ATOM     20  C   UNL     1       2.017  -1.830  -2.769  0.00  0.00    +0.071 A 
BRANCH  15  21
ATOM     21  O   UNL     1       1.566   0.212  -1.642  0.00  0.00    -0.492 OA
BRANCH  21  23
ATOM     22  C   UNL     1       1.192   2.368  -0.617  0.00  0.00    +0.048 C 
ATOM     23  C   UNL     1       0.957   0.859  -0.523  0.00  0.00    +0.225 C 
ENDBRANCH  21  23
ENDBRANCH  15  21
ENDBRANCH   1  19
BRANCH   3  24
ATOM     24  C   UNL     1       2.958  -5.868  -6.057  0.00  0.00    +0.082 C 
ATOM     25  S   UNL     1       1.484  -5.024  -6.271  0.00  0.00    -0.035 S 
BRANCH  24  26
ATOM     26  N   UNL     1       3.501  -6.549  -7.086  0.00  0.00    -0.352 N 
ATOM     27  H   UNL     1       4.335  -7.027  -6.965  0.00  0.00    +0.143 HD
ATOM     28  H   UNL     1       3.056  -6.560  -7.948  0.00  0.00    +0.143 HD
ENDBRANCH  24  26
ENDBRANCH   3  24
TORSDOF 5
