REMARK  Name = ZINC09669920
REMARK  10 active torsions:
REMARK  status: ('A' for Active; 'I' for Inactive)
REMARK    1  A    between atoms: C_1  and  C_2
REMARK    2  A    between atoms: C_2  and  C_3
REMARK    3  A    between atoms: C_2  and  C_4
REMARK    4  A    between atoms: C_2  and  C_5
REMARK    5  A    between atoms: C_8  and  S_11
REMARK    6  A    between atoms: S_11  and  N_14
REMARK    7  A    between atoms: N_22  and  C_23
REMARK    8  A    between atoms: C_23  and  C_24
REMARK    9  A    between atoms: C_24  and  C_26
REMARK   10  A    between atoms: C_24  and  N_70
REMARK                            x       y       z     vdW  Elec       q    Type
REMARK                         _______ _______ _______ _____ _____    ______ ____
ROOT
ATOM      1  N   UNL     1       1.242  -2.415  -1.659  0.00  0.00    -0.174 NA
ATOM      2  C   UNL     1      -0.029  -2.701  -2.337  0.00  0.00    +0.128 C 
ATOM      3  C   UNL     1      -0.053  -1.932  -3.669  0.00  0.00    +0.126 C 
ATOM      4  N   UNL     1       1.205  -2.193  -4.383  0.00  0.00    -0.283 N 
ATOM      5  C   UNL     1       2.477  -1.912  -3.702  0.00  0.00    +0.126 C 
ATOM      6  C   UNL     1       2.500  -2.676  -2.372  0.00  0.00    +0.128 C 
ATOM      7  C   UNL     1       1.193  -2.681  -5.639  0.00  0.00    +0.302 C 
ATOM      8  O   UNL     1       0.139  -2.996  -6.158  0.00  0.00    -0.253 OA
ATOM      9  N   UNL     1       2.348  -2.820  -6.320  0.00  0.00    -0.300 N 
ATOM     10  H   UNL     1       3.193  -2.637  -5.882  0.00  0.00    +0.150 HD
ENDROOT
BRANCH   1  11
ATOM     11  S   UNL     1       1.258  -1.815  -0.115  0.00  0.00    +0.061 S 
ATOM     12  O   UNL     1       2.513  -2.172   0.447  0.00  0.00    -0.153 OA
ATOM     13  O   UNL     1       0.023  -2.191   0.479  0.00  0.00    -0.153 OA
BRANCH  11  17
ATOM     14  C   UNL     1       1.219   2.700  -0.431  0.00  0.00    -0.042 A 
ATOM     15  C   UNL     1       0.028   2.002  -0.368  0.00  0.00    +0.006 A 
ATOM     16  C   UNL     1       0.040   0.623  -0.272  0.00  0.00    +0.029 A 
ATOM     17  C   UNL     1       1.243  -0.058  -0.239  0.00  0.00    +0.105 A 
ATOM     18  C   UNL     1       2.434   0.641  -0.302  0.00  0.00    +0.029 A 
ATOM     19  C   UNL     1       2.422   2.020  -0.399  0.00  0.00    +0.006 A 
BRANCH  14  21
ATOM     20  C   UNL     1       0.495   4.794   0.683  0.00  0.00    +0.015 C 
ATOM     21  C   UNL     1       1.206   4.204  -0.536  0.00  0.00    -0.013 C 
ATOM     22  C   UNL     1       2.644   4.723  -0.590  0.00  0.00    +0.015 C 
ATOM     23  C   UNL     1       0.466   4.619  -1.809  0.00  0.00    +0.015 C 
ENDBRANCH  14  21
ENDBRANCH  11  17
ENDBRANCH   1  11
BRANCH   9  24
ATOM     24  C   UNL     1       2.325  -3.247  -7.721  0.00  0.00    +0.098 C 
BRANCH  24  25
ATOM     25  C   UNL     1       3.759  -3.447  -8.216  0.00  0.00    +0.016 C 
BRANCH  25  30
ATOM     26  C   UNL     1       3.132  -2.664 -10.434  0.00  0.00    -0.078 C 
ATOM     27  C   UNL     1       3.663  -2.914 -11.869  0.00  0.00    -0.020 C 
ATOM     28  C   UNL     1       5.109  -3.402 -11.622  0.00  0.00    -0.020 C 
ATOM     29  C   UNL     1       5.116  -3.925 -10.174  0.00  0.00    -0.078 C 
ATOM     30  N   UNL     1       3.749  -3.764  -9.676  0.00  0.00    +0.387 N 
ATOM     31  H   UNL     1       3.220  -4.630  -9.829  0.00  0.00    -0.081 HD
ENDBRANCH  25  30
BRANCH  25  32
ATOM     32  C   UNL     1       4.399  -4.580  -7.455  0.00  0.00    +0.093 A 
ATOM     33  C   UNL     1       5.246  -4.451  -6.418  0.00  0.00    +0.043 A 
ATOM     34  C   UNL     1       5.598  -5.759  -6.013  0.00  0.00    +0.041 A 
ATOM     35  C   UNL     1       4.946  -6.608  -6.827  0.00  0.00    +0.195 A 
ATOM     36  O   UNL     1       4.217  -5.888  -7.695  0.00  0.00    -0.469 OA
ENDBRANCH  25  32
ENDBRANCH  24  25
ENDBRANCH   9  24
TORSDOF 7
