REMARK  Name = ZINC20664561
REMARK  8 active torsions:
REMARK  status: ('A' for Active; 'I' for Inactive)
REMARK    1  A    between atoms: C_1  and  C_2
REMARK    2  A    between atoms: C_7  and  N_12
REMARK    3  A    between atoms: C_9  and  C_11
REMARK    4  A    between atoms: C_13  and  C_15
REMARK    5  A    between atoms: C_18  and  N_24
REMARK    6  A    between atoms: C_19  and  N_21
REMARK    7  A    between atoms: C_27  and  C_30
REMARK    8  A    between atoms: C_30  and  C_31
REMARK                            x       y       z     vdW  Elec       q    Type
REMARK                         _______ _______ _______ _____ _____    ______ ____
ROOT
ATOM      1  C   UNL     1       1.149   3.179  -0.002  0.00  0.00    +0.039 A 
ATOM      2  C   UNL     1       1.170   1.786   0.117  0.00  0.00    +0.015 A 
ATOM      3  C   UNL     1      -0.011   1.081   0.133  0.00  0.00    +0.026 A 
ATOM      4  C   UNL     1      -1.226   1.752   0.027  0.00  0.00    +0.060 A 
ATOM      5  C   UNL     1      -1.251   3.139  -0.086  0.00  0.00    +0.148 A 
ATOM      6  C   UNL     1      -0.073   3.851  -0.103  0.00  0.00    +0.047 A 
ENDROOT
BRANCH   4   7
ATOM      7  N   UNL     1      -2.418   1.035   0.038  0.00  0.00    -0.328 N 
ATOM      8  C   UNL     1      -2.466   0.076  -1.072  0.00  0.00    +0.105 C 
ATOM      9  C   UNL     1      -3.844  -0.589  -1.115  0.00  0.00    +0.023 C 
ATOM     10  C   UNL     1      -4.101  -1.304   0.214  0.00  0.00    -0.004 C 
ATOM     11  C   UNL     1      -3.998  -0.292   1.358  0.00  0.00    +0.023 C 
ATOM     12  C   UNL     1      -2.616   0.364   1.329  0.00  0.00    +0.105 C 
BRANCH  10  13
ATOM     13  C   UNL     1      -5.502  -1.919   0.200  0.00  0.00    +0.038 C 
BRANCH  13  14
ATOM     14  C   UNL     1      -5.565  -3.002  -0.846  0.00  0.00    -0.047 A 
ATOM     15  C   UNL     1      -5.946  -2.693  -2.139  0.00  0.00    +0.003 A 
ATOM     16  C   UNL     1      -5.999  -3.686  -3.100  0.00  0.00    +0.000 A 
ATOM     17  C   UNL     1      -5.682  -4.989  -2.765  0.00  0.00    +0.000 A 
ATOM     18  C   UNL     1      -5.306  -5.298  -1.472  0.00  0.00    +0.000 A 
ATOM     19  C   UNL     1      -5.248  -4.305  -0.512  0.00  0.00    +0.003 A 
ENDBRANCH  13  14
ENDBRANCH  10  13
ENDBRANCH   4   7
BRANCH   1  21
ATOM     20  N   UNL     1       3.590   3.291   0.080  0.00  0.00    -0.308 N 
ATOM     21  C   UNL     1       2.413   3.939  -0.019  0.00  0.00    +0.244 C 
ATOM     22  O   UNL     1       2.393   5.151  -0.122  0.00  0.00    -0.270 OA
ATOM     23  H   UNL     1       3.608   2.195   0.173  0.00  0.00    +0.149 HD
BRANCH  20  29
ATOM     24  C   UNL     1       8.330   3.230   1.484  0.00  0.00    +0.008 C 
ATOM     25  C   UNL     1       7.244   4.032   0.764  0.00  0.00    -0.009 C 
ATOM     26  C   UNL     1       7.669   4.281  -0.684  0.00  0.00    +0.003 C 
ATOM     27  C   UNL     1       6.583   5.082  -1.404  0.00  0.00    +0.002 C 
ATOM     28  C   UNL     1       5.271   4.294  -1.386  0.00  0.00    +0.022 C 
ATOM     29  C   UNL     1       4.846   4.045   0.062  0.00  0.00    +0.076 C 
ATOM     30  C   UNL     1       5.932   3.244   0.782  0.00  0.00    +0.009 C 
ATOM     31  C   UNL     1       5.507   2.995   2.231  0.00  0.00    +0.009 C 
ENDBRANCH  20  29
ENDBRANCH   1  21
BRANCH   5  32
ATOM     32  N   UNL     1      -2.546   3.849  -0.193  0.00  0.00    +0.058 N 
ATOM     33  O   UNL     1      -2.574   5.067  -0.197  0.00  0.00    -0.126 OA
ATOM     34  O   UNL     1      -3.583   3.216  -0.277  0.00  0.00    -0.126 OA
ENDBRANCH   5  32
TORSDOF 6
