REMARK  Name = ZINC35148016
REMARK  4 active torsions:
REMARK  status: ('A' for Active; 'I' for Inactive)
REMARK    1  A    between atoms: C_1  and  C_2
REMARK    2  A    between atoms: C_4  and  C_33
REMARK    3  A    between atoms: C_6  and  N_8
REMARK    4  A    between atoms: C_24  and  C_30
REMARK                            x       y       z     vdW  Elec       q    Type
REMARK                         _______ _______ _______ _____ _____    ______ ____
ROOT
ATOM      1  N   UNL     1       0.050  -2.798   2.395  0.00  0.00    -0.210 N 
ATOM      2  C   UNL     1       0.043  -2.200   3.623  0.00  0.00    +0.232 C 
ATOM      3  O   UNL     1      -0.253  -1.052   3.875  0.00  0.00    -0.274 OA
ATOM      4  C   UNL     1       0.477  -3.261   4.600  0.00  0.00    +0.115 C 
ATOM      5  C   UNL     1      -0.246  -3.408   5.929  0.00  0.00    +0.117 C 
ATOM      6  C   UNL     1       0.440  -2.726   7.065  0.00  0.00    -0.019 A 
ATOM      7  C   UNL     1       0.958  -1.455   6.915  0.00  0.00    +0.006 A 
ATOM      8  C   UNL     1       1.578  -0.822   7.976  0.00  0.00    +0.000 A 
ATOM      9  C   UNL     1       1.683  -1.454   9.202  0.00  0.00    +0.001 A 
ATOM     10  C   UNL     1       1.178  -2.726   9.368  0.00  0.00    +0.008 A 
ATOM     11  C   UNL     1       0.559  -3.378   8.298  0.00  0.00    -0.019 A 
ATOM     12  C   UNL     1       0.063  -4.756   8.470  0.00  0.00    +0.023 C 
ATOM     13  C   UNL     1      -0.346  -5.463   7.405  0.00  0.00    +0.072 C 
ATOM     14  N   UNL     1      -0.271  -4.872   6.164  0.00  0.00    -0.316 N 
ATOM     15  C   UNL     1      -0.188  -5.555   4.843  0.00  0.00    +0.172 C 
ATOM     16  C   UNL     1      -0.238  -4.459   3.851  0.00  0.00    +0.119 C 
ATOM     17  C   UNL     1       0.067  -4.169   2.472  0.00  0.00    +0.232 C 
ATOM     18  O   UNL     1       0.291  -4.959   1.580  0.00  0.00    -0.274 OA
ENDROOT
BRANCH   1  24
ATOM     19  C   UNL     1      -0.018   1.503   0.010  0.00  0.00    +0.044 C 
ATOM     20  C   UNL     1       0.002  -0.004   0.002  0.00  0.00    -0.048 A 
ATOM     21  C   UNL     1       0.006  -0.688  -1.200  0.00  0.00    +0.006 A 
ATOM     22  C   UNL     1       0.024  -2.071  -1.211  0.00  0.00    -0.048 A 
ATOM     23  C   UNL     1       0.039  -2.773  -0.022  0.00  0.00    +0.027 A 
ATOM     24  C   UNL     1       0.035  -2.088   1.186  0.00  0.00    +0.044 A 
ATOM     25  C   UNL     1       0.023  -0.700   1.195  0.00  0.00    +0.027 A 
ATOM     26  C   UNL     1       0.027  -2.813  -2.523  0.00  0.00    +0.044 C 
ENDBRANCH   1  24
BRANCH  15  27
ATOM     27  C   UNL     1       1.120  -6.292   4.710  0.00  0.00    +0.232 C 
ATOM     28  O   UNL     1       2.051  -6.010   5.434  0.00  0.00    -0.274 OA
ATOM     29  N   UNL     1       1.255  -7.263   3.786  0.00  0.00    -0.328 N 
ATOM     30  H   UNL     1       0.510  -7.489   3.207  0.00  0.00    +0.145 HD
ATOM     31  H   UNL     1       2.097  -7.737   3.700  0.00  0.00    +0.145 HD
ENDBRANCH  15  27
TORSDOF 2
