REMARK  Name = ZINC04741825
REMARK  6 active torsions:
REMARK  status: ('A' for Active; 'I' for Inactive)
REMARK    1  A    between atoms: C_1  and  C_2
REMARK    2  A    between atoms: C_2  and  C_26
REMARK    3  A    between atoms: C_10  and  C_12
REMARK    4  A    between atoms: C_12  and  S_13
REMARK    5  A    between atoms: S_13  and  C_14
REMARK    6  A    between atoms: C_20  and  N_22
REMARK                            x       y       z     vdW  Elec       q    Type
REMARK                         _______ _______ _______ _____ _____    ______ ____
ROOT
ATOM      1  C   UNL     1       6.483   0.228  -2.194  0.00  0.00    +0.011 C 
ATOM      2  C   UNL     1       6.946   0.384  -0.744  0.00  0.00    -0.022 C 
ATOM      3  C   UNL     1       6.089   1.449  -0.055  0.00  0.00    +0.063 C 
ATOM      4  C   UNL     1       4.646   0.961  -0.037  0.00  0.00    +0.062 A 
ATOM      5  C   UNL     1       4.402  -0.419  -0.040  0.00  0.00    +0.079 A 
ATOM      6  S   UNL     1       2.636  -0.493  -0.018  0.00  0.00    -0.049 S 
ATOM      7  C   UNL     1       2.350   1.223  -0.014  0.00  0.00    +0.165 A 
ATOM      8  N   UNL     1       3.578   1.722  -0.023  0.00  0.00    -0.229 NA
ATOM      9  N   UNL     1       1.143   1.898   0.001  0.00  0.00    -0.264 N 
ATOM     10  C   UNL     1      -0.014   1.208   0.009  0.00  0.00    +0.229 C 
ATOM     11  O   UNL     1       0.002  -0.004   0.002  0.00  0.00    -0.275 OA
ATOM     12  C   UNL     1       5.375  -1.413  -0.049  0.00  0.00    +0.172 C 
ATOM     13  O   UNL     1       5.077  -2.591  -0.070  0.00  0.00    -0.291 OA
ATOM     14  C   UNL     1       6.825  -0.963  -0.031  0.00  0.00    +0.087 C 
ATOM     15  C   UNL     1       8.409   0.829  -0.729  0.00  0.00    +0.011 C 
ATOM     16  H   UNL     1       1.130   2.868   0.007  0.00  0.00    +0.157 HD
ENDROOT
BRANCH  10  17
ATOM     17  C   UNL     1      -1.330   1.944   0.019  0.00  0.00    +0.173 C 
BRANCH  17  18
ATOM     18  S   UNL     1      -2.689   0.749   0.019  0.00  0.00    -0.078 S 
BRANCH  18  19
ATOM     19  C   UNL     1      -4.064   1.851   0.031  0.00  0.00    +0.171 A 
ATOM     20  N   UNL     1      -5.328   1.341   0.029  0.00  0.00    -0.302 N 
ATOM     21  H   UNL     1      -5.466   0.351   0.017  0.00  0.00    +0.171 HD
ATOM     22  C   UNL     1      -6.393   2.170   0.043  0.00  0.00    +0.254 A 
ATOM     23  O   UNL     1      -7.528   1.721   0.046  0.00  0.00    -0.268 OA
ATOM     24  C   UNL     1      -6.174   3.551   0.050  0.00  0.00    +0.113 A 
ATOM     25  C   UNL     1      -4.867   4.019   0.046  0.00  0.00    +0.124 A 
ATOM     26  N   UNL     1      -3.850   3.151   0.037  0.00  0.00    -0.209 NA
BRANCH  25  27
ATOM     27  N   UNL     1      -4.618   5.377   0.053  0.00  0.00    -0.343 N 
ATOM     28  H   UNL     1      -3.704   5.703   0.051  0.00  0.00    +0.144 HD
ATOM     29  H   UNL     1      -5.357   6.006   0.060  0.00  0.00    +0.144 HD
ENDBRANCH  25  27
ENDBRANCH  18  19
ENDBRANCH  17  18
ENDBRANCH  10  17
TORSDOF 4
