REMARK  Name = ZINC40319825
REMARK  12 active torsions:
REMARK  status: ('A' for Active; 'I' for Inactive)
REMARK    1  A    between atoms: C_1  and  C_2
REMARK    2  A    between atoms: C_2  and  C_4
REMARK    3  A    between atoms: C_9  and  O_10
REMARK    4  A    between atoms: O_10  and  C_11
REMARK    5  A    between atoms: C_11  and  C_12
REMARK    6  A    between atoms: C_12  and  C_14
REMARK    7  A    between atoms: C_12  and  O_37
REMARK    8  A    between atoms: C_14  and  N_15
REMARK    9  A    between atoms: N_15  and  C_16
REMARK   10  A    between atoms: N_15  and  C_29
REMARK   11  A    between atoms: C_16  and  C_17
REMARK   12  A    between atoms: C_20  and  C_22
REMARK                            x       y       z     vdW  Elec       q    Type
REMARK                         _______ _______ _______ _____ _____    ______ ____
ROOT
ATOM      1  N   UNL     1       2.561  -6.788   0.425  0.00  0.00    +0.389 N 
ATOM      2  H   UNL     1       3.328  -6.997   1.047  0.00  0.00    -0.081 HD
ENDROOT
BRANCH   1   3
ATOM      3  C   UNL     1       3.039  -5.940  -0.674  0.00  0.00    -0.045 C 
ATOM      4  C   UNL     1       2.088  -6.062  -1.876  0.00  0.00    +0.009 C 
ATOM      5  C   UNL     1       2.741  -5.438  -3.132  0.00  0.00    +0.164 C 
ATOM      6  S   UNL     1       4.538  -5.658  -2.805  0.00  0.00    -0.033 S 
ATOM      7  O   UNL     1       5.150  -4.379  -2.707  0.00  0.00    -0.174 OA
ATOM      8  O   UNL     1       5.060  -6.615  -3.715  0.00  0.00    -0.174 OA
ATOM      9  C   UNL     1       4.452  -6.411  -1.125  0.00  0.00    +0.151 C 
ENDBRANCH   1   3
BRANCH   1  10
ATOM     10  C   UNL     1       1.508  -6.082   1.167  0.00  0.00    -0.043 C 
BRANCH  10  11
ATOM     11  C   UNL     1       2.128  -4.929   1.960  0.00  0.00    +0.135 C 
BRANCH  11  12
ATOM     12  O   UNL     1       2.562  -3.909   1.058  0.00  0.00    -0.390 OA
ATOM     13  H   UNL     1       1.842  -3.480   0.575  0.00  0.00    +0.210 HD
ENDBRANCH  11  12
BRANCH  11  14
ATOM     14  C   UNL     1       1.086  -4.353   2.921  0.00  0.00    +0.258 C 
BRANCH  14  15
ATOM     15  O   UNL     1       1.696  -3.356   3.743  0.00  0.00    -0.489 OA
BRANCH  15  21
ATOM     16  C   UNL     1       1.435  -1.751   5.498  0.00  0.00    +0.059 A 
ATOM     17  C   UNL     1       0.604  -1.121   6.432  0.00  0.00    +0.015 A 
ATOM     18  C   UNL     1      -0.723  -1.478   6.521  0.00  0.00    +0.001 A 
ATOM     19  C   UNL     1      -1.240  -2.460   5.691  0.00  0.00    +0.004 A 
ATOM     20  C   UNL     1      -0.433  -3.091   4.766  0.00  0.00    +0.046 A 
ATOM     21  C   UNL     1       0.904  -2.741   4.655  0.00  0.00    +0.131 A 
BRANCH  16  23
ATOM     22  C   UNL     1       3.415  -0.312   6.303  0.00  0.00    +0.092 C 
ATOM     23  C   UNL     1       2.850  -1.375   5.396  0.00  0.00    +0.164 C 
ATOM     24  O   UNL     1       3.566  -1.920   4.582  0.00  0.00    -0.292 OA
ENDBRANCH  16  23
ENDBRANCH  15  21
ENDBRANCH  14  15
ENDBRANCH  11  14
ENDBRANCH  10  11
ENDBRANCH   1  10
BRANCH   1  25
ATOM     25  C   UNL     1       2.020  -8.040  -0.121  0.00  0.00    -0.003 C 
BRANCH  25  26
ATOM     26  C   UNL     1       3.132  -8.831  -0.760  0.00  0.00    +0.089 A 
ATOM     27  C   UNL     1       3.986  -9.648  -0.114  0.00  0.00    +0.043 A 
ATOM     28  C   UNL     1       4.858 -10.183  -1.083  0.00  0.00    +0.050 A 
ATOM     29  C   UNL     1       4.483  -9.659  -2.280  0.00  0.00    +0.135 A 
ATOM     30  O   UNL     1       3.431  -8.844  -2.069  0.00  0.00    -0.462 OA
BRANCH  29  31
ATOM     31  C   UNL     1       5.116  -9.937  -3.586  0.00  0.00    +0.019 A 
ATOM     32  C   UNL     1       6.150 -10.872  -3.679  0.00  0.00    +0.011 A 
ATOM     33  C   UNL     1       6.737 -11.128  -4.900  0.00  0.00    +0.002 A 
ATOM     34  C   UNL     1       6.304 -10.461  -6.033  0.00  0.00    +0.020 A 
ATOM     35  C   UNL     1       5.280  -9.533  -5.948  0.00  0.00    +0.042 A 
ATOM     36  C   UNL     1       4.680  -9.272  -4.732  0.00  0.00    +0.031 A 
ATOM     37 CL   UNL     1       4.745  -8.701  -7.375  0.00  0.00    -0.084 Cl
ENDBRANCH  29  31
ENDBRANCH  25  26
ENDBRANCH   1  25
TORSDOF 11
