REMARK  Name = ZINC16806090
REMARK  6 active torsions:
REMARK  status: ('A' for Active; 'I' for Inactive)
REMARK    1  A    between atoms: C_3  and  S_18
REMARK    2  A    between atoms: C_6  and  N_7
REMARK    3  A    between atoms: C_8  and  C_10
REMARK    4  A    between atoms: C_10  and  N_11
REMARK    5  A    between atoms: S_18  and  N_21
REMARK    6  A    between atoms: C_25  and  N_27
REMARK                            x       y       z     vdW  Elec       q    Type
REMARK                         _______ _______ _______ _____ _____    ______ ____
ROOT
ATOM      1  C   UNL     1      -1.528   2.769   0.536  0.00  0.00    +0.025 A 
ATOM      2  C   UNL     1      -2.805   3.295   0.544  0.00  0.00    +0.031 A 
ATOM      3  C   UNL     1      -3.863   2.553   0.051  0.00  0.00    +0.113 A 
ATOM      4  C   UNL     1      -3.645   1.285  -0.456  0.00  0.00    +0.031 A 
ATOM      5  C   UNL     1      -2.369   0.756  -0.472  0.00  0.00    +0.025 A 
ATOM      6  C   UNL     1      -1.305   1.499   0.022  0.00  0.00    +0.033 A 
ENDROOT
BRANCH   6   7
ATOM      7  N   UNL     1      -0.011   0.966   0.007  0.00  0.00    -0.287 N 
ATOM      8  C   UNL     1       1.050   1.777  -0.174  0.00  0.00    +0.201 C 
ATOM      9  O   UNL     1       0.879   2.953  -0.417  0.00  0.00    -0.278 OA
ATOM     10  H   UNL     1       0.140  -0.115   0.144  0.00  0.00    +0.155 HD
BRANCH   8  11
ATOM     11  C   UNL     1       2.448   1.223  -0.076  0.00  0.00    +0.019 C 
BRANCH  11  12
ATOM     12  N   UNL     1       3.419   2.299  -0.312  0.00  0.00    +0.385 N 
ATOM     13  C   UNL     1       3.257   2.872  -1.667  0.00  0.00    -0.078 C 
ATOM     14  C   UNL     1       4.391   3.781  -2.055  0.00  0.00    -0.019 C 
ATOM     15  C   UNL     1       5.437   2.955  -2.833  0.00  0.00    -0.002 C 
ATOM     16  C   UNL     1       6.276   2.155  -1.948  0.00  0.00    -0.002 C 
ATOM     17  C   UNL     1       5.455   1.133  -1.134  0.00  0.00    -0.019 C 
ATOM     18  C   UNL     1       4.793   1.853   0.009  0.00  0.00    -0.078 C 
ATOM     19  H   UNL     1       3.209   3.126   0.383  0.00  0.00    -0.081 HD
ENDBRANCH  11  12
ENDBRANCH   8  11
ENDBRANCH   6   7
BRANCH   3  20
ATOM     20  S   UNL     1      -5.492   3.224   0.069  0.00  0.00    +0.101 S 
ATOM     21  O   UNL     1      -5.349   4.637   0.092  0.00  0.00    -0.146 OA
ATOM     22  O   UNL     1      -6.221   2.548  -0.946  0.00  0.00    -0.146 OA
BRANCH  20  23
ATOM     23  N   UNL     1      -6.182   2.794   1.512  0.00  0.00    -0.103 NA
ATOM     24  C   UNL     1      -5.664   3.284   2.701  0.00  0.00    +0.193 A 
ATOM     25  N   UNL     1      -4.636   4.089   2.888  0.00  0.00    -0.337 N 
ATOM     26  C   UNL     1      -4.275   4.466   4.100  0.00  0.00    +0.125 A 
ATOM     27  C   UNL     1      -4.979   3.998   5.158  0.00  0.00    +0.183 A 
ATOM     28  S   UNL     1      -6.198   2.990   4.327  0.00  0.00    -0.024 S 
ATOM     29  H   UNL     1      -4.062   4.458   2.025  0.00  0.00    +0.167 HD
BRANCH  27  30
ATOM     30  N   UNL     1      -4.790   4.252   6.605  0.00  0.00    +0.065 N 
ATOM     31  O   UNL     1      -3.890   4.979   6.983  0.00  0.00    -0.126 OA
ATOM     32  O   UNL     1      -5.536   3.733   7.416  0.00  0.00    -0.126 OA
ENDBRANCH  27  30
ENDBRANCH  20  23
ENDBRANCH   3  20
TORSDOF 6
