REMARK  Name = ZINC63374613
REMARK  9 active torsions:
REMARK  status: ('A' for Active; 'I' for Inactive)
REMARK    1  A    between atoms: C_1  and  C_2
REMARK    2  A    between atoms: C_2  and  C_4
REMARK    3  A    between atoms: C_2  and  N_10
REMARK    4  A    between atoms: C_11  and  C_13
REMARK    5  A    between atoms: C_13  and  C_15
REMARK    6  A    between atoms: C_13  and  N_18
REMARK    7  A    between atoms: C_15  and  C_16
REMARK    8  A    between atoms: C_15  and  C_17
REMARK    9  A    between atoms: C_21  and  C_37
REMARK                            x       y       z     vdW  Elec       q    Type
REMARK                         _______ _______ _______ _____ _____    ______ ____
ROOT
ATOM      1  N   UNL     1      -3.931  -1.418  -2.475  0.00  0.00    -0.212 N 
ATOM      2  C   UNL     1      -5.065  -0.857  -2.943  0.00  0.00    +0.249 C 
ATOM      3  O   UNL     1      -5.862  -0.187  -2.321  0.00  0.00    -0.273 OA
ATOM      4  C   UNL     1      -5.135  -1.239  -4.405  0.00  0.00    +0.136 C 
ATOM      5  C   UNL     1      -6.414  -2.022  -4.697  0.00  0.00    +0.139 C 
ATOM      6  C   UNL     1      -6.006  -3.455  -5.010  0.00  0.00    -0.034 C 
ATOM      7  C   UNL     1      -6.680  -4.226  -4.159  0.00  0.00    -0.001 A 
ATOM      8  C   UNL     1      -6.754  -5.689  -4.016  0.00  0.00    +0.010 A 
ATOM      9  C   UNL     1      -7.547  -6.153  -3.014  0.00  0.00    +0.001 A 
ATOM     10  C   UNL     1      -8.264  -5.318  -2.152  0.00  0.00    +0.002 A 
ATOM     11  C   UNL     1      -8.259  -3.963  -2.215  0.00  0.00    +0.026 A 
ATOM     12  C   UNL     1      -7.464  -3.357  -3.231  0.00  0.00    +0.043 A 
ATOM     13  N   UNL     1      -7.294  -2.088  -3.529  0.00  0.00    -0.375 N 
ATOM     14  C   UNL     1      -4.976  -3.824  -6.048  0.00  0.00    +0.052 C 
ATOM     15  C   UNL     1      -3.724  -2.972  -5.762  0.00  0.00    +0.115 C 
ATOM     16  N   UNL     1      -3.993  -2.160  -4.572  0.00  0.00    -0.269 N 
ATOM     17  C   UNL     1      -3.303  -2.127  -3.423  0.00  0.00    +0.313 C 
ATOM     18  O   UNL     1      -2.233  -2.680  -3.259  0.00  0.00    -0.252 OA
ATOM     19  C   UNL     1      -4.999  -0.011  -5.308  0.00  0.00    +0.044 C 
ATOM     20  H   UNL     1      -7.675  -1.328  -3.062  0.00  0.00    +0.160 HD
ENDROOT
BRANCH   1  21
ATOM     21  C   UNL     1      -3.442  -1.265  -1.102  0.00  0.00    +0.174 C 
BRANCH  21  23
ATOM     22  N   UNL     1      -1.617   0.005  -0.019  0.00  0.00    -0.307 N 
ATOM     23  C   UNL     1      -2.084  -0.614  -1.122  0.00  0.00    +0.235 C 
ATOM     24  O   UNL     1      -1.410  -0.647  -2.130  0.00  0.00    -0.274 OA
ATOM     25  H   UNL     1      -2.183   0.094   0.763  0.00  0.00    +0.149 HD
BRANCH  22  27
ATOM     26  C   UNL     1      -0.255   1.948  -0.613  0.00  0.00    +0.033 C 
ATOM     27  C   UNL     1      -0.255   0.544  -0.003  0.00  0.00    +0.100 C 
BRANCH  27  28
ATOM     28  C   UNL     1       0.240   0.614   1.419  0.00  0.00    -0.027 A 
ATOM     29  C   UNL     1      -0.615   1.010   2.430  0.00  0.00    +0.005 A 
ATOM     30  C   UNL     1      -0.160   1.075   3.734  0.00  0.00    +0.000 A 
ATOM     31  C   UNL     1       1.149   0.742   4.026  0.00  0.00    +0.000 A 
ATOM     32  C   UNL     1       2.004   0.344   3.015  0.00  0.00    +0.000 A 
ATOM     33  C   UNL     1       1.548   0.276   1.712  0.00  0.00    +0.005 A 
ENDBRANCH  27  28
ENDBRANCH  22  27
ENDBRANCH  21  23
BRANCH  21  34
ATOM     34  C   UNL     1      -3.339  -2.642  -0.442  0.00  0.00    +0.013 C 
ATOM     35  C   UNL     1      -2.931  -2.475   1.023  0.00  0.00    +0.009 C 
ATOM     36  C   UNL     1      -4.695  -3.346  -0.516  0.00  0.00    +0.009 C 
ENDBRANCH  21  34
ENDBRANCH   1  21
TORSDOF 5
