REMARK  Name = ZINC13321553
REMARK  7 active torsions:
REMARK  status: ('A' for Active; 'I' for Inactive)
REMARK    1  A    between atoms: C_1  and  C_2
REMARK    2  A    between atoms: C_2  and  C_24
REMARK    3  A    between atoms: N_3  and  N_4
REMARK    4  A    between atoms: C_5  and  C_7
REMARK    5  A    between atoms: C_9  and  C_17
REMARK    6  A    between atoms: C_27  and  O_31
REMARK    7  A    between atoms: C_29  and  O_30
REMARK                            x       y       z     vdW  Elec       q    Type
REMARK                         _______ _______ _______ _____ _____    ______ ____
ROOT
ATOM      1  N   UNL     1      -0.245  -2.035   1.099  0.00  0.00    -0.203 N 
ATOM      2  C   UNL     1      -0.403  -2.708   2.257  0.00  0.00    +0.264 C 
ATOM      3  O   UNL     1      -0.303  -2.123   3.318  0.00  0.00    -0.268 OA
ATOM      4  H   UNL     1      -0.252  -2.514   0.256  0.00  0.00    +0.178 HD
ENDROOT
BRANCH   2   5
ATOM      5  C   UNL     1      -0.698  -4.156   2.235  0.00  0.00    +0.050 A 
ATOM      6  C   UNL     1      -0.701  -4.875   1.048  0.00  0.00    +0.042 A 
ATOM      7  C   UNL     1      -0.985  -6.248   1.075  0.00  0.00    +0.072 A 
ATOM      8  N   UNL     1      -1.253  -6.889   2.193  0.00  0.00    -0.247 NA
ATOM      9  C   UNL     1      -1.273  -6.278   3.379  0.00  0.00    +0.072 A 
ATOM     10  C   UNL     1      -0.993  -4.891   3.466  0.00  0.00    +0.013 A 
ATOM     11  C   UNL     1      -1.009  -4.255   4.712  0.00  0.00    +0.011 A 
ATOM     12  C   UNL     1      -1.290  -4.977   5.833  0.00  0.00    +0.001 A 
ATOM     13  C   UNL     1      -1.560  -6.342   5.755  0.00  0.00    +0.002 A 
ATOM     14  C   UNL     1      -1.563  -6.990   4.558  0.00  0.00    +0.028 A 
BRANCH   7  15
ATOM     15  C   UNL     1      -0.985  -7.004  -0.201  0.00  0.00    +0.000 A 
ATOM     16  C   UNL     1      -0.700  -6.353  -1.400  0.00  0.00    +0.011 A 
ATOM     17  C   UNL     1      -0.701  -7.061  -2.584  0.00  0.00    +0.016 A 
ATOM     18  C   UNL     1      -0.985  -8.416  -2.583  0.00  0.00    +0.018 A 
ATOM     19  C   UNL     1      -1.269  -9.068  -1.395  0.00  0.00    +0.016 A 
ATOM     20  C   UNL     1      -1.265  -8.370  -0.204  0.00  0.00    +0.011 A 
ATOM     21 BR   UNL     1      -0.985  -9.380  -4.210  0.00  0.00    -0.050 Br
ENDBRANCH   7  15
ENDBRANCH   2   5
BRANCH   1  24
ATOM     22  C   UNL     1       0.067   1.520   0.016  0.00  0.00    +0.068 C 
ATOM     23  C   UNL     1      -0.019   0.015  -0.002  0.00  0.00    +0.067 C 
ATOM     24  N   UNL     1      -0.070  -0.645   1.115  0.00  0.00    -0.184 NA
BRANCH  23  25
ATOM     25  C   UNL     1      -0.045  -0.705  -1.286  0.00  0.00    +0.039 A 
ATOM     26  C   UNL     1      -1.185  -1.418  -1.667  0.00  0.00    +0.017 A 
ATOM     27  C   UNL     1      -1.205  -2.091  -2.869  0.00  0.00    +0.046 A 
ATOM     28  C   UNL     1      -0.095  -2.064  -3.705  0.00  0.00    +0.120 A 
ATOM     29  C   UNL     1       1.042  -1.359  -3.335  0.00  0.00    +0.091 A 
ATOM     30  C   UNL     1       1.072  -0.674  -2.133  0.00  0.00    +0.129 A 
BRANCH  30  31
ATOM     31  O   UNL     1       2.182   0.021  -1.773  0.00  0.00    -0.506 OA
ATOM     32  H   UNL     1       2.858  -0.516  -1.338  0.00  0.00    +0.292 HD
ENDBRANCH  30  31
BRANCH  28  33
ATOM     33  O   UNL     1      -0.122  -2.730  -4.888  0.00  0.00    -0.507 OA
ATOM     34  H   UNL     1      -0.448  -2.202  -5.630  0.00  0.00    +0.292 HD
ENDBRANCH  28  33
ENDBRANCH  23  25
ENDBRANCH   1  24
TORSDOF 6
