REMARK  Name = ZINC32992696
REMARK  10 active torsions:
REMARK  status: ('A' for Active; 'I' for Inactive)
REMARK    1  A    between atoms: C_1  and  C_2
REMARK    2  A    between atoms: C_5  and  C_8
REMARK    3  A    between atoms: C_8  and  C_38
REMARK    4  A    between atoms: N_11  and  C_15
REMARK    5  A    between atoms: C_15  and  C_16
REMARK    6  A    between atoms: N_18  and  C_19
REMARK    7  A    between atoms: C_22  and  S_25
REMARK    8  A    between atoms: S_25  and  N_28
REMARK    9  A    between atoms: C_30  and  C_37
REMARK   10  A    between atoms: C_33  and  C_36
REMARK                            x       y       z     vdW  Elec       q    Type
REMARK                         _______ _______ _______ _____ _____    ______ ____
ROOT
ATOM      1  C   UNL     1       5.156  -6.960  -2.740  0.00  0.00    +0.235 C 
ATOM      2  O   UNL     1       6.271  -7.392  -2.945  0.00  0.00    -0.274 OA
ATOM      3  N   UNL     1       4.923  -5.635  -2.810  0.00  0.00    -0.284 N 
ATOM      4  H   UNL     1       3.898  -5.250  -2.700  0.00  0.00    +0.155 HD
ENDROOT
BRANCH   3   5
ATOM      5  C   UNL     1       5.984  -4.748  -3.023  0.00  0.00    +0.034 A 
ATOM      6  C   UNL     1       5.975  -3.495  -2.423  0.00  0.00    +0.025 A 
ATOM      7  C   UNL     1       7.027  -2.624  -2.631  0.00  0.00    +0.030 A 
ATOM      8  C   UNL     1       8.083  -2.994  -3.443  0.00  0.00    +0.106 A 
ATOM      9  C   UNL     1       8.092  -4.239  -4.046  0.00  0.00    +0.030 A 
ATOM     10  C   UNL     1       7.046  -5.116  -3.838  0.00  0.00    +0.025 A 
BRANCH   8  11
ATOM     11  S   UNL     1       9.419  -1.877  -3.712  0.00  0.00    +0.061 S 
ATOM     12  O   UNL     1       9.436  -0.991  -2.601  0.00  0.00    -0.153 OA
ATOM     13  O   UNL     1      10.543  -2.668  -4.072  0.00  0.00    -0.153 OA
BRANCH  11  14
ATOM     14  N   UNL     1       9.036  -0.966  -5.040  0.00  0.00    -0.176 NA
ATOM     15  C   UNL     1       9.430  -1.402  -6.386  0.00  0.00    +0.112 C 
ATOM     16  C   UNL     1       8.180  -1.425  -7.278  0.00  0.00    +0.002 C 
ATOM     17  C   UNL     1       7.505  -0.052  -7.235  0.00  0.00    +0.009 C 
ATOM     18  C   UNL     1       7.068   0.259  -5.802  0.00  0.00    +0.002 C 
ATOM     19  C   UNL     1       8.301   0.298  -4.894  0.00  0.00    +0.112 C 
ATOM     20  C   UNL     1       6.364   1.617  -5.766  0.00  0.00    +0.009 C 
ATOM     21  C   UNL     1       7.205  -2.489  -6.770  0.00  0.00    +0.009 C 
ENDBRANCH  11  14
ENDBRANCH   8  11
ENDBRANCH   3   5
BRANCH   1  22
ATOM     22  C   UNL     1       4.031  -7.907  -2.408  0.00  0.00    +0.214 C 
BRANCH  22  26
ATOM     23  C   UNL     1       5.431 -11.284  -1.754  0.00  0.00    +0.135 C 
ATOM     24  C   UNL     1       5.037  -9.893  -1.301  0.00  0.00    +0.251 C 
ATOM     25  O   UNL     1       5.148  -9.426  -0.188  0.00  0.00    -0.272 OA
ATOM     26  N   UNL     1       4.538  -9.281  -2.393  0.00  0.00    -0.215 N 
ATOM     27  C   UNL     1       4.562 -10.085  -3.463  0.00  0.00    +0.310 C 
ATOM     28  O   UNL     1       4.164  -9.757  -4.563  0.00  0.00    -0.252 OA
ATOM     29  N   UNL     1       5.075 -11.297  -3.184  0.00  0.00    -0.281 N 
ATOM     30  C   UNL     1       4.637 -12.345  -0.989  0.00  0.00    +0.047 C 
ATOM     31  H   UNL     1       5.252 -12.199  -3.787  0.00  0.00    +0.152 HD
BRANCH  23  36
ATOM     32  C   UNL     1      11.108 -12.117  -1.065  0.00  0.00    +0.044 C 
ATOM     33  C   UNL     1       9.627 -11.900  -1.245  0.00  0.00    -0.050 A 
ATOM     34  C   UNL     1       8.945 -11.051  -0.394  0.00  0.00    +0.004 A 
ATOM     35  C   UNL     1       7.588 -10.848  -0.562  0.00  0.00    +0.006 A 
ATOM     36  C   UNL     1       6.912 -11.501  -1.575  0.00  0.00    -0.015 A 
ATOM     37  C   UNL     1       7.593 -12.354  -2.423  0.00  0.00    +0.006 A 
ATOM     38  C   UNL     1       8.951 -12.553  -2.258  0.00  0.00    +0.004 A 
ENDBRANCH  23  36
ENDBRANCH  22  26
ENDBRANCH   1  22
TORSDOF 6
