REMARK  Name = ZINC09043762
REMARK  8 active torsions:
REMARK  status: ('A' for Active; 'I' for Inactive)
REMARK    1  A    between atoms: C_1  and  N_2
REMARK    2  A    between atoms: N_2  and  C_3
REMARK    3  A    between atoms: N_2  and  C_4
REMARK    4  A    between atoms: C_7  and  C_10
REMARK    5  A    between atoms: C_15  and  C_33
REMARK    6  A    between atoms: C_27  and  C_29
REMARK    7  A    between atoms: C_29  and  C_30
REMARK    8  A    between atoms: C_30  and  C_31
REMARK                            x       y       z     vdW  Elec       q    Type
REMARK                         _______ _______ _______ _____ _____    ______ ____
ROOT
ATOM      1  C   UNL     1       3.552   1.438   1.052  0.00  0.00    +0.032 C 
ATOM      2  C   UNL     1       2.468   0.669   0.290  0.00  0.00    +0.083 C 
ATOM      3  C   UNL     1       1.253   1.541   0.174  0.00  0.00    +0.145 C 
ATOM      4  C   UNL     1       1.323   2.889   0.130  0.00  0.00    +0.125 C 
ATOM      5  C   UNL     1       0.030   3.627   0.057  0.00  0.00    +0.127 C 
ATOM      6  N   UNL     1       0.029   4.897   0.738  0.00  0.00    -0.261 N 
ATOM      7  C   UNL     1       0.638   6.015   0.190  0.00  0.00    +0.062 A 
ATOM      8  C   UNL     1      -0.063   7.165  -0.107  0.00  0.00    +0.025 A 
ATOM      9  C   UNL     1       0.574   8.231  -0.716  0.00  0.00    +0.002 A 
ATOM     10  C   UNL     1       1.920   8.143  -1.028  0.00  0.00    +0.002 A 
ATOM     11  C   UNL     1       2.638   7.008  -0.727  0.00  0.00    +0.029 A 
ATOM     12  C   UNL     1       2.020   5.918  -0.099  0.00  0.00    +0.085 A 
ATOM     13  N   UNL     1       2.734   4.832   0.215  0.00  0.00    -0.254 NA
ATOM     14  C   UNL     1       2.566   3.559   0.184  0.00  0.00    +0.032 C 
ATOM     15  C   UNL     1       3.838   2.731   0.290  0.00  0.00    +0.060 C 
ATOM     16  C   UNL     1      -0.578   5.001   1.937  0.00  0.00    +0.221 C 
ATOM     17  O   UNL     1      -1.115   4.032   2.430  0.00  0.00    -0.275 OA
ATOM     18  O   UNL     1       0.038   0.954   0.106  0.00  0.00    -0.297 OA
ENDROOT
BRANCH   1  22
ATOM     19  C   UNL     1       7.109  -0.921   1.278  0.00  0.00    +0.029 A 
ATOM     20  C   UNL     1       6.469  -0.513   2.441  0.00  0.00    +0.023 A 
ATOM     21  C   UNL     1       5.320   0.249   2.365  0.00  0.00    +0.006 A 
ATOM     22  C   UNL     1       4.806   0.606   1.132  0.00  0.00    -0.043 A 
ATOM     23  C   UNL     1       5.438   0.198  -0.029  0.00  0.00    +0.006 A 
ATOM     24  C   UNL     1       6.590  -0.560   0.041  0.00  0.00    +0.023 A 
BRANCH  19  26
ATOM     25  C   UNL     1       8.889  -1.964   2.652  0.00  0.00    +0.129 C 
ATOM     26  N   UNL     1       8.272  -1.692   1.351  0.00  0.00    -0.336 N 
ATOM     27  C   UNL     1       8.874  -2.228   0.128  0.00  0.00    +0.129 C 
ENDBRANCH  19  26
ENDBRANCH   1  22
BRANCH   5  28
ATOM     28  C   UNL     1      -0.300   3.861  -1.394  0.00  0.00    -0.026 A 
ATOM     29  C   UNL     1      -1.455   4.538  -1.740  0.00  0.00    +0.005 A 
ATOM     30  C   UNL     1      -1.755   4.757  -3.071  0.00  0.00    +0.000 A 
ATOM     31  C   UNL     1      -0.906   4.290  -4.058  0.00  0.00    +0.000 A 
ATOM     32  C   UNL     1       0.246   3.608  -3.712  0.00  0.00    +0.000 A 
ATOM     33  C   UNL     1       0.549   3.394  -2.380  0.00  0.00    +0.005 A 
ENDBRANCH   5  28
BRANCH  16  34
ATOM     34  C   UNL     1      -0.589   6.321   2.664  0.00  0.00    +0.107 C 
BRANCH  34  35
ATOM     35  C   UNL     1      -1.336   6.166   3.990  0.00  0.00    +0.134 C 
BRANCH  35  36
ATOM     36  C   UNL     1      -1.348   7.485   4.718  0.00  0.00    +0.356 C 
ATOM     37  O   UNL     1      -0.812   8.451   4.226  0.00  0.00    -0.246 OA
ATOM     38  O   UNL     1      -1.952   7.588   5.912  0.00  0.00    -0.246 OA
ENDBRANCH  35  36
ENDBRANCH  34  35
ENDBRANCH  16  34
TORSDOF 6
