REMARK  Name = ZINC25258672
REMARK  14 active torsions:
REMARK  status: ('A' for Active; 'I' for Inactive)
REMARK    1  A    between atoms: C_1  and  C_2
REMARK    2  A    between atoms: C_2  and  C_3
REMARK    3  A    between atoms: C_2  and  N_4
REMARK    4  A    between atoms: N_4  and  S_5
REMARK    5  A    between atoms: S_5  and  C_8
REMARK    6  A    between atoms: C_11  and  N_14
REMARK    7  A    between atoms: C_15  and  C_17
REMARK    8  A    between atoms: C_17  and  C_19
REMARK    9  A    between atoms: C_17  and  N_24
REMARK   10  A    between atoms: C_19  and  C_20
REMARK   11  A    between atoms: C_20  and  C_21
REMARK   12  A    between atoms: C_25  and  O_27
REMARK   13  A    between atoms: O_27  and  C_28
REMARK   14  A    between atoms: C_28  and  C_29
REMARK                            x       y       z     vdW  Elec       q    Type
REMARK                         _______ _______ _______ _____ _____    ______ ____
ROOT
ATOM      1  C   UNL     1      -3.502   4.577   6.713  0.00  0.00    +0.163 C 
ENDROOT
BRANCH   1   3
ATOM      2  N   UNL     1      -3.076   3.043   4.821  0.00  0.00    -0.284 N 
ATOM      3  C   UNL     1      -2.804   4.215   5.427  0.00  0.00    +0.238 C 
ATOM      4  O   UNL     1      -1.999   4.979   4.938  0.00  0.00    -0.273 OA
ATOM      5  H   UNL     1      -3.868   2.389   5.216  0.00  0.00    +0.155 HD
BRANCH   2   9
ATOM      6  C   UNL     1      -0.916   1.894   1.448  0.00  0.00    +0.105 A 
ATOM      7  C   UNL     1      -2.249   1.543   1.567  0.00  0.00    +0.030 A 
ATOM      8  C   UNL     1      -2.966   1.918   2.686  0.00  0.00    +0.025 A 
ATOM      9  C   UNL     1      -2.350   2.656   3.688  0.00  0.00    +0.034 A 
ATOM     10  C   UNL     1      -1.014   3.012   3.563  0.00  0.00    +0.025 A 
ATOM     11  C   UNL     1      -0.301   2.629   2.444  0.00  0.00    +0.030 A 
BRANCH   6  12
ATOM     12  S   UNL     1      -0.003   1.408   0.022  0.00  0.00    +0.059 S 
ATOM     13  O   UNL     1       1.071   2.330  -0.106  0.00  0.00    -0.153 OA
ATOM     14  O   UNL     1      -0.952   1.196  -1.015  0.00  0.00    -0.153 OA
BRANCH  12  15
ATOM     15  N   UNL     1       0.675  -0.066   0.352  0.00  0.00    -0.187 NA
ATOM     16  H   UNL     1       1.751  -0.126   0.571  0.00  0.00    +0.148 HD
BRANCH  15  18
ATOM     17  C   UNL     1      -0.330  -2.006  -0.746  0.00  0.00    +0.025 C 
ATOM     18  C   UNL     1      -0.182  -1.235   0.567  0.00  0.00    +0.070 C 
ATOM     19  C   UNL     1       0.450  -2.143   1.623  0.00  0.00    +0.025 C 
ENDBRANCH  15  18
ENDBRANCH  12  15
ENDBRANCH   6  12
ENDBRANCH   2   9
ENDBRANCH   1   3
BRANCH   1  20
ATOM     20  N   UNL     1      -3.037   5.890   7.168  0.00  0.00    -0.270 N 
ATOM     21  C   UNL     1      -3.100   6.212   8.475  0.00  0.00    +0.401 C 
ATOM     22  O   UNL     1      -3.542   5.413   9.277  0.00  0.00    -0.226 OA
ATOM     23  H   UNL     1      -2.638   6.614   6.441  0.00  0.00    +0.153 HD
BRANCH  21  24
ATOM     24  O   UNL     1      -2.674   7.419   8.892  0.00  0.00    -0.446 OA
BRANCH  24  25
ATOM     25  C   UNL     1      -2.771   7.697  10.314  0.00  0.00    +0.269 C 
BRANCH  25  26
ATOM     26  C   UNL     1      -2.251   9.084  10.591  0.00  0.00    -0.010 A 
ATOM     27  C   UNL     1      -0.914   9.275  10.886  0.00  0.00    +0.007 A 
ATOM     28  C   UNL     1      -0.436  10.547  11.136  0.00  0.00    +0.000 A 
ATOM     29  C   UNL     1      -1.296  11.628  11.101  0.00  0.00    +0.000 A 
ATOM     30  C   UNL     1      -2.635  11.437  10.811  0.00  0.00    +0.000 A 
ATOM     31  C   UNL     1      -3.112  10.165  10.556  0.00  0.00    +0.007 A 
ENDBRANCH  25  26
ENDBRANCH  24  25
ENDBRANCH  21  24
ENDBRANCH   1  20
BRANCH   1  32
ATOM     32  C   UNL     1      -5.013   4.623   6.479  0.00  0.00    +0.041 C 
BRANCH  32  33
ATOM     33  C   UNL     1      -5.728   4.868   7.809  0.00  0.00    +0.098 C 
BRANCH  33  34
ATOM     34  C   UNL     1      -7.217   4.914   7.578  0.00  0.00    +0.211 C 
ATOM     35  O   UNL     1      -7.662   4.765   6.459  0.00  0.00    -0.276 OA
ATOM     36  N   UNL     1      -8.053   5.119   8.614  0.00  0.00    -0.329 N 
ATOM     37  H   UNL     1      -9.140   5.153   8.445  0.00  0.00    +0.145 HD
ATOM     38  H   UNL     1      -7.650   5.254   9.629  0.00  0.00    +0.145 HD
ENDBRANCH  33  34
ENDBRANCH  32  33
ENDBRANCH   1  32
TORSDOF 12
