REMARK  Name = ZINC00924508
REMARK  7 active torsions:
REMARK  status: ('A' for Active; 'I' for Inactive)
REMARK    1  A    between atoms: C_1  and  C_2
REMARK    2  A    between atoms: C_5  and  C_8
REMARK    3  A    between atoms: C_8  and  C_10
REMARK    4  A    between atoms: C_10  and  S_11
REMARK    5  A    between atoms: S_11  and  C_12
REMARK    6  A    between atoms: C_15  and  C_23
REMARK    7  A    between atoms: N_16  and  C_17
REMARK                            x       y       z     vdW  Elec       q    Type
REMARK                         _______ _______ _______ _____ _____    ______ ____
ROOT
ATOM      1  C   UNL     1       1.402  -2.341   0.190  0.00  0.00    +0.193 A 
ATOM      2  N   UNL     1       0.315  -2.932  -0.257  0.00  0.00    -0.122 NA
ATOM      3  N   UNL     1       0.523  -4.192  -0.394  0.00  0.00    -0.128 NA
ATOM      4  C   UNL     1       1.751  -4.485  -0.034  0.00  0.00    +0.165 A 
ATOM      5  N   UNL     1       2.351  -3.308   0.351  0.00  0.00    -0.299 N 
ENDROOT
BRANCH   5   6
ATOM      6  C   UNL     1       3.723  -3.130   0.834  0.00  0.00    +0.091 C 
ATOM      7  C   UNL     1       3.698  -2.429   2.194  0.00  0.00    +0.025 C 
ATOM      8  C   UNL     1       5.131  -2.243   2.698  0.00  0.00    +0.002 C 
ATOM      9  C   UNL     1       5.917  -1.391   1.699  0.00  0.00    +0.000 C 
ATOM     10  C   UNL     1       5.941  -2.092   0.339  0.00  0.00    +0.002 C 
ATOM     11  C   UNL     1       4.509  -2.278  -0.165  0.00  0.00    +0.025 C 
ENDBRANCH   5   6
BRANCH   4  12
ATOM     12  C   UNL     1       2.372  -5.826  -0.040  0.00  0.00    +0.022 A 
ATOM     13  C   UNL     1       3.743  -5.983  -0.282  0.00  0.00    +0.031 A 
ATOM     14  C   UNL     1       4.281  -7.253  -0.275  0.00  0.00    +0.111 A 
ATOM     15  N   UNL     1       3.522  -8.310  -0.054  0.00  0.00    -0.263 NA
ATOM     16  C   UNL     1       2.227  -8.207   0.174  0.00  0.00    +0.111 A 
ATOM     17  C   UNL     1       1.606  -6.975   0.189  0.00  0.00    +0.031 A 
ENDBRANCH   4  12
BRANCH   1  18
ATOM     18  S   UNL     1       1.594  -0.622   0.526  0.00  0.00    -0.078 S 
BRANCH  18  19
ATOM     19  C   UNL     1      -0.055  -0.027   0.074  0.00  0.00    +0.157 C 
BRANCH  19  20
ATOM     20  C   UNL     1      -0.127   1.463   0.286  0.00  0.00    +0.173 C 
ATOM     21  O   UNL     1       0.841   2.064   0.701  0.00  0.00    -0.291 OA
BRANCH  20  26
ATOM     22  C   UNL     1      -4.982   4.304  -0.898  0.00  0.00    +0.044 C 
ATOM     23  C   UNL     1      -3.709   3.559  -0.588  0.00  0.00    -0.050 A 
ATOM     24  C   UNL     1      -2.609   4.248  -0.108  0.00  0.00    +0.004 A 
ATOM     25  C   UNL     1      -1.440   3.574   0.178  0.00  0.00    +0.011 A 
ATOM     26  C   UNL     1      -1.370   2.191  -0.017  0.00  0.00    +0.018 A 
ATOM     27  C   UNL     1      -2.485   1.503  -0.507  0.00  0.00    +0.011 A 
ATOM     28  C   UNL     1      -3.647   2.191  -0.784  0.00  0.00    +0.004 A 
ENDBRANCH  20  26
ENDBRANCH  19  20
ENDBRANCH  18  19
ENDBRANCH   1  18
TORSDOF 6
