REMARK  Name = ZINC40049964
REMARK  14 active torsions:
REMARK  status: ('A' for Active; 'I' for Inactive)
REMARK    1  A    between atoms: C_1  and  C_2
REMARK    2  A    between atoms: C_2  and  C_3
REMARK    3  A    between atoms: C_3  and  C_4
REMARK    4  A    between atoms: C_4  and  N_5
REMARK    5  A    between atoms: C_6  and  C_30
REMARK    6  A    between atoms: C_7  and  C_29
REMARK    7  A    between atoms: C_9  and  S_10
REMARK    8  A    between atoms: S_10  and  C_11
REMARK    9  A    between atoms: C_11  and  C_12
REMARK   10  A    between atoms: C_15  and  C_17
REMARK   11  A    between atoms: C_17  and  C_18
REMARK   12  A    between atoms: N_20  and  C_21
REMARK   13  A    between atoms: C_23  and  C_28
REMARK   14  A    between atoms: C_26  and  C_27
REMARK                            x       y       z     vdW  Elec       q    Type
REMARK                         _______ _______ _______ _____ _____    ______ ____
ROOT
ATOM      1  C   UNL     1       6.644  -2.948  -1.157  0.00  0.00    +0.059 A 
ATOM      2  C   UNL     1       7.342  -1.792  -1.013  0.00  0.00    +0.071 A 
ATOM      3  S   UNL     1       8.498  -2.263   0.265  0.00  0.00    -0.080 S 
ATOM      4  C   UNL     1       7.978  -3.850   0.473  0.00  0.00    +0.087 A 
ATOM      5  N   UNL     1       6.995  -3.958  -0.386  0.00  0.00    -0.248 NA
ENDROOT
BRANCH   1   6
ATOM      6  C   UNL     1       5.517  -3.070  -2.150  0.00  0.00    +0.133 C 
BRANCH   6   7
ATOM      7  S   UNL     1       3.958  -2.592  -1.355  0.00  0.00    -0.083 S 
BRANCH   7  12
ATOM      8  N   UNL     1       1.421  -2.542  -2.506  0.00  0.00    -0.324 N 
ATOM      9  C   UNL     1       0.849  -2.811  -3.729  0.00  0.00    +0.037 A 
ATOM     10  C   UNL     1       1.839  -3.210  -4.545  0.00  0.00    +0.034 A 
ATOM     11  N   UNL     1       2.991  -3.190  -3.854  0.00  0.00    -0.338 N 
ATOM     12  C   UNL     1       2.754  -2.784  -2.628  0.00  0.00    +0.148 A 
ATOM     13  C   UNL     1       1.684  -3.612  -5.989  0.00  0.00    +0.065 C 
ATOM     14  C   UNL     1      -0.610  -2.684  -4.085  0.00  0.00    +0.065 C 
ATOM     15  H   UNL     1       3.861  -3.433  -4.206  0.00  0.00    +0.168 HD
BRANCH   8  16
ATOM     16  C   UNL     1       0.726  -2.076  -1.303  0.00  0.00    +0.124 C 
BRANCH  16  17
ATOM     17  C   UNL     1       0.696  -0.546  -1.291  0.00  0.00    +0.021 C 
BRANCH  17  19
ATOM     18  C   UNL     1      -0.059   1.470  -0.023  0.00  0.00    +0.004 C 
ATOM     19  C   UNL     1      -0.029  -0.060  -0.035  0.00  0.00    -0.002 C 
ENDBRANCH  17  19
ENDBRANCH  16  17
ENDBRANCH   8  16
ENDBRANCH   7  12
ENDBRANCH   6   7
ENDBRANCH   1   6
BRANCH   4  20
ATOM     20  C   UNL     1       8.511  -4.893   1.421  0.00  0.00    +0.159 C 
BRANCH  20  21
ATOM     21  C   UNL     1       9.610  -5.672   0.745  0.00  0.00    +0.224 C 
ATOM     22  O   UNL     1       9.929  -5.406  -0.395  0.00  0.00    -0.275 OA
ATOM     23  N   UNL     1      10.239  -6.663   1.407  0.00  0.00    -0.285 N 
ATOM     24  H   UNL     1      10.041  -6.824   2.343  0.00  0.00    +0.155 HD
BRANCH  23  25
ATOM     25  C   UNL     1      11.177  -7.462   0.744  0.00  0.00    +0.037 A 
ATOM     26  C   UNL     1      11.113  -7.612  -0.635  0.00  0.00    +0.027 A 
ATOM     27  C   UNL     1      12.040  -8.401  -1.287  0.00  0.00    -0.049 A 
ATOM     28  C   UNL     1      13.033  -9.041  -0.567  0.00  0.00    +0.004 A 
ATOM     29  C   UNL     1      13.100  -8.894   0.806  0.00  0.00    +0.005 A 
ATOM     30  C   UNL     1      12.179  -8.101   1.463  0.00  0.00    -0.029 A 
ATOM     31  C   UNL     1      12.257  -7.935   2.958  0.00  0.00    +0.045 C 
ATOM     32  C   UNL     1      11.971  -8.565  -2.783  0.00  0.00    +0.044 C 
ENDBRANCH  23  25
ENDBRANCH  20  21
ENDBRANCH   4  20
TORSDOF 9
