REMARK  Name = ZINC02277661
REMARK  8 active torsions:
REMARK  status: ('A' for Active; 'I' for Inactive)
REMARK    1  A    between atoms: C_3  and  N_28
REMARK    2  A    between atoms: C_6  and  C_7
REMARK    3  A    between atoms: C_10  and  C_12
REMARK    4  A    between atoms: N_16  and  C_20
REMARK    5  A    between atoms: C_20  and  C_22
REMARK    6  A    between atoms: C_20  and  C_26
REMARK    7  A    between atoms: C_22  and  C_23
REMARK    8  A    between atoms: C_23  and  C_24
REMARK                            x       y       z     vdW  Elec       q    Type
REMARK                         _______ _______ _______ _____ _____    ______ ____
ROOT
ATOM      1  C   UNL     1       0.002  -0.004   0.002  0.00  0.00    +0.066 C 
ATOM      2  C   UNL     1      -0.017   1.401   0.010  0.00  0.00    +0.080 C 
ATOM      3  C   UNL     1       1.126   2.361   0.004  0.00  0.00    +0.259 C 
ATOM      4  O   UNL     1       2.281   1.985  -0.008  0.00  0.00    -0.269 OA
ATOM      5  N   UNL     1       0.808   3.646   0.013  0.00  0.00    -0.241 N 
ATOM      6  C   UNL     1      -0.485   4.025   0.027  0.00  0.00    +0.121 C 
ATOM      7  S   UNL     1      -1.121   5.615   0.040  0.00  0.00    -0.027 S 
ATOM      8  S   UNL     1      -1.376   2.481   0.021  0.00  0.00    -0.061 S 
ENDROOT
BRANCH   1  12
ATOM      9  C   UNL     1      -3.336  -1.183   0.029  0.00  0.00    +0.136 A 
ATOM     10  C   UNL     1      -2.669  -2.425   0.015  0.00  0.00    +0.050 A 
ATOM     11  C   UNL     1      -1.331  -2.173   0.003  0.00  0.00    +0.050 A 
ATOM     12  C   UNL     1      -1.188  -0.713   0.010  0.00  0.00    +0.130 A 
ATOM     13  O   UNL     1      -2.434  -0.188   0.030  0.00  0.00    -0.455 OA
BRANCH   9  19
ATOM     14  C   UNL     1      -5.639  -2.126   0.043  0.00  0.00    +0.014 A 
ATOM     15  C   UNL     1      -7.003  -1.948   0.063  0.00  0.00    +0.033 A 
ATOM     16  C   UNL     1      -7.540  -0.669   0.076  0.00  0.00    +0.126 A 
ATOM     17  C   UNL     1      -6.711   0.442   0.073  0.00  0.00    +0.033 A 
ATOM     18  C   UNL     1      -5.344   0.286   0.058  0.00  0.00    +0.014 A 
ATOM     19  C   UNL     1      -4.789  -1.006   0.045  0.00  0.00    +0.017 A 
BRANCH  16  20
ATOM     20  N   UNL     1      -9.010  -0.489   0.092  0.00  0.00    +0.056 N 
ATOM     21  O   UNL     1      -9.525   0.723   0.104  0.00  0.00    -0.126 OA
ATOM     22  O   UNL     1      -9.802  -1.542   0.095  0.00  0.00    -0.126 OA
ENDBRANCH  16  20
ENDBRANCH   9  19
ENDBRANCH   1  12
BRANCH   5  23
ATOM     23  C   UNL     1       1.866   4.659   0.009  0.00  0.00    +0.196 C 
BRANCH  23  24
ATOM     24  C   UNL     1       1.748   5.514   1.245  0.00  0.00    +0.376 C 
ATOM     25  O   UNL     1       0.870   5.298   2.047  0.00  0.00    -0.244 OA
ATOM     26  O   UNL     1       2.618   6.514   1.454  0.00  0.00    -0.244 OA
ENDBRANCH  23  24
BRANCH  23  27
ATOM     27  C   UNL     1       1.724   5.539  -1.235  0.00  0.00    +0.046 C 
BRANCH  27  28
ATOM     28  C   UNL     1       1.968   4.695  -2.487  0.00  0.00    +0.127 C 
BRANCH  28  29
ATOM     29  C   UNL     1       1.828   5.561  -3.712  0.00  0.00    +0.356 C 
ATOM     30  O   UNL     1       1.561   6.734  -3.595  0.00  0.00    -0.246 OA
ATOM     31  O   UNL     1       2.000   5.031  -4.933  0.00  0.00    -0.246 OA
ENDBRANCH  28  29
ENDBRANCH  27  28
ENDBRANCH  23  27
ENDBRANCH   5  23
TORSDOF 8
