REMARK  Name = ZINC09124348
REMARK  9 active torsions:
REMARK  status: ('A' for Active; 'I' for Inactive)
REMARK    1  A    between atoms: C_1  and  C_2
REMARK    2  A    between atoms: C_4  and  O_36
REMARK    3  A    between atoms: C_5  and  C_9
REMARK    4  A    between atoms: N_17  and  C_29
REMARK    5  A    between atoms: C_18  and  C_20
REMARK    6  A    between atoms: C_23  and  C_26
REMARK    7  A    between atoms: C_26  and  C_27
REMARK    8  A    between atoms: C_26  and  C_28
REMARK    9  A    between atoms: C_29  and  C_30
REMARK                            x       y       z     vdW  Elec       q    Type
REMARK                         _______ _______ _______ _____ _____    ______ ____
ROOT
ATOM      1  C   UNL     1      -0.059  -4.507  -0.144  0.00  0.00    +0.075 A 
ATOM      2  C   UNL     1       1.069  -5.195  -0.460  0.00  0.00    +0.035 A 
ATOM      3  C   UNL     1       0.748  -6.562  -0.303  0.00  0.00    +0.153 A 
ATOM      4  N   UNL     1      -0.511  -6.619   0.085  0.00  0.00    -0.168 NA
ATOM      5  N   UNL     1      -1.003  -5.436   0.191  0.00  0.00    -0.276 N 
ATOM      6  H   UNL     1      -1.911  -5.233   0.465  0.00  0.00    +0.189 HD
ATOM      7  C   UNL     1       1.948  -7.350  -0.636  0.00  0.00    +0.268 C 
ATOM      8  O   UNL     1       2.012  -8.564  -0.604  0.00  0.00    -0.268 OA
ATOM      9  N   UNL     1       2.962  -6.538  -0.981  0.00  0.00    -0.281 N 
ATOM     10  C   UNL     1       2.506  -5.145  -0.902  0.00  0.00    +0.142 C 
ENDROOT
BRANCH   1  15
ATOM     11  C   UNL     1      -0.726   1.214  -0.190  0.00  0.00    +0.045 C 
ATOM     12  C   UNL     1      -0.550  -0.283  -0.176  0.00  0.00    -0.029 A 
ATOM     13  C   UNL     1       0.322  -0.865   0.726  0.00  0.00    +0.050 A 
ATOM     14  C   UNL     1       0.488  -2.240   0.743  0.00  0.00    +0.126 A 
ATOM     15  C   UNL     1      -0.230  -3.038  -0.155  0.00  0.00    +0.043 A 
ATOM     16  C   UNL     1      -1.108  -2.441  -1.059  0.00  0.00    +0.034 A 
ATOM     17  C   UNL     1      -1.267  -1.069  -1.061  0.00  0.00    +0.045 A 
ATOM     18 CL   UNL     1      -2.365  -0.328  -2.183  0.00  0.00    -0.083 Cl
BRANCH  14  19
ATOM     19  O   UNL     1       1.346  -2.812   1.627  0.00  0.00    -0.506 OA
ATOM     20  H   UNL     1       0.960  -2.978   2.498  0.00  0.00    +0.292 HD
ENDBRANCH  14  19
ENDBRANCH   1  15
BRANCH  10  21
ATOM     21  C   UNL     1       2.609  -4.489  -2.254  0.00  0.00    -0.022 A 
ATOM     22  C   UNL     1       2.098  -5.123  -3.371  0.00  0.00    +0.006 A 
ATOM     23  C   UNL     1       2.192  -4.521  -4.612  0.00  0.00    +0.004 A 
ATOM     24  C   UNL     1       2.797  -3.284  -4.736  0.00  0.00    -0.045 A 
ATOM     25  C   UNL     1       3.307  -2.649  -3.619  0.00  0.00    +0.004 A 
ATOM     26  C   UNL     1       3.209  -3.250  -2.377  0.00  0.00    +0.006 A 
BRANCH  24  27
ATOM     27  C   UNL     1       2.901  -2.628  -6.088  0.00  0.00    +0.013 C 
ATOM     28  C   UNL     1       2.169  -1.285  -6.061  0.00  0.00    +0.012 C 
ATOM     29  C   UNL     1       4.374  -2.400  -6.433  0.00  0.00    +0.012 C 
ENDBRANCH  24  27
ENDBRANCH  10  21
BRANCH   9  30
ATOM     30  C   UNL     1       4.305  -6.973  -1.373  0.00  0.00    +0.145 C 
BRANCH  30  31
ATOM     31  C   UNL     1       4.350  -7.179  -2.865  0.00  0.00    -0.012 A 
ATOM     32  C   UNL     1       4.039  -8.415  -3.413  0.00  0.00    +0.008 A 
ATOM     33  C   UNL     1       4.095  -8.559  -4.790  0.00  0.00    +0.020 A 
ATOM     34  C   UNL     1       4.455  -7.474  -5.567  0.00  0.00    +0.111 A 
ATOM     35  N   UNL     1       4.744  -6.313  -5.012  0.00  0.00    -0.263 NA
ATOM     36  C   UNL     1       4.696  -6.138  -3.706  0.00  0.00    +0.115 A 
ENDBRANCH  30  31
ENDBRANCH   9  30
TORSDOF 6
