REMARK  Name = ZINC39698236
REMARK  0 active torsions:
REMARK  status: ('A' for Active; 'I' for Inactive)
REMARK                            x       y       z     vdW  Elec       q    Type
REMARK                         _______ _______ _______ _____ _____    ______ ____
ROOT
ATOM      1  C   UNL     1      -0.016   1.359   0.009  0.00  0.00    +0.150 A 
ATOM      2  C   UNL     1       1.146   2.049   0.002  0.00  0.00    +0.127 A 
ATOM      3  N   UNL     1       2.324   1.419  -0.013  0.00  0.00    -0.220 NA
ATOM      4  C   UNL     1       2.393   0.102  -0.020  0.00  0.00    +0.162 A 
ATOM      5  C   UNL     1       1.200  -0.659  -0.013  0.00  0.00    +0.199 A 
ATOM      6  N   UNL     1       0.002  -0.004   0.002  0.00  0.00    -0.211 N 
ATOM      7  N   UNL     1      -0.988  -0.993   0.005  0.00  0.00    -0.105 NA
ATOM      8  C   UNL     1      -0.368  -2.157  -0.007  0.00  0.00    +0.387 A 
ATOM      9  O   UNL     1      -0.979  -3.370  -0.009  0.00  0.00    -0.241 OA
ATOM     10  N   UNL     1       0.945  -1.960  -0.018  0.00  0.00    -0.168 NA
ATOM     11  N   UNL     1       3.627  -0.532  -0.036  0.00  0.00    -0.340 N 
ATOM     12 BR   UNL     1       1.105   3.939   0.012  0.00  0.00    -0.027 Br
ATOM     13  H   UNL     1       4.442  -0.007  -0.041  0.00  0.00    +0.144 HD
ATOM     14  H   UNL     1       3.674  -1.501  -0.042  0.00  0.00    +0.144 HD
ENDROOT
TORSDOF 0
