REMARK  Name = ZINC09112517
REMARK  11 active torsions:
REMARK  status: ('A' for Active; 'I' for Inactive)
REMARK    1  A    between atoms: C_1  and  C_2
REMARK    2  A    between atoms: C_4  and  C_30
REMARK    3  A    between atoms: C_6  and  N_8
REMARK    4  A    between atoms: C_12  and  S_13
REMARK    5  A    between atoms: S_13  and  C_14
REMARK    6  A    between atoms: C_14  and  C_15
REMARK    7  A    between atoms: N_17  and  C_18
REMARK    8  A    between atoms: C_20  and  S_26
REMARK    9  A    between atoms: C_22  and  C_25
REMARK   10  A    between atoms: C_23  and  C_24
REMARK   11  A    between atoms: S_26  and  N_29
REMARK                            x       y       z     vdW  Elec       q    Type
REMARK                         _______ _______ _______ _____ _____    ______ ____
ROOT
ATOM      1  C   UNL     1      -3.768  -0.635   3.093  0.00  0.00    +0.227 C 
ATOM      2  O   UNL     1      -3.146  -0.973   2.108  0.00  0.00    -0.275 OA
ATOM      3  N   UNL     1      -3.492   0.539   3.695  0.00  0.00    -0.285 N 
ATOM      4  H   UNL     1      -3.944   0.780   4.519  0.00  0.00    +0.155 HD
ENDROOT
BRANCH   3   5
ATOM      5  C   UNL     1      -2.553   1.410   3.131  0.00  0.00    +0.038 A 
ATOM      6  C   UNL     1      -1.440   0.903   2.473  0.00  0.00    +0.052 A 
ATOM      7  C   UNL     1      -0.516   1.766   1.918  0.00  0.00    +0.107 A 
ATOM      8  C   UNL     1      -0.694   3.133   2.021  0.00  0.00    +0.032 A 
ATOM      9  C   UNL     1      -1.803   3.641   2.672  0.00  0.00    -0.044 A 
ATOM     10  C   UNL     1      -2.732   2.784   3.229  0.00  0.00    -0.026 A 
ATOM     11  C   UNL     1      -3.938   3.338   3.943  0.00  0.00    +0.046 C 
ATOM     12  C   UNL     1      -1.997   5.132   2.778  0.00  0.00    +0.044 C 
BRANCH   7  13
ATOM     13  S   UNL     1       0.896   1.123   1.082  0.00  0.00    +0.056 S 
ATOM     14  O   UNL     1       1.116  -0.182   1.601  0.00  0.00    -0.153 OA
ATOM     15  O   UNL     1       1.890   2.138   1.126  0.00  0.00    -0.153 OA
BRANCH  13  16
ATOM     16  N   UNL     1       0.480   0.936  -0.510  0.00  0.00    -0.204 NA
ATOM     17  H   UNL     1       0.517   0.058  -0.921  0.00  0.00    +0.144 HD
ATOM     18  H   UNL     1       0.200   1.704  -1.031  0.00  0.00    +0.144 HD
ENDBRANCH  13  16
ENDBRANCH   7  13
ENDBRANCH   3   5
BRANCH   1  19
ATOM     19  C   UNL     1      -4.851  -1.527   3.642  0.00  0.00    +0.173 C 
BRANCH  19  20
ATOM     20  S   UNL     1      -4.981  -3.017   2.623  0.00  0.00    -0.078 S 
BRANCH  20  25
ATOM     21  N   UNL     1      -6.811  -5.061   3.121  0.00  0.00    -0.295 N 
ATOM     22  C   UNL     1      -7.796  -5.347   4.042  0.00  0.00    +0.113 A 
ATOM     23  C   UNL     1      -7.840  -4.315   4.902  0.00  0.00    +0.131 A 
ATOM     24  N   UNL     1      -6.910  -3.417   4.534  0.00  0.00    -0.230 NA
ATOM     25  C   UNL     1      -6.282  -3.853   3.467  0.00  0.00    +0.174 A 
BRANCH  21  31
ATOM     26  C   UNL     1      -5.827  -5.502  -1.678  0.00  0.00    +0.044 C 
ATOM     27  C   UNL     1      -5.940  -6.101  -0.299  0.00  0.00    -0.048 A 
ATOM     28  C   UNL     1      -5.662  -7.441  -0.103  0.00  0.00    +0.006 A 
ATOM     29  C   UNL     1      -5.765  -7.994   1.160  0.00  0.00    -0.048 A 
ATOM     30  C   UNL     1      -6.145  -7.208   2.230  0.00  0.00    +0.029 A 
ATOM     31  C   UNL     1      -6.425  -5.862   2.036  0.00  0.00    +0.049 A 
ATOM     32  C   UNL     1      -6.326  -5.311   0.766  0.00  0.00    +0.029 A 
ATOM     33  C   UNL     1      -5.461  -9.455   1.369  0.00  0.00    +0.044 C 
ENDBRANCH  21  31
ENDBRANCH  20  25
ENDBRANCH  19  20
ENDBRANCH   1  19
TORSDOF 7
