REMARK  Name = ZINC40851474
REMARK  10 active torsions:
REMARK  status: ('A' for Active; 'I' for Inactive)
REMARK    1  A    between atoms: C_1  and  C_2
REMARK    2  A    between atoms: C_4  and  C_32
REMARK    3  A    between atoms: C_5  and  N_9
REMARK    4  A    between atoms: C_6  and  C_8
REMARK    5  A    between atoms: C_10  and  C_12
REMARK    6  A    between atoms: C_12  and  C_13
REMARK    7  A    between atoms: C_13  and  S_14
REMARK    8  A    between atoms: S_14  and  C_15
REMARK    9  A    between atoms: C_22  and  C_27
REMARK   10  A    between atoms: C_24  and  C_26
REMARK                            x       y       z     vdW  Elec       q    Type
REMARK                         _______ _______ _______ _____ _____    ______ ____
ROOT
ATOM      1  C   UNL     1       1.505  -9.269   3.881  0.00  0.00    +0.106 A 
ATOM      2  C   UNL     1       1.685 -10.617   4.217  0.00  0.00    +0.006 A 
ATOM      3  C   UNL     1       2.127 -10.924   5.480  0.00  0.00    +0.051 A 
ATOM      4  N   UNL     1       2.361  -9.935   6.340  0.00  0.00    -0.215 NA
ATOM      5  C   UNL     1       2.183  -8.672   5.997  0.00  0.00    +0.253 A 
ATOM      6  N   UNL     1       1.768  -8.334   4.787  0.00  0.00    -0.204 NA
ATOM      7  N   UNL     1       2.443  -7.670   6.932  0.00  0.00    -0.202 N 
ATOM      8  C   UNL     1       2.302  -6.333   6.733  0.00  0.00    +0.045 A 
ATOM      9  C   UNL     1       2.654  -5.710   7.881  0.00  0.00    +0.048 A 
ATOM     10  C   UNL     1       3.021  -6.690   8.810  0.00  0.00    +0.061 A 
ATOM     11  N   UNL     1       2.889  -7.863   8.246  0.00  0.00    -0.169 NA
ATOM     12  C   UNL     1       3.483  -6.438  10.222  0.00  0.00    +0.067 C 
ATOM     13  C   UNL     1       1.839  -5.666   5.464  0.00  0.00    +0.066 C 
ATOM     14  C   UNL     1       2.367 -12.339   5.934  0.00  0.00    +0.056 C 
ATOM     15  C   UNL     1       1.655 -13.325   5.008  0.00  0.00    +0.006 C 
ATOM     16  C   UNL     1       2.035 -12.994   3.561  0.00  0.00    +0.005 C 
ATOM     17  C   UNL     1       1.384 -11.665   3.182  0.00  0.00    +0.039 C 
ENDROOT
BRANCH   1  18
ATOM     18  S   UNL     1       0.944  -8.818   2.273  0.00  0.00    -0.105 S 
BRANCH  18  19
ATOM     19  C   UNL     1       0.878  -7.006   2.322  0.00  0.00    +0.085 C 
BRANCH  19  20
ATOM     20  C   UNL     1       0.399  -6.476   0.969  0.00  0.00    +0.107 C 
BRANCH  20  22
ATOM     21  N   UNL     1      -0.052  -4.280  -0.077  0.00  0.00    -0.285 N 
ATOM     22  C   UNL     1       0.345  -4.970   1.011  0.00  0.00    +0.218 C 
ATOM     23  O   UNL     1       0.659  -4.380   2.022  0.00  0.00    -0.275 OA
ATOM     24  H   UNL     1      -0.370  -4.753  -0.862  0.00  0.00    +0.155 HD
BRANCH  21  29
ATOM     25  C   UNL     1       0.136   1.390  -0.065  0.00  0.00    +0.044 C 
ATOM     26  C   UNL     1       0.086  -0.116  -0.068  0.00  0.00    -0.050 A 
ATOM     27  C   UNL     1       0.759  -0.827  -1.045  0.00  0.00    +0.008 A 
ATOM     28  C   UNL     1       0.715  -2.207  -1.051  0.00  0.00    -0.029 A 
ATOM     29  C   UNL     1      -0.005  -2.882  -0.074  0.00  0.00    +0.039 A 
ATOM     30  C   UNL     1      -0.679  -2.165   0.906  0.00  0.00    -0.029 A 
ATOM     31  C   UNL     1      -0.628  -0.785   0.909  0.00  0.00    +0.008 A 
ATOM     32  C   UNL     1      -1.463  -2.893   1.968  0.00  0.00    +0.045 C 
ATOM     33  C   UNL     1       1.448  -2.981  -2.116  0.00  0.00    +0.045 C 
ENDBRANCH  21  29
ENDBRANCH  20  22
ENDBRANCH  19  20
ENDBRANCH  18  19
ENDBRANCH   1  18
TORSDOF 5
