REMARK  Name = ZINC08789870
REMARK  5 active torsions:
REMARK  status: ('A' for Active; 'I' for Inactive)
REMARK    1  A    between atoms: C_1  and  C_2
REMARK    2  A    between atoms: C_13  and  C_32
REMARK    3  A    between atoms: N_20  and  C_23
REMARK    4  A    between atoms: C_23  and  C_24
REMARK    5  A    between atoms: C_24  and  C_25
REMARK                            x       y       z     vdW  Elec       q    Type
REMARK                         _______ _______ _______ _____ _____    ______ ____
ROOT
ATOM      1  C   UNL     1       2.923  -1.013  -0.414  0.00  0.00    +0.048 C 
ATOM      2  C   UNL     1       2.407  -0.144   0.735  0.00  0.00    +0.151 C 
ATOM      3  C   UNL     1       2.485   1.307   0.323  0.00  0.00    +0.054 A 
ATOM      4  C   UNL     1       1.398   2.042  -0.000  0.00  0.00    -0.008 A 
ATOM      5  C   UNL     1       1.872   3.368  -0.341  0.00  0.00    +0.004 A 
ATOM      6  C   UNL     1       1.215   4.533  -0.749  0.00  0.00    +0.010 A 
ATOM      7  C   UNL     1       1.998   5.635  -0.990  0.00  0.00    +0.001 A 
ATOM      8  C   UNL     1       3.374   5.607  -0.840  0.00  0.00    +0.002 A 
ATOM      9  C   UNL     1       4.051   4.468  -0.438  0.00  0.00    +0.026 A 
ATOM     10  C   UNL     1       3.282   3.333  -0.187  0.00  0.00    +0.047 A 
ATOM     11  N   UNL     1       3.615   2.072   0.214  0.00  0.00    -0.356 N 
ATOM     12  H   UNL     1       4.517   1.764   0.395  0.00  0.00    +0.166 HD
ATOM     13  C   UNL     1      -0.019   1.529   0.010  0.00  0.00    +0.069 C 
ATOM     14  C   UNL     1       0.002  -0.004   0.002  0.00  0.00    +0.122 C 
ATOM     15  N   UNL     1       1.002  -0.471   0.980  0.00  0.00    -0.280 N 
ATOM     16  C   UNL     1       0.601  -1.169   2.045  0.00  0.00    +0.234 C 
ATOM     17  O   UNL     1      -0.562  -1.512   2.093  0.00  0.00    -0.274 OA
ATOM     18  C   UNL     1       1.490  -1.553   3.183  0.00  0.00    +0.203 C 
ATOM     19  N   UNL     1       2.838  -1.034   3.024  0.00  0.00    -0.290 N 
ATOM     20  C   UNL     1       3.261  -0.397   1.932  0.00  0.00    +0.245 C 
ATOM     21  O   UNL     1       4.407   0.001   1.911  0.00  0.00    -0.273 OA
ENDROOT
BRANCH  13  22
ATOM     22  C   UNL     1      -0.745   2.030  -1.211  0.00  0.00    -0.038 A 
ATOM     23  C   UNL     1      -0.275   1.714  -2.472  0.00  0.00    +0.006 A 
ATOM     24  C   UNL     1      -0.944   2.169  -3.593  0.00  0.00    +0.020 A 
ATOM     25  C   UNL     1      -2.078   2.948  -3.453  0.00  0.00    +0.041 A 
ATOM     26  C   UNL     1      -2.545   3.268  -2.191  0.00  0.00    +0.020 A 
ATOM     27  C   UNL     1      -1.878   2.809  -1.071  0.00  0.00    +0.006 A 
ATOM     28 CL   UNL     1      -2.914   3.526  -4.861  0.00  0.00    -0.084 Cl
ENDBRANCH  13  22
BRANCH  19  29
ATOM     29  C   UNL     1       3.785  -1.220   4.126  0.00  0.00    +0.113 C 
BRANCH  29  30
ATOM     30  C   UNL     1       3.697  -0.028   5.082  0.00  0.00    +0.054 C 
BRANCH  30  31
ATOM     31  C   UNL     1       4.672  -0.220   6.215  0.00  0.00    -0.046 A 
ATOM     32  C   UNL     1       4.271  -0.871   7.367  0.00  0.00    +0.006 A 
ATOM     33  C   UNL     1       5.165  -1.052   8.405  0.00  0.00    +0.038 A 
ATOM     34  C   UNL     1       6.459  -0.573   8.296  0.00  0.00    +0.123 A 
ATOM     35  C   UNL     1       6.858   0.084   7.143  0.00  0.00    +0.038 A 
ATOM     36  C   UNL     1       5.963   0.259   6.104  0.00  0.00    +0.006 A 
ATOM     37  F   UNL     1       7.333  -0.745   9.312  0.00  0.00    -0.205 F 
ENDBRANCH  30  31
ENDBRANCH  29  30
ENDBRANCH  19  29
TORSDOF 4
