REMARK  Name = ZINC08313083
REMARK  7 active torsions:
REMARK  status: ('A' for Active; 'I' for Inactive)
REMARK    1  A    between atoms: C_1  and  C_2
REMARK    2  A    between atoms: C_2  and  C_4
REMARK    3  A    between atoms: C_2  and  S_19
REMARK    4  A    between atoms: N_6  and  C_7
REMARK    5  A    between atoms: C_8  and  C_17
REMARK    6  A    between atoms: S_19  and  C_20
REMARK    7  A    between atoms: N_24  and  C_25
REMARK                            x       y       z     vdW  Elec       q    Type
REMARK                         _______ _______ _______ _____ _____    ______ ____
ROOT
ATOM      1  C   UNL     1      -1.405  -0.526   0.137  0.00  0.00    +0.231 C 
ATOM      2  O   UNL     1      -2.342   0.158  -0.216  0.00  0.00    -0.274 OA
ATOM      3  N   UNL     1      -1.622  -1.754   0.648  0.00  0.00    -0.278 N 
ATOM      4  H   UNL     1      -0.873  -2.302   0.930  0.00  0.00    +0.155 HD
ENDROOT
BRANCH   3   5
ATOM      5  C   UNL     1      -2.918  -2.235   0.772  0.00  0.00    +0.090 A 
ATOM      6  C   UNL     1      -3.339  -3.458   1.268  0.00  0.00    +0.084 A 
ATOM      7  C   UNL     1      -4.771  -3.723   1.294  0.00  0.00    -0.018 A 
ATOM      8  C   UNL     1      -5.543  -2.726   0.811  0.00  0.00    -0.004 A 
ATOM      9  S   UNL     1      -4.403  -1.450   0.350  0.00  0.00    -0.077 S 
ATOM     10  C   UNL     1      -7.035  -2.699   0.689  0.00  0.00    +0.043 C 
ATOM     11  C   UNL     1      -7.658  -3.139   2.020  0.00  0.00    +0.005 C 
ATOM     12  C   UNL     1      -7.829  -4.655   1.998  0.00  0.00    +0.001 C 
ATOM     13  C   UNL     1      -6.704  -5.298   1.190  0.00  0.00    +0.005 C 
ATOM     14  C   UNL     1      -5.353  -5.021   1.840  0.00  0.00    +0.037 C 
BRANCH   6  15
ATOM     15  C   UNL     1      -2.398  -4.428   1.741  0.00  0.00    +0.102 C 
ATOM     16  N   UNL     1      -1.652  -5.198   2.116  0.00  0.00    -0.191 NA
ENDBRANCH   6  15
ENDBRANCH   3   5
BRANCH   1  18
ATOM     17  C   UNL     1       0.606  -0.499  -1.314  0.00  0.00    +0.029 C 
ATOM     18  C   UNL     1       0.002  -0.004   0.002  0.00  0.00    +0.137 C 
BRANCH  18  19
ATOM     19  S   UNL     1      -0.022   1.806   0.012  0.00  0.00    -0.072 S 
BRANCH  19  20
ATOM     20  C   UNL     1       1.708   2.135  -0.003  0.00  0.00    +0.210 A 
ATOM     21  N   UNL     1       2.674   1.242  -0.017  0.00  0.00    -0.102 NA
ATOM     22  N   UNL     1       3.821   1.820  -0.025  0.00  0.00    -0.022 NA
ATOM     23  N   UNL     1       3.678   3.101  -0.016  0.00  0.00    -0.043 NA
ATOM     24  N   UNL     1       2.295   3.356  -0.007  0.00  0.00    -0.223 N 
ATOM     25  C   UNL     1       1.631   4.662  -0.001  0.00  0.00    +0.177 C 
ENDBRANCH  19  20
ENDBRANCH  18  19
ENDBRANCH   1  18
TORSDOF 5
