REMARK  Name = ZINC36028071
REMARK  9 active torsions:
REMARK  status: ('A' for Active; 'I' for Inactive)
REMARK    1  A    between atoms: C_1  and  C_2
REMARK    2  A    between atoms: C_2  and  C_3
REMARK    3  A    between atoms: C_3  and  C_5
REMARK    4  A    between atoms: C_3  and  C_6
REMARK    5  A    between atoms: N_10  and  C_31
REMARK    6  A    between atoms: N_15  and  S_18
REMARK    7  A    between atoms: S_18  and  C_21
REMARK    8  A    between atoms: C_25  and  C_27
REMARK    9  A    between atoms: C_31  and  C_32
REMARK                            x       y       z     vdW  Elec       q    Type
REMARK                         _______ _______ _______ _____ _____    ______ ____
ROOT
ATOM      1  C   UNL     1      -1.505  -2.000  -0.163  0.00  0.00    +0.022 C 
ATOM      2  C   UNL     1      -0.943  -2.350  -1.523  0.00  0.00    +0.201 C 
ATOM      3  O   UNL     1      -0.059  -1.752  -2.100  0.00  0.00    -0.277 OA
ATOM      4  N   UNL     1      -1.590  -3.439  -1.986  0.00  0.00    -0.306 N 
ATOM      5  C   UNL     1      -2.584  -3.874  -1.001  0.00  0.00    +0.006 C 
ATOM      6  N   UNL     1      -2.792  -2.733  -0.083  0.00  0.00    +0.401 N 
ATOM      7  C   UNL     1      -2.059  -5.075  -0.216  0.00  0.00    +0.023 C 
ATOM      8  C   UNL     1      -1.807  -6.240  -1.179  0.00  0.00    +0.109 C 
ATOM      9  N   UNL     1      -3.036  -6.497  -1.942  0.00  0.00    -0.177 NA
ATOM     10  C   UNL     1      -3.662  -5.385  -2.671  0.00  0.00    +0.109 C 
ATOM     11  C   UNL     1      -3.898  -4.227  -1.695  0.00  0.00    +0.023 C 
ATOM     12  H   UNL     1      -2.960  -3.056   0.858  0.00  0.00    -0.082 HD
ATOM     13  H   UNL     1      -3.553  -2.153  -0.403  0.00  0.00    -0.082 HD
ENDROOT
BRANCH   9  14
ATOM     14  S   UNL     1      -3.705  -8.011  -1.980  0.00  0.00    +0.061 S 
ATOM     15  O   UNL     1      -4.481  -8.083  -3.168  0.00  0.00    -0.153 OA
ATOM     16  O   UNL     1      -2.654  -8.926  -1.700  0.00  0.00    -0.153 OA
BRANCH  14  17
ATOM     17  C   UNL     1      -4.835  -8.116  -0.632  0.00  0.00    +0.106 A 
ATOM     18  C   UNL     1      -4.399  -8.556   0.604  0.00  0.00    +0.028 A 
ATOM     19  C   UNL     1      -5.287  -8.638   1.660  0.00  0.00    +0.002 A 
ATOM     20  C   UNL     1      -6.610  -8.279   1.482  0.00  0.00    +0.012 A 
ATOM     21  C   UNL     1      -7.045  -7.838   0.247  0.00  0.00    +0.057 A 
ATOM     22  C   UNL     1      -6.157  -7.752  -0.809  0.00  0.00    +0.041 A 
BRANCH  21  23
ATOM     23  C   UNL     1      -8.488  -7.447   0.052  0.00  0.00    +0.417 C 
ATOM     24  F   UNL     1      -9.183  -7.614   1.254  0.00  0.00    -0.166 F 
ATOM     25  F   UNL     1      -8.558  -6.107  -0.345  0.00  0.00    -0.166 F 
ATOM     26  F   UNL     1      -9.061  -8.256  -0.935  0.00  0.00    -0.166 F 
ENDBRANCH  21  23
ENDBRANCH  14  17
ENDBRANCH   9  14
BRANCH   1  27
ATOM     27  C   UNL     1      -1.743  -0.492  -0.056  0.00  0.00    -0.020 C 
ATOM     28  C   UNL     1      -2.380  -0.171   1.298  0.00  0.00    +0.006 C 
BRANCH  27  30
ATOM     29  C   UNL     1      -0.658   1.754  -0.199  0.00  0.00    +0.004 C 
ATOM     30  C   UNL     1      -0.408   0.244  -0.180  0.00  0.00    -0.001 C 
ENDBRANCH  27  30
ENDBRANCH   1  27
BRANCH   4  31
ATOM     31  C   UNL     1      -1.339  -4.088  -3.276  0.00  0.00    +0.180 C 
BRANCH  31  32
ATOM     32  C   UNL     1      -2.143  -3.400  -4.349  0.00  0.00    +0.122 A 
ATOM     33  C   UNL     1      -1.698  -2.428  -5.165  0.00  0.00    +0.046 A 
ATOM     34  C   UNL     1      -2.776  -2.076  -6.009  0.00  0.00    +0.041 A 
ATOM     35  C   UNL     1      -3.816  -2.855  -5.659  0.00  0.00    +0.195 A 
ATOM     36  O   UNL     1      -3.425  -3.659  -4.657  0.00  0.00    -0.466 OA
ENDBRANCH  31  32
ENDBRANCH   4  31
TORSDOF 7
