REMARK  Name = ZINC37263939
REMARK  13 active torsions:
REMARK  status: ('A' for Active; 'I' for Inactive)
REMARK    1  A    between atoms: C_1  and  C_2
REMARK    2  A    between atoms: C_7  and  C_8
REMARK    3  A    between atoms: C_11  and  C_35
REMARK    4  A    between atoms: N_13  and  C_28
REMARK    5  A    between atoms: N_15  and  C_20
REMARK    6  A    between atoms: C_20  and  C_21
REMARK    7  A    between atoms: N_23  and  C_24
REMARK    8  A    between atoms: C_24  and  C_25
REMARK    9  A    between atoms: C_25  and  C_26
REMARK   10  A    between atoms: C_25  and  C_27
REMARK   11  A    between atoms: C_35  and  C_36
REMARK   12  A    between atoms: C_35  and  C_37
REMARK   13  A    between atoms: C_35  and  C_38
REMARK                            x       y       z     vdW  Elec       q    Type
REMARK                         _______ _______ _______ _____ _____    ______ ____
ROOT
ATOM      1  C   UNL     1       1.416  -2.392   1.205  0.00  0.00    +0.112 C 
ATOM      2  C   UNL     1       1.901  -1.508   2.325  0.00  0.00    +0.034 A 
ATOM      3  C   UNL     1       2.143  -0.134   2.275  0.00  0.00    +0.075 A 
ATOM      4  N   UNL     1       2.557   0.254   3.457  0.00  0.00    -0.169 NA
ATOM      5  N   UNL     1       2.592  -0.866   4.304  0.00  0.00    -0.218 N 
ATOM      6  C   UNL     1       2.181  -1.933   3.579  0.00  0.00    +0.136 A 
ATOM      7  N   UNL     1       2.043  -3.264   4.002  0.00  0.00    -0.246 N 
ATOM      8  C   UNL     1       0.905  -3.907   3.722  0.00  0.00    +0.231 C 
ATOM      9  O   UNL     1       0.862  -5.117   3.792  0.00  0.00    -0.274 OA
ATOM     10  C   UNL     1      -0.319  -3.138   3.322  0.00  0.00    +0.166 C 
ATOM     11  S   UNL     1      -0.329  -2.838   1.521  0.00  0.00    -0.138 S 
ENDROOT
BRANCH   1  18
ATOM     12  C   UNL     1       3.733  -2.758  -0.481  0.00  0.00    +0.044 C 
ATOM     13  C   UNL     1       2.629  -1.828  -0.911  0.00  0.00    -0.046 A 
ATOM     14  C   UNL     1       2.722  -1.154  -2.114  0.00  0.00    +0.003 A 
ATOM     15  C   UNL     1       1.708  -0.300  -2.508  0.00  0.00    +0.000 A 
ATOM     16  C   UNL     1       0.602  -0.120  -1.699  0.00  0.00    +0.000 A 
ATOM     17  C   UNL     1       0.509  -0.795  -0.496  0.00  0.00    +0.005 A 
ATOM     18  C   UNL     1       1.520  -1.652  -0.104  0.00  0.00    -0.027 A 
ENDBRANCH   1  18
BRANCH   5  19
ATOM     19  C   UNL     1       2.982  -0.877   5.651  0.00  0.00    +0.068 A 
ATOM     20  C   UNL     1       2.136  -1.410   6.614  0.00  0.00    +0.030 A 
ATOM     21  C   UNL     1       2.522  -1.420   7.941  0.00  0.00    +0.040 A 
ATOM     22  C   UNL     1       3.751  -0.898   8.309  0.00  0.00    +0.124 A 
ATOM     23  C   UNL     1       4.595  -0.365   7.350  0.00  0.00    +0.040 A 
ATOM     24  C   UNL     1       4.216  -0.360   6.022  0.00  0.00    +0.030 A 
ATOM     25  F   UNL     1       4.125  -0.908   9.607  0.00  0.00    -0.205 F 
ENDBRANCH   5  19
BRANCH   3  26
ATOM     26  C   UNL     1       1.961   0.751   1.069  0.00  0.00    +0.007 C 
ATOM     27  C   UNL     1       0.467   0.960   0.810  0.00  0.00    +0.017 C 
ATOM     28  C   UNL     1       2.628   2.104   1.324  0.00  0.00    +0.017 C 
ATOM     29  C   UNL     1       2.602   0.088  -0.152  0.00  0.00    +0.017 C 
ENDBRANCH   3  26
BRANCH   7  30
ATOM     30  C   UNL     1       3.122  -3.933   4.732  0.00  0.00    +0.210 C 
BRANCH  30  31
ATOM     31  C   UNL     1       4.038  -4.623   3.755  0.00  0.00    +0.231 C 
ATOM     32  O   UNL     1       3.862  -4.491   2.562  0.00  0.00    -0.274 OA
ATOM     33  N   UNL     1       5.053  -5.386   4.205  0.00  0.00    -0.314 N 
ATOM     34  H   UNL     1       5.148  -5.555   5.156  0.00  0.00    +0.149 HD
BRANCH  33  35
ATOM     35  C   UNL     1       6.014  -5.960   3.260  0.00  0.00    +0.107 C 
BRANCH  35  36
ATOM     36  C   UNL     1       6.996  -6.859   4.014  0.00  0.00    -0.000 C 
ATOM     37  C   UNL     1       7.920  -7.556   3.013  0.00  0.00    +0.009 C 
ATOM     38  C   UNL     1       7.831  -6.010   4.974  0.00  0.00    +0.009 C 
ENDBRANCH  35  36
ENDBRANCH  33  35
ENDBRANCH  30  31
ENDBRANCH   7  30
TORSDOF 7
