REMARK  Name = ZINC35523047
REMARK  4 active torsions:
REMARK  status: ('A' for Active; 'I' for Inactive)
REMARK    1  A    between atoms: C_5  and  C_7
REMARK    2  A    between atoms: N_16  and  C_17
REMARK    3  A    between atoms: C_17  and  C_18
REMARK    4  A    between atoms: C_23  and  N_26
REMARK                            x       y       z     vdW  Elec       q    Type
REMARK                         _______ _______ _______ _____ _____    ______ ____
ROOT
ATOM      1  C   UNL     1      -1.553  -2.666  -2.479  0.00  0.00    +0.230 C 
ATOM      2  O   UNL     1      -2.363  -3.138  -1.710  0.00  0.00    -0.274 OA
ATOM      3  N   UNL     1      -1.900  -2.426  -3.759  0.00  0.00    -0.300 N 
ATOM      4  C   UNL     1      -0.928  -1.860  -4.705  0.00  0.00    +0.110 C 
ATOM      5  C   UNL     1      -1.538  -0.612  -5.350  0.00  0.00    +0.044 C 
ATOM      6  C   UNL     1      -2.886  -0.973  -5.976  0.00  0.00    +0.095 C 
ATOM      7  C   UNL     1      -3.840  -1.468  -4.887  0.00  0.00    +0.044 C 
ATOM      8  C   UNL     1      -3.256  -2.731  -4.237  0.00  0.00    +0.110 C 
ENDROOT
BRANCH   6   9
ATOM      9  N   UNL     1      -3.457   0.211  -6.623  0.00  0.00    -0.289 N 
ATOM     10  C   UNL     1      -3.779   0.327  -7.974  0.00  0.00    +0.070 A 
ATOM     11  C   UNL     1      -3.682  -0.539  -9.052  0.00  0.00    +0.028 A 
ATOM     12  C   UNL     1      -4.093  -0.125 -10.304  0.00  0.00    +0.002 A 
ATOM     13  C   UNL     1      -4.601   1.150 -10.487  0.00  0.00    +0.002 A 
ATOM     14  C   UNL     1      -4.700   2.019  -9.419  0.00  0.00    +0.028 A 
ATOM     15  C   UNL     1      -4.291   1.613  -8.158  0.00  0.00    +0.067 A 
ATOM     16  N   UNL     1      -4.264   2.239  -6.913  0.00  0.00    -0.306 N 
ATOM     17  H   UNL     1      -4.559   3.144  -6.727  0.00  0.00    +0.170 HD
ATOM     18  C   UNL     1      -3.765   1.371  -6.013  0.00  0.00    +0.328 A 
ATOM     19  O   UNL     1      -3.612   1.602  -4.828  0.00  0.00    -0.247 OA
ENDBRANCH   6   9
BRANCH   1  20
ATOM     20  C   UNL     1      -0.159  -2.348  -2.004  0.00  0.00    +0.181 C 
BRANCH  20  29
ATOM     21  C   UNL     1       1.229  -2.186  -0.022  0.00  0.00    +0.136 C 
ATOM     22  C   UNL     1       1.356  -2.703   1.391  0.00  0.00    +0.041 A 
ATOM     23  C   UNL     1       2.179  -2.274   2.359  0.00  0.00    +0.024 A 
ATOM     24  C   UNL     1       1.930  -3.063   3.502  0.00  0.00    +0.019 A 
ATOM     25  C   UNL     1       0.960  -3.947   3.182  0.00  0.00    +0.086 A 
ATOM     26  N   UNL     1       0.605  -3.734   1.889  0.00  0.00    -0.348 N 
ATOM     27  C   UNL     1      -0.402  -4.453   1.098  0.00  0.00    +0.137 C 
ATOM     28  C   UNL     1      -0.153  -4.149  -0.384  0.00  0.00    +0.107 C 
ATOM     29  N   UNL     1      -0.034  -2.698  -0.583  0.00  0.00    -0.280 NA
BRANCH  21  34
ATOM     30  C   UNL     1      -0.017   1.378   0.010  0.00  0.00    +0.000 A 
ATOM     31  C   UNL     1       1.171   2.086   0.002  0.00  0.00    +0.001 A 
ATOM     32  C   UNL     1       2.377   1.412  -0.013  0.00  0.00    +0.020 A 
ATOM     33  C   UNL     1       2.397   0.029  -0.021  0.00  0.00    +0.046 A 
ATOM     34  C   UNL     1       1.208  -0.679  -0.013  0.00  0.00    -0.006 A 
ATOM     35  C   UNL     1       0.002  -0.004   0.002  0.00  0.00    +0.007 A 
ATOM     36 CL   UNL     1       3.912  -0.818  -0.041  0.00  0.00    -0.083 Cl
ENDBRANCH  21  34
ENDBRANCH  20  29
ENDBRANCH   1  20
TORSDOF 4
