REMARK  Name = ZINC20018649
REMARK  11 active torsions:
REMARK  status: ('A' for Active; 'I' for Inactive)
REMARK    1  A    between atoms: C_1  and  C_2
REMARK    2  A    between atoms: C_2  and  C_4
REMARK    3  A    between atoms: C_2  and  N_11
REMARK    4  A    between atoms: C_12  and  C_14
REMARK    5  A    between atoms: N_17  and  S_20
REMARK    6  A    between atoms: S_20  and  C_23
REMARK    7  A    between atoms: C_25  and  C_31
REMARK    8  A    between atoms: C_28  and  O_29
REMARK    9  A    between atoms: O_29  and  C_30
REMARK   10  A    between atoms: C_31  and  C_32
REMARK   11  A    between atoms: C_31  and  C_33
REMARK                            x       y       z     vdW  Elec       q    Type
REMARK                         _______ _______ _______ _____ _____    ______ ____
ROOT
ATOM      1  C   UNL     1       0.712  -1.094  -3.598  0.00  0.00    +0.077 C 
ATOM      2  C   UNL     1       1.851  -0.133  -3.947  0.00  0.00    +0.030 C 
ATOM      3  C   UNL     1       2.587  -0.649  -5.187  0.00  0.00    +0.110 C 
ATOM      4  N   UNL     1       1.612  -0.846  -6.268  0.00  0.00    -0.176 NA
ATOM      5  C   UNL     1       0.430  -1.680  -6.010  0.00  0.00    +0.110 C 
ATOM      6  C   UNL     1      -0.282  -1.153  -4.761  0.00  0.00    +0.030 C 
ENDROOT
BRANCH   1   8
ATOM      7  N   UNL     1       0.688  -0.476  -1.203  0.00  0.00    -0.309 N 
ATOM      8  C   UNL     1       0.006  -0.608  -2.358  0.00  0.00    +0.217 C 
ATOM      9  O   UNL     1      -1.175  -0.336  -2.400  0.00  0.00    -0.275 OA
ATOM     10  H   UNL     1       1.632  -0.695  -1.170  0.00  0.00    +0.149 HD
BRANCH   7  12
ATOM     11  C   UNL     1      -0.019   1.526   0.010  0.00  0.00    +0.033 C 
ATOM     12  C   UNL     1       0.002  -0.004   0.002  0.00  0.00    +0.100 C 
BRANCH  12  13
ATOM     13  C   UNL     1       0.731  -0.503   1.223  0.00  0.00    -0.026 A 
ATOM     14  C   UNL     1       2.113  -0.514   1.247  0.00  0.00    +0.005 A 
ATOM     15  C   UNL     1       2.782  -0.971   2.366  0.00  0.00    +0.001 A 
ATOM     16  C   UNL     1       2.070  -1.419   3.463  0.00  0.00    +0.015 A 
ATOM     17  C   UNL     1       0.687  -1.409   3.440  0.00  0.00    +0.018 A 
ATOM     18  C   UNL     1       0.018  -0.945   2.321  0.00  0.00    +0.020 A 
ATOM     19 BR   UNL     1      -0.289  -2.021   4.939  0.00  0.00    -0.050 Br
ENDBRANCH  12  13
ENDBRANCH   7  12
ENDBRANCH   1   8
BRANCH   4  20
ATOM     20  S   UNL     1       1.840  -0.141  -7.749  0.00  0.00    +0.064 S 
ATOM     21  O   UNL     1       0.556  -0.031  -8.349  0.00  0.00    -0.153 OA
ATOM     22  O   UNL     1       2.681   0.985  -7.538  0.00  0.00    -0.153 OA
BRANCH  20  23
ATOM     23  C   UNL     1       2.759  -1.279  -8.732  0.00  0.00    +0.147 A 
ATOM     24  C   UNL     1       2.188  -1.837  -9.860  0.00  0.00    +0.036 A 
ATOM     25  C   UNL     1       2.908  -2.730 -10.631  0.00  0.00    -0.043 A 
ATOM     26  C   UNL     1       4.202  -3.067 -10.276  0.00  0.00    +0.007 A 
ATOM     27  C   UNL     1       4.777  -2.511  -9.150  0.00  0.00    +0.048 A 
ATOM     28  C   UNL     1       4.058  -1.611  -8.377  0.00  0.00    +0.146 A 
BRANCH  25  29
ATOM     29  C   UNL     1       2.283  -3.338 -11.860  0.00  0.00    +0.013 C 
ATOM     30  C   UNL     1       3.113  -2.967 -13.091  0.00  0.00    +0.012 C 
ATOM     31  C   UNL     1       2.242  -4.860 -11.711  0.00  0.00    +0.012 C 
ENDBRANCH  25  29
BRANCH  28  32
ATOM     32  O   UNL     1       4.624  -1.058  -7.272  0.00  0.00    -0.493 OA
ATOM     33  C   UNL     1       5.965  -1.446  -6.967  0.00  0.00    +0.277 C 
ENDBRANCH  28  32
ENDBRANCH  20  23
ENDBRANCH   4  20
TORSDOF 7
