REMARK  Name = ZINC40083314
REMARK  12 active torsions:
REMARK  status: ('A' for Active; 'I' for Inactive)
REMARK    1  A    between atoms: C_1  and  C_2
REMARK    2  A    between atoms: C_4  and  O_30
REMARK    3  A    between atoms: C_7  and  C_8
REMARK    4  A    between atoms: C_8  and  C_10
REMARK    5  A    between atoms: N_14  and  C_26
REMARK    6  A    between atoms: C_15  and  C_17
REMARK    7  A    between atoms: C_22  and  O_23
REMARK    8  A    between atoms: O_23  and  C_24
REMARK    9  A    between atoms: C_26  and  C_27
REMARK   10  A    between atoms: C_27  and  O_28
REMARK   11  A    between atoms: O_30  and  C_31
REMARK   12  A    between atoms: C_31  and  C_32
REMARK                            x       y       z     vdW  Elec       q    Type
REMARK                         _______ _______ _______ _____ _____    ______ ____
ROOT
ATOM      1  C   UNL     1       0.386  -0.928   3.694  0.00  0.00    +0.076 C 
ATOM      2  C   UNL     1       0.175  -0.567   4.981  0.00  0.00    +0.249 C 
ATOM      3  C   UNL     1       0.117  -1.780   5.823  0.00  0.00    +0.288 C 
ATOM      4  O   UNL     1      -0.061  -1.787   7.025  0.00  0.00    -0.266 OA
ATOM      5  N   UNL     1       0.290  -2.876   5.062  0.00  0.00    -0.281 N 
ATOM      6  C   UNL     1       0.466  -2.437   3.672  0.00  0.00    +0.148 C 
ATOM      7  O   UNL     1       0.040   0.704   5.426  0.00  0.00    -0.282 OA
ENDROOT
BRANCH   6   8
ATOM      8  C   UNL     1      -0.630  -3.001   2.805  0.00  0.00    +0.020 A 
ATOM      9  C   UNL     1      -1.952  -2.707   3.082  0.00  0.00    +0.024 A 
ATOM     10  C   UNL     1      -2.958  -3.224   2.286  0.00  0.00    +0.018 A 
ATOM     11  C   UNL     1      -2.643  -4.037   1.212  0.00  0.00    +0.019 A 
ATOM     12  C   UNL     1      -1.324  -4.333   0.931  0.00  0.00    +0.047 A 
ATOM     13  C   UNL     1      -0.313  -3.811   1.725  0.00  0.00    +0.125 A 
ATOM     14 BR   UNL     1      -4.765  -2.821   2.668  0.00  0.00    -0.050 Br
BRANCH  13  15
ATOM     15  O   UNL     1       0.987  -4.097   1.448  0.00  0.00    -0.495 OA
ATOM     16  C   UNL     1       1.245  -4.866   0.271  0.00  0.00    +0.277 C 
ENDBRANCH  13  15
ENDBRANCH   6   8
BRANCH   1  17
ATOM     17  C   UNL     1       0.507  -0.029   2.542  0.00  0.00    +0.195 C 
ATOM     18  O   UNL     1       0.328   1.167   2.681  0.00  0.00    -0.287 OA
BRANCH  17  25
ATOM     19  C   UNL     1       3.248  -0.741   1.950  0.00  0.00    +0.044 C 
ATOM     20  C   UNL     1       2.168  -0.922   0.915  0.00  0.00    -0.036 A 
ATOM     21  C   UNL     1       2.479  -1.436  -0.324  0.00  0.00    +0.049 A 
ATOM     22  C   UNL     1       1.484  -1.604  -1.280  0.00  0.00    +0.121 A 
ATOM     23  C   UNL     1       0.169  -1.253  -0.989  0.00  0.00    +0.046 A 
ATOM     24  C   UNL     1      -0.151  -0.739   0.247  0.00  0.00    +0.015 A 
ATOM     25  C   UNL     1       0.847  -0.574   1.213  0.00  0.00    +0.025 A 
BRANCH  22  26
ATOM     26  O   UNL     1       1.795  -2.110  -2.500  0.00  0.00    -0.488 OA
BRANCH  26  27
ATOM     27  C   UNL     1       0.747  -2.153  -3.471  0.00  0.00    +0.256 C 
BRANCH  27  28
ATOM     28  C   UNL     1       1.248  -2.833  -4.719  0.00  0.00    +0.006 C 
ATOM     29  C   UNL     1       0.507  -3.735  -5.314  0.00  0.00    +0.007 C 
ENDBRANCH  27  28
ENDBRANCH  26  27
ENDBRANCH  22  26
ENDBRANCH  17  25
ENDBRANCH   1  17
BRANCH   5  30
ATOM     30  C   UNL     1       0.297  -4.262   5.535  0.00  0.00    +0.137 C 
BRANCH  30  31
ATOM     31  C   UNL     1      -1.142  -4.768   5.652  0.00  0.00    +0.175 C 
BRANCH  31  32
ATOM     32  O   UNL     1      -1.716  -4.877   4.348  0.00  0.00    -0.393 OA
ATOM     33  H   UNL     1      -2.651  -5.125   4.348  0.00  0.00    +0.209 HD
ENDBRANCH  31  32
ENDBRANCH  30  31
ENDBRANCH   5  30
TORSDOF 10
