REMARK  Name = ZINC00746137
REMARK  17 active torsions:
REMARK  status: ('A' for Active; 'I' for Inactive)
REMARK    1  A    between atoms: C_1  and  C_2
REMARK    2  A    between atoms: C_2  and  C_3
REMARK    3  A    between atoms: C_2  and  C_4
REMARK    4  A    between atoms: C_2  and  C_5
REMARK    5  A    between atoms: C_8  and  C_11
REMARK    6  A    between atoms: C_14  and  C_18
REMARK    7  A    between atoms: N_20  and  C_21
REMARK    8  A    between atoms: C_21  and  C_22
REMARK    9  A    between atoms: C_21  and  C_23
REMARK   10  A    between atoms: C_21  and  C_24
REMARK   11  A    between atoms: C_25  and  C_27
REMARK   12  A    between atoms: C_29  and  O_37
REMARK   13  A    between atoms: C_30  and  O_35
REMARK   14  A    between atoms: C_31  and  O_33
REMARK   15  A    between atoms: O_33  and  C_34
REMARK   16  A    between atoms: O_35  and  C_36
REMARK   17  A    between atoms: O_37  and  C_38
REMARK                            x       y       z     vdW  Elec       q    Type
REMARK                         _______ _______ _______ _____ _____    ______ ____
ROOT
ATOM      1  C   UNL     1       3.151  -0.685  -3.799  0.00  0.00    +0.166 C 
ATOM      2  N   UNL     1       4.331  -0.185  -4.531  0.00  0.00    -0.269 N 
ATOM      3  C   UNL     1       5.360  -1.174  -4.841  0.00  0.00    +0.173 C 
ATOM      4  C   UNL     1       4.728  -2.580  -5.063  0.00  0.00    +0.103 C 
ATOM      5  S   UNL     1       3.428  -2.506  -3.744  0.00  0.00    -0.131 S 
ATOM      6  C   UNL     1       4.452   1.107  -4.892  0.00  0.00    +0.249 C 
ATOM      7  O   UNL     1       5.382   1.459  -5.591  0.00  0.00    -0.270 OA
ENDROOT
BRANCH   1  11
ATOM      8  C   UNL     1       3.023   0.940   0.149  0.00  0.00    -0.042 A 
ATOM      9  C   UNL     1       1.847   0.657  -0.521  0.00  0.00    +0.004 A 
ATOM     10  C   UNL     1       1.889   0.132  -1.799  0.00  0.00    +0.006 A 
ATOM     11  C   UNL     1       3.106  -0.111  -2.407  0.00  0.00    -0.017 A 
ATOM     12  C   UNL     1       4.282   0.172  -1.737  0.00  0.00    +0.006 A 
ATOM     13  C   UNL     1       4.240   0.702  -0.461  0.00  0.00    +0.004 A 
BRANCH   8  15
ATOM     14  C   UNL     1       3.670   2.877   1.555  0.00  0.00    +0.015 C 
ATOM     15  C   UNL     1       2.977   1.513   1.542  0.00  0.00    -0.013 C 
ATOM     16  C   UNL     1       3.695   0.567   2.507  0.00  0.00    +0.015 C 
ATOM     17  C   UNL     1       1.520   1.677   1.979  0.00  0.00    +0.015 C 
ENDBRANCH   8  15
ENDBRANCH   1  11
BRANCH   6  18
ATOM     18  C   UNL     1       3.455   2.097  -4.438  0.00  0.00    +0.044 A 
ATOM     19  C   UNL     1       3.874   3.325  -3.919  0.00  0.00    +0.062 A 
ATOM     20  C   UNL     1       2.938   4.250  -3.495  0.00  0.00    +0.166 A 
ATOM     21  C   UNL     1       1.580   3.958  -3.584  0.00  0.00    +0.204 A 
ATOM     22  C   UNL     1       1.160   2.735  -4.100  0.00  0.00    +0.166 A 
ATOM     23  C   UNL     1       2.091   1.810  -4.532  0.00  0.00    +0.062 A 
BRANCH  22  24
ATOM     24  O   UNL     1      -0.168   2.454  -4.186  0.00  0.00    -0.491 OA
ATOM     25  C   UNL     1      -0.526   1.143  -4.628  0.00  0.00    +0.277 C 
ENDBRANCH  22  24
BRANCH  21  26
ATOM     26  O   UNL     1       0.662   4.869  -3.166  0.00  0.00    -0.488 OA
ATOM     27  C   UNL     1       0.192   5.809  -4.135  0.00  0.00    +0.277 C 
ENDBRANCH  21  26
BRANCH  20  28
ATOM     28  O   UNL     1       3.345   5.445  -2.990  0.00  0.00    -0.491 OA
ATOM     29  C   UNL     1       4.747   5.722  -3.028  0.00  0.00    +0.277 C 
ENDBRANCH  20  28
ENDBRANCH   6  18
BRANCH   3  30
ATOM     30  C   UNL     1       6.088  -0.756  -6.093  0.00  0.00    +0.235 C 
ATOM     31  O   UNL     1       5.505  -0.134  -6.955  0.00  0.00    -0.274 OA
ATOM     32  N   UNL     1       7.388  -1.074  -6.254  0.00  0.00    -0.309 N 
ATOM     33  H   UNL     1       7.855  -1.572  -5.564  0.00  0.00    +0.149 HD
BRANCH  32  34
ATOM     34  C   UNL     1       8.096  -0.668  -7.470  0.00  0.00    +0.026 C 
ATOM     35  C   UNL     1       8.071   0.857  -7.590  0.00  0.00    +0.031 C 
ATOM     36  C   UNL     1       9.546  -1.150  -7.402  0.00  0.00    +0.031 C 
ATOM     37  C   UNL     1       7.410  -1.286  -8.690  0.00  0.00    +0.031 C 
ENDBRANCH  32  34
ENDBRANCH   3  30
TORSDOF 8
