REMARK  Name = ZINC09251290
REMARK  9 active torsions:
REMARK  status: ('A' for Active; 'I' for Inactive)
REMARK    1  A    between atoms: C_1  and  C_2
REMARK    2  A    between atoms: C_2  and  C_3
REMARK    3  A    between atoms: C_3  and  C_4
REMARK    4  A    between atoms: C_4  and  C_5
REMARK    5  A    between atoms: C_4  and  C_8
REMARK    6  A    between atoms: C_5  and  C_6
REMARK    7  A    between atoms: C_6  and  C_7
REMARK    8  A    between atoms: N_10  and  C_11
REMARK    9  A    between atoms: C_19  and  C_20
REMARK                            x       y       z     vdW  Elec       q    Type
REMARK                         _______ _______ _______ _____ _____    ______ ____
ROOT
ATOM      1  C   UNL     1       0.864   3.462   0.184  0.00  0.00    +0.092 A 
ATOM      2  C   UNL     1       1.209   2.095   0.591  0.00  0.00    +0.042 A 
ATOM      3  C   UNL     1       2.389   1.473   1.003  0.00  0.00    +0.013 A 
ATOM      4  C   UNL     1       2.379   0.144   1.322  0.00  0.00    +0.001 A 
ATOM      5  C   UNL     1       1.204  -0.590   1.240  0.00  0.00    +0.004 A 
ATOM      6  C   UNL     1       0.029   0.006   0.836  0.00  0.00    +0.047 A 
ATOM      7  C   UNL     1       0.015   1.357   0.506  0.00  0.00    +0.138 A 
ATOM      8  O   UNL     1      -0.956   2.192   0.084  0.00  0.00    -0.448 OA
ATOM      9  C   UNL     1      -0.473   3.440  -0.106  0.00  0.00    +0.212 A 
ENDROOT
BRANCH   9  10
ATOM     10  C   UNL     1      -1.257   4.588  -0.557  0.00  0.00    +0.284 C 
ATOM     11  O   UNL     1      -1.730   5.360   0.257  0.00  0.00    -0.267 OA
ATOM     12  N   UNL     1      -1.456   4.793  -1.874  0.00  0.00    -0.292 N 
ATOM     13  C   UNL     1      -0.984   3.818  -2.869  0.00  0.00    +0.127 C 
ATOM     14  C   UNL     1      -2.157   3.473  -3.800  0.00  0.00    +0.127 C 
ATOM     15  N   UNL     1      -2.711   4.712  -4.361  0.00  0.00    -0.297 N 
ATOM     16  C   UNL     1      -3.269   5.571  -3.307  0.00  0.00    +0.127 C 
ATOM     17  C   UNL     1      -2.147   5.999  -2.355  0.00  0.00    +0.127 C 
ATOM     18  C   UNL     1      -3.660   4.438  -5.330  0.00  0.00    +0.218 A 
ATOM     19  N   UNL     1      -4.880   4.940  -5.202  0.00  0.00    -0.223 NA
ATOM     20  C   UNL     1      -5.808   4.702  -6.114  0.00  0.00    +0.116 A 
ATOM     21  C   UNL     1      -5.496   3.906  -7.205  0.00  0.00    +0.039 A 
ATOM     22  C   UNL     1      -4.213   3.392  -7.304  0.00  0.00    +0.116 A 
ATOM     23  N   UNL     1      -3.330   3.674  -6.361  0.00  0.00    -0.223 NA
ENDBRANCH   9  10
BRANCH   1  26
ATOM     24  C   UNL     1       3.038   4.365  -0.098  0.00  0.00    +0.220 C 
ATOM     25  O   UNL     1       3.468   3.247  -0.284  0.00  0.00    -0.275 OA
ATOM     26  N   UNL     1       1.719   4.555   0.109  0.00  0.00    -0.282 N 
ATOM     27  H   UNL     1       1.368   5.454   0.205  0.00  0.00    +0.155 HD
BRANCH  24  28
ATOM     28  C   UNL     1       3.977   5.543  -0.098  0.00  0.00    +0.075 C 
BRANCH  28  29
ATOM     29  C   UNL     1       3.913   6.247   1.259  0.00  0.00    +0.012 C 
BRANCH  29  31
ATOM     30  C   UNL     1       4.246   5.956   3.718  0.00  0.00    +0.004 C 
ATOM     31  C   UNL     1       4.432   5.304   2.347  0.00  0.00    -0.003 C 
ENDBRANCH  29  31
ENDBRANCH  28  29
BRANCH  28  32
ATOM     32  C   UNL     1       5.405   5.057  -0.354  0.00  0.00    +0.012 C 
BRANCH  32  33
ATOM     33  C   UNL     1       6.338   6.262  -0.486  0.00  0.00    -0.003 C 
ATOM     34  C   UNL     1       7.741   5.782  -0.866  0.00  0.00    +0.004 C 
ENDBRANCH  32  33
ENDBRANCH  28  32
ENDBRANCH  24  28
ENDBRANCH   1  26
TORSDOF 7
