REMARK  Name = ZINC06184655
REMARK  7 active torsions:
REMARK  status: ('A' for Active; 'I' for Inactive)
REMARK    1  A    between atoms: C_1  and  N_2
REMARK    2  A    between atoms: C_3  and  C_10
REMARK    3  A    between atoms: N_11  and  N_12
REMARK    4  A    between atoms: N_12  and  C_13
REMARK    5  A    between atoms: C_16  and  S_19
REMARK    6  A    between atoms: S_19  and  C_22
REMARK    7  A    between atoms: C_22  and  C_23
REMARK                            x       y       z     vdW  Elec       q    Type
REMARK                         _______ _______ _______ _____ _____    ______ ____
ROOT
ATOM      1  C   UNL     1       6.205  -1.492  -0.064  0.00  0.00    +0.048 A 
ATOM      2  C   UNL     1       5.545  -2.724  -0.058  0.00  0.00    +0.026 A 
ATOM      3  C   UNL     1       6.275  -3.893  -0.077  0.00  0.00    +0.029 A 
ATOM      4  C   UNL     1       7.660  -3.849  -0.090  0.00  0.00    +0.095 A 
ATOM      5  C   UNL     1       8.320  -2.631  -0.090  0.00  0.00    +0.029 A 
ATOM      6  C   UNL     1       7.603  -1.455  -0.077  0.00  0.00    +0.026 A 
ENDROOT
BRANCH   4   7
ATOM      7  S   UNL     1       8.585  -5.349  -0.108  0.00  0.00    +0.065 S 
ATOM      8  O   UNL     1       7.718  -6.302  -0.707  0.00  0.00    -0.164 OA
ATOM      9  O   UNL     1       9.820  -5.006  -0.721  0.00  0.00    -0.164 OA
BRANCH   7  10
ATOM     10  C   UNL     1       8.847  -5.755   1.641  0.00  0.00    +0.410 C 
ATOM     11  F   UNL     1       9.553  -4.718   2.260  0.00  0.00    -0.176 F 
ATOM     12  F   UNL     1       7.609  -5.918   2.272  0.00  0.00    -0.176 F 
BRANCH  10  13
ATOM     13  C   UNL     1       9.649  -7.054   1.748  0.00  0.00    +0.348 C 
ATOM     14  F   UNL     1      10.886  -6.891   1.116  0.00  0.00    -0.220 F 
ATOM     15 CL   UNL     1       9.909  -7.458   3.485  0.00  0.00    -0.077 Cl
ENDBRANCH  10  13
ENDBRANCH   7  10
ENDBRANCH   4   7
BRANCH   1  16
ATOM     16  N   UNL     1       5.482  -0.320  -0.051  0.00  0.00    -0.238 N 
ATOM     17  H   UNL     1       5.943   0.534  -0.052  0.00  0.00    +0.174 HD
BRANCH  16  19
ATOM     18  C   UNL     1       3.488   0.785  -0.027  0.00  0.00    +0.157 C 
ATOM     19  N   UNL     1       4.193  -0.357  -0.039  0.00  0.00    -0.188 NA
BRANCH  18  22
ATOM     20  C   UNL     1       1.592   3.238   0.004  0.00  0.00    +0.152 C 
ATOM     21  N   UNL     1       1.229   1.819   0.000  0.00  0.00    -0.307 N 
ATOM     22  C   UNL     1       2.107   0.745  -0.014  0.00  0.00    +0.083 A 
ATOM     23  C   UNL     1       1.243  -0.448  -0.012  0.00  0.00    +0.142 A 
ATOM     24  N   UNL     1       0.002  -0.004   0.002  0.00  0.00    -0.215 NA
ATOM     25  C   UNL     1      -0.016   1.317   0.009  0.00  0.00    +0.291 A 
ATOM     26  N   UNL     1      -1.249   2.136   0.020  0.00  0.00    +0.093 N 
ATOM     27  O   UNL     1      -2.429   1.551   0.023  0.00  0.00    -0.123 OA
ATOM     28  O   UNL     1      -1.166   3.451   0.026  0.00  0.00    -0.123 OA
ENDBRANCH  18  22
ENDBRANCH  16  19
ENDBRANCH   1  16
TORSDOF 6
