REMARK  Name = ZINC39911094
REMARK  13 active torsions:
REMARK  status: ('A' for Active; 'I' for Inactive)
REMARK    1  A    between atoms: C_1  and  C_2
REMARK    2  A    between atoms: C_2  and  C_3
REMARK    3  A    between atoms: C_3  and  O_4
REMARK    4  A    between atoms: O_4  and  C_5
REMARK    5  A    between atoms: C_8  and  C_14
REMARK    6  A    between atoms: C_10  and  O_11
REMARK    7  A    between atoms: O_11  and  C_12
REMARK    8  A    between atoms: C_12  and  C_13
REMARK    9  A    between atoms: C_21  and  C_39
REMARK   10  A    between atoms: C_23  and  C_38
REMARK   11  A    between atoms: N_29  and  C_30
REMARK   12  A    between atoms: C_30  and  C_31
REMARK   13  A    between atoms: C_34  and  C_37
REMARK                            x       y       z     vdW  Elec       q    Type
REMARK                         _______ _______ _______ _____ _____    ______ ____
ROOT
ATOM      1  C   UNL     1       3.349  -4.483   5.547  0.00  0.00    +0.145 C 
ATOM      2  C   UNL     1       2.470  -4.471   6.755  0.00  0.00    +0.072 A 
ATOM      3  C   UNL     1       1.139  -5.040   6.987  0.00  0.00    +0.199 A 
ATOM      4  O   UNL     1       0.594  -5.803   6.208  0.00  0.00    -0.287 OA
ATOM      5  C   UNL     1       0.518  -4.600   8.261  0.00  0.00    +0.065 A 
ATOM      6  C   UNL     1      -0.819  -4.892   8.534  0.00  0.00    +0.018 A 
ATOM      7  C   UNL     1      -1.377  -4.475   9.710  0.00  0.00    -0.049 A 
ATOM      8  C   UNL     1      -0.620  -3.763  10.630  0.00  0.00    +0.010 A 
ATOM      9  C   UNL     1       0.701  -3.468  10.378  0.00  0.00    -0.007 A 
ATOM     10  C   UNL     1       1.295  -3.885   9.186  0.00  0.00    +0.142 A 
ATOM     11  O   UNL     1       2.597  -3.592   8.964  0.00  0.00    -0.449 OA
ATOM     12  C   UNL     1       3.122  -3.781   7.737  0.00  0.00    +0.199 A 
ATOM     13  C   UNL     1       4.418  -3.328   7.202  0.00  0.00    +0.283 C 
ATOM     14  O   UNL     1       5.240  -2.683   7.822  0.00  0.00    -0.267 OA
ATOM     15  N   UNL     1       4.560  -3.736   5.922  0.00  0.00    -0.279 N 
ATOM     16  C   UNL     1       1.506  -2.694  11.390  0.00  0.00    +0.047 C 
ATOM     17  C   UNL     1      -2.821  -4.788  10.008  0.00  0.00    +0.044 C 
ENDROOT
BRANCH   1  21
ATOM     18  C   UNL     1       1.386  -2.554   2.274  0.00  0.00    +0.162 A 
ATOM     19  C   UNL     1       1.962  -1.799   3.283  0.00  0.00    +0.050 A 
ATOM     20  C   UNL     1       2.595  -2.425   4.340  0.00  0.00    +0.009 A 
ATOM     21  C   UNL     1       2.656  -3.805   4.393  0.00  0.00    -0.019 A 
ATOM     22  C   UNL     1       2.084  -4.565   3.389  0.00  0.00    +0.055 A 
ATOM     23  C   UNL     1       1.442  -3.944   2.330  0.00  0.00    +0.162 A 
BRANCH  18  24
ATOM     24  O   UNL     1       0.761  -1.940   1.234  0.00  0.00    -0.488 OA
BRANCH  24  25
ATOM     25  C   UNL     1       0.742  -0.511   1.242  0.00  0.00    +0.229 C 
BRANCH  25  27
ATOM     26  C   UNL     1      -0.019   1.526   0.010  0.00  0.00    +0.007 C 
ATOM     27  C   UNL     1       0.002  -0.004   0.002  0.00  0.00    +0.038 C 
ENDBRANCH  25  27
ENDBRANCH  24  25
ENDBRANCH  18  24
BRANCH  23  28
ATOM     28  O   UNL     1       0.874  -4.690   1.346  0.00  0.00    -0.489 OA
BRANCH  28  29
ATOM     29  C   UNL     1       0.971  -6.110   1.470  0.00  0.00    +0.226 C 
ATOM     30  C   UNL     1       0.279  -6.774   0.278  0.00  0.00    +0.048 C 
ENDBRANCH  28  29
ENDBRANCH  23  28
ENDBRANCH   1  21
BRANCH  15  31
ATOM     31  C   UNL     1       5.716  -3.479   5.059  0.00  0.00    +0.144 C 
BRANCH  31  32
ATOM     32  C   UNL     1       5.508  -2.187   4.312  0.00  0.00    -0.030 A 
ATOM     33  C   UNL     1       4.876  -2.193   3.083  0.00  0.00    +0.005 A 
ATOM     34  C   UNL     1       4.686  -1.008   2.398  0.00  0.00    +0.003 A 
ATOM     35  C   UNL     1       5.127   0.184   2.942  0.00  0.00    -0.050 A 
ATOM     36  C   UNL     1       5.758   0.190   4.172  0.00  0.00    +0.003 A 
ATOM     37  C   UNL     1       5.945  -0.995   4.859  0.00  0.00    +0.005 A 
ATOM     38  C   UNL     1       4.920   1.476   2.195  0.00  0.00    +0.044 C 
ENDBRANCH  31  32
ENDBRANCH  15  31
TORSDOF 8
