REMARK  Name = ZINC59852251
REMARK  7 active torsions:
REMARK  status: ('A' for Active; 'I' for Inactive)
REMARK    1  A    between atoms: C_1  and  C_2
REMARK    2  A    between atoms: C_2  and  C_28
REMARK    3  A    between atoms: N_5  and  C_9
REMARK    4  A    between atoms: C_9  and  C_10
REMARK    5  A    between atoms: N_12  and  C_13
REMARK    6  A    between atoms: C_13  and  C_15
REMARK    7  A    between atoms: C_13  and  C_25
REMARK                            x       y       z     vdW  Elec       q    Type
REMARK                         _______ _______ _______ _____ _____    ______ ____
ROOT
ATOM      1  C   UNL     1       4.020  -0.950  -1.644  0.00  0.00    +0.231 C 
ATOM      2  O   UNL     1       3.975   0.180  -1.206  0.00  0.00    -0.274 OA
ATOM      3  N   UNL     1       5.097  -1.360  -2.343  0.00  0.00    -0.307 N 
ATOM      4  H   UNL     1       5.133  -2.264  -2.693  0.00  0.00    +0.149 HD
ENDROOT
BRANCH   1   5
ATOM      5  C   UNL     1       2.871  -1.896  -1.406  0.00  0.00    +0.213 C 
BRANCH   5  10
ATOM      6  C   UNL     1      -0.019   1.526   0.010  0.00  0.00    +0.047 C 
ATOM      7  C   UNL     1       0.002  -0.004   0.002  0.00  0.00    +0.135 C 
ATOM      8  C   UNL     1       0.815  -0.520  -1.169  0.00  0.00    +0.251 C 
ATOM      9  O   UNL     1       0.595  -0.342  -2.348  0.00  0.00    -0.272 OA
ATOM     10  N   UNL     1       1.833  -1.217  -0.627  0.00  0.00    -0.215 N 
ATOM     11  C   UNL     1       1.777  -1.214   0.710  0.00  0.00    +0.310 C 
ATOM     12  O   UNL     1       2.586  -1.776   1.421  0.00  0.00    -0.252 OA
ATOM     13  N   UNL     1       0.724  -0.519   1.178  0.00  0.00    -0.281 N 
ATOM     14  H   UNL     1       0.487  -0.383   2.109  0.00  0.00    +0.152 HD
BRANCH   7  15
ATOM     15  C   UNL     1      -1.401  -0.551  -0.040  0.00  0.00    -0.016 A 
ATOM     16  C   UNL     1      -2.005  -0.815  -1.256  0.00  0.00    +0.006 A 
ATOM     17  C   UNL     1      -3.292  -1.317  -1.294  0.00  0.00    +0.000 A 
ATOM     18  C   UNL     1      -3.976  -1.556  -0.117  0.00  0.00    +0.000 A 
ATOM     19  C   UNL     1      -3.372  -1.294   1.099  0.00  0.00    +0.000 A 
ATOM     20  C   UNL     1      -2.083  -0.796   1.137  0.00  0.00    +0.006 A 
ENDBRANCH   7  15
ENDBRANCH   5  10
ENDBRANCH   1   5
BRANCH   3  21
ATOM     21  C   UNL     1       6.213  -0.440  -2.574  0.00  0.00    +0.106 C 
BRANCH  21  22
ATOM     22  C   UNL     1       6.959  -0.857  -3.816  0.00  0.00    -0.023 A 
ATOM     23  C   UNL     1       7.172  -2.198  -4.075  0.00  0.00    +0.009 A 
ATOM     24  C   UNL     1       7.856  -2.583  -5.212  0.00  0.00    +0.050 A 
ATOM     25  C   UNL     1       8.330  -1.626  -6.096  0.00  0.00    +0.162 A 
ATOM     26  C   UNL     1       8.114  -0.278  -5.837  0.00  0.00    +0.162 A 
ATOM     27  C   UNL     1       7.423   0.102  -4.696  0.00  0.00    +0.055 A 
ATOM     28  O   UNL     1       8.564   0.678  -6.695  0.00  0.00    -0.485 OA
ATOM     29  C   UNL     1       9.568   0.278  -7.635  0.00  0.00    +0.270 C 
ATOM     30  C   UNL     1       9.137  -1.056  -8.259  0.00  0.00    +0.270 C 
ATOM     31  O   UNL     1       9.006  -2.021  -7.210  0.00  0.00    -0.485 OA
ENDBRANCH  21  22
BRANCH  21  32
ATOM     32  C   UNL     1       7.161  -0.477  -1.374  0.00  0.00    +0.014 C 
ATOM     33  C   UNL     1       6.914  -1.549  -0.311  0.00  0.00    +0.006 C 
ATOM     34  C   UNL     1       6.590  -0.084  -0.010  0.00  0.00    +0.006 C 
ENDBRANCH  21  32
ENDBRANCH   3  21
TORSDOF 6
