REMARK  Name = ZINC01461097
REMARK  11 active torsions:
REMARK  status: ('A' for Active; 'I' for Inactive)
REMARK    1  A    between atoms: C_1  and  C_2
REMARK    2  A    between atoms: C_5  and  N_8
REMARK    3  A    between atoms: C_9  and  C_11
REMARK    4  A    between atoms: C_12  and  C_41
REMARK    5  A    between atoms: C_16  and  C_18
REMARK    6  A    between atoms: C_22  and  O_24
REMARK    7  A    between atoms: C_28  and  C_31
REMARK    8  A    between atoms: C_34  and  O_39
REMARK    9  A    between atoms: C_35  and  O_37
REMARK   10  A    between atoms: O_37  and  C_38
REMARK   11  A    between atoms: O_39  and  C_40
REMARK                            x       y       z     vdW  Elec       q    Type
REMARK                         _______ _______ _______ _____ _____    ______ ____
ROOT
ATOM      1  C   UNL     1      -0.720   5.994  -1.194  0.00  0.00    +0.043 C 
ATOM      2  C   UNL     1      -1.920   6.594  -1.130  0.00  0.00    +0.014 C 
ATOM      3  N   UNL     1      -2.619   6.623   0.045  0.00  0.00    -0.321 N 
ATOM      4  C   UNL     1      -1.984   6.415   1.240  0.00  0.00    +0.016 C 
ATOM      5  C   UNL     1      -0.779   5.809   1.278  0.00  0.00    +0.024 C 
ATOM      6  C   UNL     1      -0.115   5.334   0.010  0.00  0.00    +0.090 C 
ATOM      7  C   UNL     1      -0.109   5.603   2.497  0.00  0.00    +0.162 C 
ATOM      8  O   UNL     1       0.970   5.044   2.498  0.00  0.00    -0.292 OA
ATOM      9  C   UNL     1      -0.704   6.062   3.800  0.00  0.00    +0.088 C 
ATOM     10  C   UNL     1      -1.602   7.275   3.538  0.00  0.00    +0.032 C 
ATOM     11  C   UNL     1      -2.660   6.881   2.505  0.00  0.00    +0.059 C 
ATOM     12  C   UNL     1      -2.499   7.240  -2.362  0.00  0.00    +0.061 C 
ATOM     13  H   UNL     1      -3.702   6.815   0.036  0.00  0.00    +0.152 HD
ENDROOT
BRANCH   6  14
ATOM     14  C   UNL     1      -0.282   3.841  -0.107  0.00  0.00    -0.032 A 
ATOM     15  C   UNL     1      -1.549   3.290  -0.161  0.00  0.00    +0.005 A 
ATOM     16  C   UNL     1      -1.706   1.921  -0.274  0.00  0.00    +0.004 A 
ATOM     17  C   UNL     1      -0.596   1.099  -0.322  0.00  0.00    +0.045 A 
ATOM     18  C   UNL     1       0.676   1.650  -0.268  0.00  0.00    +0.117 A 
ATOM     19  C   UNL     1       0.831   3.024  -0.160  0.00  0.00    +0.050 A 
BRANCH  18  20
ATOM     20  O   UNL     1       1.769   0.844  -0.321  0.00  0.00    -0.507 OA
ATOM     21  H   UNL     1       2.777   1.281  -0.278  0.00  0.00    +0.292 HD
ENDBRANCH  18  20
ENDBRANCH   6  14
BRANCH  10  22
ATOM     22  C   UNL     1      -2.272   7.696   4.821  0.00  0.00    -0.040 A 
ATOM     23  C   UNL     1      -3.096   6.811   5.491  0.00  0.00    +0.008 A 
ATOM     24  C   UNL     1      -3.713   7.192   6.668  0.00  0.00    +0.049 A 
ATOM     25  C   UNL     1      -3.506   8.463   7.179  0.00  0.00    +0.161 A 
ATOM     26  C   UNL     1      -2.677   9.354   6.504  0.00  0.00    +0.162 A 
ATOM     27  C   UNL     1      -2.058   8.964   5.327  0.00  0.00    +0.053 A 
BRANCH  26  28
ATOM     28  O   UNL     1      -2.470  10.603   7.002  0.00  0.00    -0.491 OA
ATOM     29  C   UNL     1      -1.607  11.463   6.256  0.00  0.00    +0.277 C 
ENDBRANCH  26  28
BRANCH  25  30
ATOM     30  O   UNL     1      -4.113   8.839   8.336  0.00  0.00    -0.491 OA
ATOM     31  C   UNL     1      -4.951   7.873   8.973  0.00  0.00    +0.277 C 
ENDBRANCH  25  30
ENDBRANCH  10  22
BRANCH   1  33
ATOM     32  N   UNL     1       1.193   5.386  -2.498  0.00  0.00    -0.282 N 
ATOM     33  C   UNL     1      -0.012   5.984  -2.421  0.00  0.00    +0.247 C 
ATOM     34  O   UNL     1      -0.492   6.516  -3.405  0.00  0.00    -0.270 OA
ATOM     35  H   UNL     1       1.666   4.982  -1.591  0.00  0.00    +0.155 HD
BRANCH  32  40
ATOM     36  C   UNL     1       3.825   4.954  -7.505  0.00  0.00    +0.044 C 
ATOM     37  C   UNL     1       3.126   5.068  -6.175  0.00  0.00    -0.050 A 
ATOM     38  C   UNL     1       1.746   5.010  -6.113  0.00  0.00    +0.005 A 
ATOM     39  C   UNL     1       1.102   5.115  -4.896  0.00  0.00    +0.023 A 
ATOM     40  C   UNL     1       1.842   5.279  -3.732  0.00  0.00    +0.034 A 
ATOM     41  C   UNL     1       3.228   5.342  -3.798  0.00  0.00    +0.023 A 
ATOM     42  C   UNL     1       3.866   5.231  -5.018  0.00  0.00    +0.005 A 
ENDBRANCH  32  40
ENDBRANCH   1  33
TORSDOF 7
