REMARK  Name = ZINC13134796
REMARK  14 active torsions:
REMARK  status: ('A' for Active; 'I' for Inactive)
REMARK    1  A    between atoms: C_1  and  C_2
REMARK    2  A    between atoms: C_2  and  O_3
REMARK    3  A    between atoms: O_3  and  C_4
REMARK    4  A    between atoms: C_4  and  C_6
REMARK    5  A    between atoms: C_7  and  C_34
REMARK    6  A    between atoms: C_12  and  C_33
REMARK    7  A    between atoms: C_14  and  S_15
REMARK    8  A    between atoms: S_15  and  C_16
REMARK    9  A    between atoms: C_16  and  C_18
REMARK   10  A    between atoms: C_16  and  C_19
REMARK   11  A    between atoms: N_21  and  C_22
REMARK   12  A    between atoms: C_25  and  N_30
REMARK   13  A    between atoms: C_27  and  O_28
REMARK   14  A    between atoms: O_28  and  C_29
REMARK                            x       y       z     vdW  Elec       q    Type
REMARK                         _______ _______ _______ _____ _____    ______ ____
ROOT
ATOM      1  S   UNL     1      -1.487  -1.235  -0.187  0.00  0.00    -0.093 S 
ENDROOT
BRANCH   1  10
ATOM      2  C   UNL     1       2.813  -2.458   0.887  0.00  0.00    +0.102 A 
ATOM      3  C   UNL     1       1.530  -2.122   0.574  0.00  0.00    -0.018 A 
ATOM      4  C   UNL     1       1.230  -0.813   0.177  0.00  0.00    +0.043 A 
ATOM      5  C   UNL     1       2.328   0.081   0.133  0.00  0.00    +0.114 A 
ATOM      6  S   UNL     1       3.697  -0.928   0.638  0.00  0.00    -0.062 S 
ATOM      7  N   UNL     1       2.177   1.340  -0.225  0.00  0.00    -0.225 NA
ATOM      8  C   UNL     1       0.986   1.803  -0.555  0.00  0.00    +0.128 A 
ATOM      9  N   UNL     1      -0.084   1.030  -0.538  0.00  0.00    -0.225 NA
ATOM     10  C   UNL     1      -0.028  -0.247  -0.192  0.00  0.00    +0.110 A 
ATOM     11  C   UNL     1       0.844   3.248  -0.961  0.00  0.00    +0.088 C 
ATOM     12  C   UNL     1       0.437  -3.156   0.656  0.00  0.00    +0.046 C 
BRANCH   2  13
ATOM     13  C   UNL     1       3.337  -3.756   1.321  0.00  0.00    +0.346 C 
ATOM     14  O   UNL     1       2.587  -4.706   1.441  0.00  0.00    -0.244 OA
BRANCH  13  15
ATOM     15  O   UNL     1       4.652  -3.897   1.588  0.00  0.00    -0.461 OA
BRANCH  15  17
ATOM     16  C   UNL     1       6.609  -5.177   2.268  0.00  0.00    +0.048 C 
ATOM     17  C   UNL     1       5.101  -5.211   2.014  0.00  0.00    +0.229 C 
ENDBRANCH  15  17
ENDBRANCH  13  15
ENDBRANCH   2  13
ENDBRANCH   1  10
BRANCH   1  18
ATOM     18  C   UNL     1      -2.701  -0.005  -0.724  0.00  0.00    +0.136 C 
ATOM     19  C   UNL     1      -2.821   1.090   0.338  0.00  0.00    +0.029 C 
BRANCH  18  20
ATOM     20  C   UNL     1      -4.040  -0.670  -0.913  0.00  0.00    +0.230 C 
ATOM     21  O   UNL     1      -4.302  -1.688  -0.308  0.00  0.00    -0.274 OA
ATOM     22  N   UNL     1      -4.946  -0.133  -1.754  0.00  0.00    -0.282 N 
ATOM     23  H   UNL     1      -4.762   0.714  -2.189  0.00  0.00    +0.155 HD
BRANCH  22  24
ATOM     24  C   UNL     1      -6.155  -0.799  -1.999  0.00  0.00    +0.076 A 
ATOM     25  C   UNL     1      -6.702  -1.627  -1.030  0.00  0.00    +0.029 A 
ATOM     26  C   UNL     1      -7.894  -2.282  -1.273  0.00  0.00    +0.035 A 
ATOM     27  C   UNL     1      -8.545  -2.114  -2.482  0.00  0.00    +0.130 A 
ATOM     28  C   UNL     1      -8.006  -1.290  -3.452  0.00  0.00    +0.080 A 
ATOM     29  C   UNL     1      -6.813  -0.626  -3.214  0.00  0.00    +0.143 A 
BRANCH  27  30
ATOM     30  N   UNL     1      -9.822  -2.817  -2.737  0.00  0.00    +0.057 N 
ATOM     31  O   UNL     1     -10.298  -3.544  -1.883  0.00  0.00    -0.126 OA
ATOM     32  O   UNL     1     -10.396  -2.670  -3.801  0.00  0.00    -0.126 OA
ENDBRANCH  27  30
BRANCH  29  33
ATOM     33  O   UNL     1      -6.285   0.189  -4.166  0.00  0.00    -0.493 OA
ATOM     34  C   UNL     1      -7.015   0.319  -5.387  0.00  0.00    +0.277 C 
ENDBRANCH  29  33
ENDBRANCH  22  24
ENDBRANCH  18  20
ENDBRANCH   1  18
TORSDOF 9
