REMARK  Name = ZINC20175598
REMARK  10 active torsions:
REMARK  status: ('A' for Active; 'I' for Inactive)
REMARK    1  A    between atoms: C_1  and  C_2
REMARK    2  A    between atoms: C_2  and  O_3
REMARK    3  A    between atoms: O_3  and  C_4
REMARK    4  A    between atoms: C_6  and  C_14
REMARK    5  A    between atoms: C_8  and  N_11
REMARK    6  A    between atoms: C_25  and  C_28
REMARK    7  A    between atoms: C_31  and  O_36
REMARK    8  A    between atoms: C_32  and  O_34
REMARK    9  A    between atoms: O_34  and  C_35
REMARK   10  A    between atoms: O_36  and  C_37
REMARK                            x       y       z     vdW  Elec       q    Type
REMARK                         _______ _______ _______ _____ _____    ______ ____
ROOT
ATOM      1  C   UNL     1      -9.113  -3.805   0.108  0.00  0.00    +0.063 C 
ATOM      2  C   UNL     1      -9.912  -3.292   1.308  0.00  0.00    +0.109 C 
ATOM      3  C   UNL     1      -9.055  -3.380   2.544  0.00  0.00    +0.218 C 
ATOM      4  O   UNL     1      -9.564  -3.628   3.616  0.00  0.00    -0.275 OA
ATOM      5  N   UNL     1      -7.728  -3.184   2.461  0.00  0.00    -0.289 N 
ATOM      6  C   UNL     1      -7.130  -2.876   1.266  0.00  0.00    +0.018 C 
ATOM      7  C   UNL     1      -7.749  -3.156   0.100  0.00  0.00    +0.020 C 
ATOM      8  C   UNL     1      -7.152  -2.855  -1.136  0.00  0.00    +0.162 C 
ATOM      9  O   UNL     1      -7.745  -3.112  -2.165  0.00  0.00    -0.292 OA
ATOM     10  C   UNL     1      -5.789  -2.219  -1.205  0.00  0.00    +0.088 C 
ATOM     11  C   UNL     1      -4.987  -2.627   0.035  0.00  0.00    +0.032 C 
ATOM     12  C   UNL     1      -5.773  -2.216   1.282  0.00  0.00    +0.059 C 
ATOM     13  H   UNL     1      -7.102  -3.270   3.362  0.00  0.00    +0.155 HD
ENDROOT
BRANCH   1  16
ATOM     14  C   UNL     1      -9.315  -7.490  -0.698  0.00  0.00    +0.169 A 
ATOM     15  C   UNL     1      -9.461  -6.115  -0.787  0.00  0.00    +0.054 A 
ATOM     16  C   UNL     1      -8.958  -5.300   0.209  0.00  0.00    -0.034 A 
ATOM     17  C   UNL     1      -8.317  -5.854   1.302  0.00  0.00    +0.041 A 
ATOM     18  C   UNL     1      -8.172  -7.226   1.400  0.00  0.00    +0.177 A 
ATOM     19  C   UNL     1      -8.670  -8.048   0.402  0.00  0.00    +0.250 A 
ATOM     20  O   UNL     1      -8.529  -9.397   0.497  0.00  0.00    -0.282 OA
BRANCH  18  21
ATOM     21  N   UNL     1      -7.486  -7.816   2.571  0.00  0.00    +0.060 N 
ATOM     22  O   UNL     1      -7.049  -7.093   3.449  0.00  0.00    -0.126 OA
ATOM     23  O   UNL     1      -7.359  -9.024   2.658  0.00  0.00    -0.126 OA
ENDBRANCH  18  21
BRANCH  14  24
ATOM     24  O   UNL     1      -9.806  -8.293  -1.680  0.00  0.00    -0.488 OA
BRANCH  24  26
ATOM     25  C   UNL     1     -10.937  -8.707  -3.775  0.00  0.00    +0.048 C 
ATOM     26  C   UNL     1     -10.456  -7.651  -2.779  0.00  0.00    +0.226 C 
ENDBRANCH  24  26
ENDBRANCH  14  24
ENDBRANCH   1  16
BRANCH  11  27
ATOM     27  C   UNL     1      -3.652  -1.928   0.026  0.00  0.00    -0.040 A 
ATOM     28  C   UNL     1      -3.596  -0.546   0.033  0.00  0.00    +0.008 A 
ATOM     29  C   UNL     1      -2.374   0.099   0.031  0.00  0.00    +0.049 A 
ATOM     30  C   UNL     1      -1.201  -0.638   0.010  0.00  0.00    +0.161 A 
ATOM     31  C   UNL     1      -1.257  -2.028   0.003  0.00  0.00    +0.162 A 
ATOM     32  C   UNL     1      -2.485  -2.669   0.011  0.00  0.00    +0.053 A 
BRANCH  31  33
ATOM     33  O   UNL     1      -0.108  -2.756  -0.011  0.00  0.00    -0.491 OA
ATOM     34  C   UNL     1      -0.242  -4.179  -0.018  0.00  0.00    +0.277 C 
ENDBRANCH  31  33
BRANCH  30  35
ATOM     35  O   UNL     1       0.002  -0.004   0.002  0.00  0.00    -0.491 OA
ATOM     36  C   UNL     1      -0.017   1.425   0.010  0.00  0.00    +0.277 C 
ENDBRANCH  30  35
ENDBRANCH  11  27
TORSDOF 7
