REMARK  Name = ZINC09497821
REMARK  9 active torsions:
REMARK  status: ('A' for Active; 'I' for Inactive)
REMARK    1  A    between atoms: C_1  and  C_2
REMARK    2  A    between atoms: C_2  and  C_3
REMARK    3  A    between atoms: C_3  and  C_5
REMARK    4  A    between atoms: C_3  and  N_6
REMARK    5  A    between atoms: N_6  and  C_7
REMARK    6  A    between atoms: C_15  and  C_17
REMARK    7  A    between atoms: C_17  and  O_18
REMARK    8  A    between atoms: O_18  and  C_19
REMARK    9  A    between atoms: C_26  and  C_29
REMARK                            x       y       z     vdW  Elec       q    Type
REMARK                         _______ _______ _______ _____ _____    ______ ____
ROOT
ATOM      1  C   UNL     1      -0.676   4.411  -1.242  0.00  0.00    +0.325 C 
ENDROOT
BRANCH   1   3
ATOM      2  N   UNL     1      -2.706   5.543  -2.088  0.00  0.00    -0.291 N 
ATOM      3  C   UNL     1      -1.978   5.138  -1.029  0.00  0.00    +0.254 C 
ATOM      4  O   UNL     1      -2.372   5.358   0.097  0.00  0.00    -0.272 OA
BRANCH   2   5
ATOM      5  C   UNL     1      -3.972   6.249  -1.881  0.00  0.00    +0.099 C 
ATOM      6  C   UNL     1      -3.709   7.554  -1.111  0.00  0.00    +0.046 C 
ATOM      7  C   UNL     1      -5.077   8.119  -0.633  0.00  0.00    +0.168 C 
ATOM      8  S   UNL     1      -5.919   6.566  -0.109  0.00  0.00    -0.029 S 
ATOM      9  O   UNL     1      -5.682   6.356   1.276  0.00  0.00    -0.174 OA
ATOM     10  O   UNL     1      -7.254   6.577  -0.596  0.00  0.00    -0.174 OA
ATOM     11  C   UNL     1      -4.937   5.348  -1.074  0.00  0.00    +0.188 C 
ENDBRANCH   2   5
BRANCH   2  12
ATOM     12  C   UNL     1      -2.230   5.277  -3.448  0.00  0.00    +0.073 C 
ATOM     13  C   UNL     1      -3.257   4.419  -4.189  0.00  0.00    +0.028 C 
BRANCH  12  15
ATOM     14  C   UNL     1      -0.924   7.406  -3.521  0.00  0.00    +0.005 C 
ATOM     15  C   UNL     1      -2.040   6.601  -4.190  0.00  0.00    +0.019 C 
ENDBRANCH  12  15
ENDBRANCH   2  12
ENDBRANCH   1   3
BRANCH   1  16
ATOM     16  O   UNL     1      -0.097   4.088   0.024  0.00  0.00    -0.479 OA
BRANCH  16  17
ATOM     17  C   UNL     1       1.090   3.426   0.009  0.00  0.00    +0.165 A 
ATOM     18  C   UNL     1       2.275   4.128   0.001  0.00  0.00    +0.086 A 
ATOM     19  C   UNL     1       3.499   3.462  -0.014  0.00  0.00    +0.044 A 
ATOM     20  C   UNL     1       3.555   2.101  -0.021  0.00  0.00    +0.052 A 
ATOM     21  C   UNL     1       2.367   1.351  -0.013  0.00  0.00    +0.022 A 
ATOM     22  C   UNL     1       1.116   2.017   0.002  0.00  0.00    +0.116 A 
ATOM     23  N   UNL     1      -0.016   1.307   0.009  0.00  0.00    -0.248 NA
ATOM     24  C   UNL     1       0.002  -0.004   0.002  0.00  0.00    +0.039 A 
ATOM     25  C   UNL     1       1.197  -0.721  -0.013  0.00  0.00    +0.024 A 
ATOM     26  C   UNL     1       2.390  -0.056  -0.021  0.00  0.00    +0.013 A 
ATOM     27  C   UNL     1      -1.304  -0.756   0.010  0.00  0.00    +0.065 C 
ATOM     28 CL   UNL     1       5.092   1.294  -0.040  0.00  0.00    -0.083 Cl
ATOM     29 CL   UNL     1       2.243   5.863   0.009  0.00  0.00    -0.080 Cl
ENDBRANCH  16  17
ENDBRANCH   1  16
TORSDOF 6
