REMARK  Name = ZINC09041304
REMARK  5 active torsions:
REMARK  status: ('A' for Active; 'I' for Inactive)
REMARK    1  A    between atoms: C_3  and  C_10
REMARK    2  A    between atoms: C_5  and  N_7
REMARK    3  A    between atoms: N_17  and  C_20
REMARK    4  A    between atoms: C_20  and  C_21
REMARK    5  A    between atoms: C_21  and  C_23
REMARK                            x       y       z     vdW  Elec       q    Type
REMARK                         _______ _______ _______ _____ _____    ______ ____
ROOT
ATOM      1  C   UNL     1       2.424   3.938   0.001  0.00  0.00    +0.004 A 
ATOM      2  C   UNL     1       2.625   4.936  -0.893  0.00  0.00    +0.056 A 
ATOM      3  S   UNL     1       4.261   5.522  -0.497  0.00  0.00    -0.076 S 
ATOM      4  C   UNL     1       4.638   4.418   0.840  0.00  0.00    +0.116 A 
ATOM      5  C   UNL     1       3.485   3.623   0.950  0.00  0.00    +0.080 A 
ATOM      6  C   UNL     1       3.517   2.623   1.974  0.00  0.00    +0.263 A 
ATOM      7  O   UNL     1       2.563   1.884   2.148  0.00  0.00    -0.267 OA
ATOM      8  N   UNL     1       4.616   2.512   2.743  0.00  0.00    -0.291 N 
ATOM      9  C   UNL     1       5.688   3.326   2.564  0.00  0.00    +0.203 A 
ATOM     10  N   UNL     1       5.689   4.247   1.637  0.00  0.00    -0.230 NA
ENDROOT
BRANCH   1  13
ATOM     11  C   UNL     1      -0.013   1.076   0.008  0.00  0.00    +0.003 A 
ATOM     12  C   UNL     1       1.174   1.781   0.000  0.00  0.00    +0.009 A 
ATOM     13  C   UNL     1       1.153   3.175   0.008  0.00  0.00    -0.014 A 
ATOM     14  C   UNL     1      -0.067   3.848   0.023  0.00  0.00    +0.041 A 
ATOM     15  C   UNL     1      -1.247   3.133   0.031  0.00  0.00    +0.127 A 
ATOM     16  C   UNL     1      -1.220   1.750   0.017  0.00  0.00    +0.033 A 
BRANCH  15  17
ATOM     17  N   UNL     1      -2.544   3.847   0.047  0.00  0.00    +0.056 N 
ATOM     18  O   UNL     1      -2.568   5.064   0.054  0.00  0.00    -0.126 OA
ATOM     19  O   UNL     1      -3.586   3.216   0.054  0.00  0.00    -0.126 OA
ENDBRANCH  15  17
ENDBRANCH   1  13
BRANCH   8  20
ATOM     20  C   UNL     1       4.658   1.491   3.793  0.00  0.00    +0.209 C 
BRANCH  20  21
ATOM     21  C   UNL     1       5.223   0.213   3.229  0.00  0.00    +0.218 C 
ATOM     22  O   UNL     1       5.559   0.160   2.064  0.00  0.00    -0.287 OA
BRANCH  21  23
ATOM     23  C   UNL     1       5.363  -0.927   4.060  0.00  0.00    +0.173 A 
ATOM     24  C   UNL     1       5.859  -2.132   3.665  0.00  0.00    +0.061 A 
ATOM     25  C   UNL     1       5.823  -2.983   4.798  0.00  0.00    +0.022 A 
ATOM     26  C   UNL     1       6.191  -4.315   5.020  0.00  0.00    +0.027 A 
ATOM     27  C   UNL     1       6.029  -4.865   6.260  0.00  0.00    +0.019 A 
ATOM     28  C   UNL     1       5.502  -4.112   7.302  0.00  0.00    +0.019 A 
ATOM     29  C   UNL     1       5.133  -2.799   7.104  0.00  0.00    +0.048 A 
ATOM     30  C   UNL     1       5.289  -2.218   5.851  0.00  0.00    +0.136 A 
ATOM     31  O   UNL     1       5.031  -0.986   5.368  0.00  0.00    -0.452 OA
ATOM     32 BR   UNL     1       6.528  -6.664   6.561  0.00  0.00    -0.050 Br
ENDBRANCH  21  23
ENDBRANCH  20  21
ENDBRANCH   8  20
TORSDOF 5
