REMARK  Name = ZINC05732364
REMARK  7 active torsions:
REMARK  status: ('A' for Active; 'I' for Inactive)
REMARK    1  A    between atoms: C_1  and  O_2
REMARK    2  A    between atoms: O_2  and  C_3
REMARK    3  A    between atoms: C_5  and  O_23
REMARK    4  A    between atoms: C_10  and  C_16
REMARK    5  A    between atoms: C_11  and  O_14
REMARK    6  A    between atoms: O_14  and  C_15
REMARK    7  A    between atoms: C_19  and  O_22
REMARK                            x       y       z     vdW  Elec       q    Type
REMARK                         _______ _______ _______ _____ _____    ______ ____
ROOT
ATOM      1  C   UNL     1       1.222  -0.620  -0.792  0.00  0.00    +0.127 A 
ATOM      2  C   UNL     1       1.670   0.147  -1.862  0.00  0.00    +0.092 A 
ATOM      3  C   UNL     1       2.039  -0.461  -3.047  0.00  0.00    +0.135 A 
ATOM      4  C   UNL     1       1.957  -1.855  -3.162  0.00  0.00    +0.109 A 
ATOM      5  C   UNL     1       1.504  -2.629  -2.079  0.00  0.00    +0.147 A 
ATOM      6  C   UNL     1       1.143  -2.000  -0.896  0.00  0.00    +0.092 A 
ATOM      7  O   UNL     1       1.428  -3.971  -2.197  0.00  0.00    -0.451 OA
ATOM      8  C   UNL     1       1.773  -4.614  -3.326  0.00  0.00    +0.181 A 
ATOM      9  C   UNL     1       2.225  -3.957  -4.431  0.00  0.00    +0.211 A 
ATOM     10  C   UNL     1       2.340  -2.543  -4.405  0.00  0.00    +0.238 A 
ATOM     11  O   UNL     1       2.740  -1.922  -5.376  0.00  0.00    -0.283 OA
ENDROOT
BRANCH   8  12
ATOM     12  C   UNL     1       1.659  -6.083  -3.369  0.00  0.00    +0.021 A 
ATOM     13  C   UNL     1       2.718  -6.854  -3.858  0.00  0.00    +0.015 A 
ATOM     14  C   UNL     1       2.607  -8.226  -3.896  0.00  0.00    +0.046 A 
ATOM     15  C   UNL     1       1.446  -8.845  -3.451  0.00  0.00    +0.117 A 
ATOM     16  C   UNL     1       0.390  -8.082  -2.965  0.00  0.00    +0.046 A 
ATOM     17  C   UNL     1       0.495  -6.710  -2.917  0.00  0.00    +0.015 A 
BRANCH  15  18
ATOM     18  O   UNL     1       1.341 -10.198  -3.491  0.00  0.00    -0.507 OA
ATOM     19  H   UNL     1       1.649 -10.640  -2.688  0.00  0.00    +0.292 HD
ENDBRANCH  15  18
ENDBRANCH   8  12
BRANCH   1  21
ATOM     20  C   UNL     1       0.965   1.413   0.411  0.00  0.00    +0.277 C 
ATOM     21  O   UNL     1       0.862  -0.012   0.367  0.00  0.00    -0.495 OA
ENDBRANCH   1  21
BRANCH   9  22
ATOM     22  O   UNL     1       2.563  -4.653  -5.551  0.00  0.00    -0.488 OA
ATOM     23  C   UNL     1       1.762  -4.438  -6.715  0.00  0.00    +0.277 C 
ENDBRANCH   9  22
BRANCH   3  24
ATOM     24  O   UNL     1       2.476   0.286  -4.093  0.00  0.00    -0.506 OA
ATOM     25  H   UNL     1       3.432   0.430  -4.100  0.00  0.00    +0.292 HD
ENDBRANCH   3  24
TORSDOF 5
