REMARK  Name = ZINC35447981
REMARK  10 active torsions:
REMARK  status: ('A' for Active; 'I' for Inactive)
REMARK    1  A    between atoms: C_1  and  C_2
REMARK    2  A    between atoms: C_2  and  C_3
REMARK    3  A    between atoms: C_3  and  C_4
REMARK    4  A    between atoms: C_3  and  C_6
REMARK    5  A    between atoms: C_4  and  C_5
REMARK    6  A    between atoms: N_8  and  C_9
REMARK    7  A    between atoms: C_11  and  C_31
REMARK    8  A    between atoms: C_14  and  O_15
REMARK    9  A    between atoms: O_15  and  C_16
REMARK   10  A    between atoms: C_16  and  C_17
REMARK                            x       y       z     vdW  Elec       q    Type
REMARK                         _______ _______ _______ _____ _____    ______ ____
ROOT
ATOM      1  O   UNL     1      -3.446  -3.586  -1.403  0.00  0.00    -0.484 OA
ENDROOT
BRANCH   1   7
ATOM      2  C   UNL     1      -1.086  -3.902  -1.263  0.00  0.00    +0.076 A 
ATOM      3  C   UNL     1       0.001  -4.760  -1.180  0.00  0.00    +0.030 A 
ATOM      4  C   UNL     1      -0.198  -6.128  -1.167  0.00  0.00    -0.048 A 
ATOM      5  C   UNL     1      -1.479  -6.644  -1.236  0.00  0.00    +0.007 A 
ATOM      6  C   UNL     1      -2.567  -5.795  -1.319  0.00  0.00    +0.048 A 
ATOM      7  C   UNL     1      -2.376  -4.423  -1.327  0.00  0.00    +0.142 A 
ATOM      8  C   UNL     1       0.984  -7.058  -1.077  0.00  0.00    +0.044 C 
BRANCH   2  11
ATOM      9  C   UNL     1       0.213  -1.998  -1.859  0.00  0.00    +0.220 C 
ATOM     10  O   UNL     1       0.987  -2.724  -2.447  0.00  0.00    -0.275 OA
ATOM     11  N   UNL     1      -0.886  -2.515  -1.276  0.00  0.00    -0.282 N 
ATOM     12  H   UNL     1      -1.540  -1.927  -0.866  0.00  0.00    +0.155 HD
BRANCH   9  13
ATOM     13  C   UNL     1       0.481  -0.517  -1.782  0.00  0.00    +0.075 C 
BRANCH  13  15
ATOM     14  C   UNL     1       0.740   1.424  -0.230  0.00  0.00    +0.004 C 
ATOM     15  C   UNL     1       0.608  -0.098  -0.316  0.00  0.00    +0.009 C 
ENDBRANCH  13  15
BRANCH  13  16
ATOM     16  C   UNL     1       1.783  -0.195  -2.519  0.00  0.00    +0.009 C 
ATOM     17  C   UNL     1       1.603  -0.467  -4.014  0.00  0.00    +0.004 C 
ENDBRANCH  13  16
ENDBRANCH   9  13
ENDBRANCH   2  11
ENDBRANCH   1   7
BRANCH   1  18
ATOM     18  C   UNL     1      -4.739  -4.191  -1.466  0.00  0.00    +0.282 C 
BRANCH  18  19
ATOM     19  C   UNL     1      -5.793  -3.116  -1.545  0.00  0.00    +0.061 A 
ATOM     20  C   UNL     1      -5.437  -1.785  -1.554  0.00  0.00    +0.095 A 
ATOM     21  C   UNL     1      -6.426  -0.804  -1.627  0.00  0.00    +0.259 A 
ATOM     22  O   UNL     1      -6.117   0.377  -1.636  0.00  0.00    -0.267 OA
ATOM     23  N   UNL     1      -7.742  -1.168  -1.690  0.00  0.00    -0.260 N 
ATOM     24  C   UNL     1      -8.819  -0.294  -1.766  0.00  0.00    +0.039 A 
ATOM     25  C   UNL     1     -10.053  -0.810  -1.822  0.00  0.00    +0.013 A 
ATOM     26  S   UNL     1      -9.782  -2.563  -1.771  0.00  0.00    -0.056 S 
ATOM     27  C   UNL     1      -8.005  -2.509  -1.676  0.00  0.00    +0.159 A 
ATOM     28  N   UNL     1      -7.082  -3.437  -1.612  0.00  0.00    -0.336 N 
ATOM     29  C   UNL     1     -11.353  -0.077  -1.906  0.00  0.00    +0.044 C 
ATOM     30  C   UNL     1     -11.102   1.397  -1.556  0.00  0.00    +0.006 C 
ATOM     31  C   UNL     1      -9.876   1.882  -2.336  0.00  0.00    +0.006 C 
ATOM     32  C   UNL     1      -8.613   1.219  -1.786  0.00  0.00    +0.055 C 
ATOM     33  H   UNL     1      -7.343  -4.371  -1.611  0.00  0.00    +0.168 HD
ENDBRANCH  18  19
ENDBRANCH   1  18
TORSDOF 7
