REMARK  Name = ZINC33581852
REMARK  17 active torsions:
REMARK  status: ('A' for Active; 'I' for Inactive)
REMARK    1  A    between atoms: C_1  and  C_2
REMARK    2  A    between atoms: C_2  and  C_3
REMARK    3  A    between atoms: C_3  and  O_4
REMARK    4  A    between atoms: O_4  and  C_5
REMARK    5  A    between atoms: C_8  and  C_11
REMARK    6  A    between atoms: C_11  and  C_12
REMARK    7  A    between atoms: C_13  and  C_24
REMARK    8  A    between atoms: N_15  and  C_20
REMARK    9  A    between atoms: C_20  and  C_21
REMARK   10  A    between atoms: C_21  and  O_22
REMARK   11  A    between atoms: O_22  and  C_23
REMARK   12  A    between atoms: C_27  and  O_33
REMARK   13  A    between atoms: C_28  and  O_30
REMARK   14  A    between atoms: O_30  and  C_31
REMARK   15  A    between atoms: C_31  and  C_32
REMARK   16  A    between atoms: O_33  and  C_34
REMARK   17  A    between atoms: C_34  and  C_35
REMARK                            x       y       z     vdW  Elec       q    Type
REMARK                         _______ _______ _______ _____ _____    ______ ____
ROOT
ATOM      1  C   UNL     1      -2.475   0.450   1.506  0.00  0.00    +0.076 C 
ATOM      2  C   UNL     1      -2.170   0.944   0.110  0.00  0.00    +0.145 C 
ATOM      3  N   UNL     1      -1.657  -0.206  -0.640  0.00  0.00    -0.281 N 
ATOM      4  C   UNL     1      -1.639  -1.281   0.166  0.00  0.00    +0.288 C 
ATOM      5  O   UNL     1      -1.267  -2.389  -0.161  0.00  0.00    -0.266 OA
ATOM      6  C   UNL     1      -2.143  -0.914   1.517  0.00  0.00    +0.249 C 
ATOM      7  O   UNL     1      -2.248  -1.667   2.469  0.00  0.00    -0.282 OA
ENDROOT
BRANCH   2   8
ATOM      8  C   UNL     1      -1.128   2.031   0.165  0.00  0.00    -0.019 A 
ATOM      9  C   UNL     1       0.204   1.702   0.339  0.00  0.00    +0.009 A 
ATOM     10  C   UNL     1       1.164   2.695   0.384  0.00  0.00    +0.050 A 
ATOM     11  C   UNL     1       0.793   4.024   0.260  0.00  0.00    +0.162 A 
ATOM     12  C   UNL     1      -0.548   4.356   0.090  0.00  0.00    +0.162 A 
ATOM     13  C   UNL     1      -1.506   3.355   0.045  0.00  0.00    +0.055 A 
BRANCH  12  14
ATOM     14  O   UNL     1      -0.918   5.659  -0.032  0.00  0.00    -0.489 OA
BRANCH  14  15
ATOM     15  C   UNL     1      -2.311   5.925  -0.204  0.00  0.00    +0.226 C 
ATOM     16  C   UNL     1      -2.532   7.434  -0.322  0.00  0.00    +0.048 C 
ENDBRANCH  14  15
ENDBRANCH  12  14
BRANCH  11  17
ATOM     17  O   UNL     1       1.736   5.003   0.304  0.00  0.00    -0.489 OA
BRANCH  17  18
ATOM     18  C   UNL     1       3.092   4.588   0.480  0.00  0.00    +0.226 C 
ATOM     19  C   UNL     1       4.002   5.818   0.505  0.00  0.00    +0.048 C 
ENDBRANCH  17  18
ENDBRANCH  11  17
ENDBRANCH   2   8
BRANCH   1  20
ATOM     20  C   UNL     1      -2.980   1.191   2.557  0.00  0.00    +0.195 C 
ATOM     21  O   UNL     1      -3.125   2.527   2.432  0.00  0.00    -0.287 OA
BRANCH  20  25
ATOM     22  C   UNL     1      -4.072  -0.733   6.177  0.00  0.00    +0.121 A 
ATOM     23  C   UNL     1      -3.230   0.373   6.207  0.00  0.00    +0.046 A 
ATOM     24  C   UNL     1      -2.872   1.000   5.035  0.00  0.00    +0.015 A 
ATOM     25  C   UNL     1      -3.359   0.524   3.812  0.00  0.00    +0.022 A 
ATOM     26  C   UNL     1      -4.212  -0.586   3.788  0.00  0.00    +0.015 A 
ATOM     27  C   UNL     1      -4.558  -1.211   4.964  0.00  0.00    +0.046 A 
BRANCH  22  28
ATOM     28  O   UNL     1      -4.422  -1.349   7.334  0.00  0.00    -0.492 OA
BRANCH  28  29
ATOM     29  C   UNL     1      -5.290  -2.479   7.232  0.00  0.00    +0.229 C 
BRANCH  29  31
ATOM     30  C   UNL     1      -6.500  -4.245   8.520  0.00  0.00    +0.007 C 
ATOM     31  C   UNL     1      -5.570  -3.035   8.629  0.00  0.00    +0.038 C 
ENDBRANCH  29  31
ENDBRANCH  28  29
ENDBRANCH  22  28
ENDBRANCH  20  25
ENDBRANCH   1  20
BRANCH   3  32
ATOM     32  C   UNL     1      -1.234  -0.187  -2.043  0.00  0.00    +0.137 C 
BRANCH  32  33
ATOM     33  C   UNL     1       0.256   0.151  -2.121  0.00  0.00    +0.178 C 
BRANCH  33  34
ATOM     34  O   UNL     1       1.015  -0.895  -1.512  0.00  0.00    -0.381 OA
ATOM     35  C   UNL     1       2.427  -0.677  -1.532  0.00  0.00    +0.194 C 
ENDBRANCH  33  34
ENDBRANCH  32  33
ENDBRANCH   3  32
TORSDOF 13
