REMARK  Name = ZINC40259150
REMARK  3 active torsions:
REMARK  status: ('A' for Active; 'I' for Inactive)
REMARK    1  A    between atoms: C_6  and  C_7
REMARK    2  A    between atoms: C_7  and  C_9
REMARK    3  A    between atoms: C_7  and  O_17
REMARK                            x       y       z     vdW  Elec       q    Type
REMARK                         _______ _______ _______ _____ _____    ______ ____
ROOT
ATOM      1  C   UNL     1      -0.017   1.379   0.010  0.00  0.00    +0.009 A 
ATOM      2  C   UNL     1       1.168   2.090   0.002  0.00  0.00    +0.030 A 
ATOM      3  C   UNL     1       2.377   1.414  -0.013  0.00  0.00    +0.087 A 
ATOM      4  C   UNL     1       2.397   0.019  -0.021  0.00  0.00    +0.157 A 
ATOM      5  C   UNL     1       1.204  -0.685  -0.013  0.00  0.00    +0.055 A 
ATOM      6  C   UNL     1       0.002  -0.004   0.002  0.00  0.00    -0.011 A 
ATOM      7  O   UNL     1       3.697  -0.364  -0.036  0.00  0.00    -0.408 OA
ATOM      8  C   UNL     1       4.479   0.727  -0.038  0.00  0.00    +0.419 A 
ATOM      9  O   UNL     1       5.695   0.719  -0.050  0.00  0.00    -0.223 OA
ATOM     10  N   UNL     1       3.708   1.832  -0.024  0.00  0.00    -0.288 N 
ATOM     11  H   UNL     1       4.021   2.750  -0.022  0.00  0.00    +0.172 HD
ENDROOT
BRANCH   6  12
ATOM     12  C   UNL     1      -1.295  -0.772   0.010  0.00  0.00    +0.176 C 
BRANCH  12  13
ATOM     13  C   UNL     1      -1.804  -0.913  -1.401  0.00  0.00    +0.005 A 
ATOM     14  C   UNL     1      -2.719  -0.006  -1.900  0.00  0.00    +0.023 A 
ATOM     15  C   UNL     1      -3.187  -0.136  -3.195  0.00  0.00    +0.018 A 
ATOM     16  C   UNL     1      -2.737  -1.175  -3.992  0.00  0.00    +0.017 A 
ATOM     17  C   UNL     1      -1.822  -2.082  -3.493  0.00  0.00    +0.021 A 
ATOM     18  C   UNL     1      -1.350  -1.948  -2.199  0.00  0.00    +0.047 A 
ATOM     19 CL   UNL     1      -0.194  -3.083  -1.576  0.00  0.00    -0.083 Cl
ATOM     20 BR   UNL     1      -4.439   1.105  -3.878  0.00  0.00    -0.050 Br
ENDBRANCH  12  13
BRANCH  12  21
ATOM     21  O   UNL     1      -2.259  -0.069   0.796  0.00  0.00    -0.382 OA
ATOM     22  H   UNL     1      -2.457   0.821   0.473  0.00  0.00    +0.211 HD
ENDBRANCH  12  21
ENDBRANCH   6  12
TORSDOF 3
