REMARK  Name = ZINC24876457
REMARK  7 active torsions:
REMARK  status: ('A' for Active; 'I' for Inactive)
REMARK    1  A    between atoms: C_1  and  C_2
REMARK    2  A    between atoms: C_5  and  N_9
REMARK    3  A    between atoms: C_10  and  C_12
REMARK    4  A    between atoms: C_12  and  N_13
REMARK    5  A    between atoms: C_16  and  C_20
REMARK    6  A    between atoms: C_16  and  C_21
REMARK    7  A    between atoms: C_21  and  C_22
REMARK                            x       y       z     vdW  Elec       q    Type
REMARK                         _______ _______ _______ _____ _____    ______ ____
ROOT
ATOM      1  N   UNL     1       1.356   2.010   0.003  0.00  0.00    -0.215 N 
ATOM      2  C   UNL     1       2.050   2.284  -1.119  0.00  0.00    +0.247 C 
ATOM      3  O   UNL     1       1.669   2.163  -2.264  0.00  0.00    -0.273 OA
ATOM      4  C   UNL     1       3.405   2.778  -0.653  0.00  0.00    +0.114 C 
ATOM      5  N   UNL     1       3.308   2.719   0.816  0.00  0.00    -0.285 N 
ATOM      6  C   UNL     1       2.075   2.264   1.102  0.00  0.00    +0.310 C 
ATOM      7  O   UNL     1       1.661   2.098   2.233  0.00  0.00    -0.252 OA
ATOM      8  C   UNL     1       4.517   1.855  -1.156  0.00  0.00    +0.042 C 
ATOM      9  H   UNL     1       4.165   3.021   1.437  0.00  0.00    +0.151 HD
ENDROOT
BRANCH   1  10
ATOM     10  C   UNL     1      -0.018   1.503   0.017  0.00  0.00    +0.214 C 
BRANCH  10  12
ATOM     11  N   UNL     1      -1.156  -0.694   0.009  0.00  0.00    -0.284 N 
ATOM     12  C   UNL     1       0.002  -0.004   0.000  0.00  0.00    +0.235 C 
ATOM     13  O   UNL     1       1.060  -0.596  -0.022  0.00  0.00    -0.274 OA
ATOM     14  H   UNL     1      -2.113  -0.161   0.106  0.00  0.00    +0.155 HD
BRANCH  11  19
ATOM     15  C   UNL     1      -1.090  -6.349  -0.449  0.00  0.00    +0.045 C 
ATOM     16  C   UNL     1      -1.108  -4.847  -0.327  0.00  0.00    -0.032 A 
ATOM     17  C   UNL     1      -0.099  -4.198   0.361  0.00  0.00    +0.006 A 
ATOM     18  C   UNL     1      -0.112  -2.822   0.474  0.00  0.00    +0.023 A 
ATOM     19  C   UNL     1      -1.140  -2.088  -0.104  0.00  0.00    +0.035 A 
ATOM     20  C   UNL     1      -2.155  -2.742  -0.789  0.00  0.00    +0.043 A 
ATOM     21  C   UNL     1      -2.134  -4.120  -0.904  0.00  0.00    +0.046 A 
ATOM     22 CL   UNL     1      -3.399  -4.938  -1.766  0.00  0.00    -0.083 Cl
ENDBRANCH  11  19
ENDBRANCH  10  12
ENDBRANCH   1  10
BRANCH   4  23
ATOM     23  C   UNL     1       3.644   4.215  -1.119  0.00  0.00    +0.070 C 
BRANCH  23  24
ATOM     24  C   UNL     1       4.996   4.680  -0.642  0.00  0.00    -0.041 A 
ATOM     25  C   UNL     1       5.117   5.308   0.584  0.00  0.00    +0.007 A 
ATOM     26  C   UNL     1       6.356   5.731   1.028  0.00  0.00    +0.050 A 
ATOM     27  C   UNL     1       7.479   5.536   0.240  0.00  0.00    +0.166 A 
ATOM     28  C   UNL     1       7.356   4.908  -0.997  0.00  0.00    +0.166 A 
ATOM     29  C   UNL     1       6.112   4.482  -1.433  0.00  0.00    +0.053 A 
ATOM     30  O   UNL     1       8.591   4.837  -1.574  0.00  0.00    -0.453 OA
ATOM     31  C   UNL     1       9.529   5.057  -0.504  0.00  0.00    +0.466 C 
ATOM     32  O   UNL     1       8.790   5.858   0.438  0.00  0.00    -0.453 OA
ENDBRANCH  23  24
ENDBRANCH   4  23
TORSDOF 5
