REMARK  Name = ZINC15959558
REMARK  7 active torsions:
REMARK  status: ('A' for Active; 'I' for Inactive)
REMARK    1  A    between atoms: C_1  and  C_2
REMARK    2  A    between atoms: C_16  and  C_19
REMARK    3  A    between atoms: C_19  and  C_20
REMARK    4  A    between atoms: C_23  and  O_26
REMARK    5  A    between atoms: N_29  and  C_32
REMARK    6  A    between atoms: C_32  and  C_33
REMARK    7  A    between atoms: C_33  and  C_34
REMARK                            x       y       z     vdW  Elec       q    Type
REMARK                         _______ _______ _______ _____ _____    ______ ____
ROOT
ATOM      1  C   UNL     1      -0.018   1.503   0.010  0.00  0.00    +0.047 C 
ATOM      2  C   UNL     1       0.002  -0.004   0.002  0.00  0.00    -0.011 A 
ATOM      3  C   UNL     1       0.006  -0.686  -1.199  0.00  0.00    +0.046 A 
ATOM      4  C   UNL     1       0.025  -2.069  -1.216  0.00  0.00    +0.021 A 
ATOM      5  C   UNL     1       0.041  -2.772  -0.024  0.00  0.00    +0.009 A 
ATOM      6  C   UNL     1       0.037  -2.097   1.175  0.00  0.00    +0.004 A 
ATOM      7  C   UNL     1       0.023  -0.705   1.205  0.00  0.00    +0.043 A 
ATOM      8  N   UNL     1       0.028  -0.250   2.526  0.00  0.00    -0.283 N 
ATOM      9  C   UNL     1       0.052  -1.264   3.412  0.00  0.00    +0.243 C 
ATOM     10  O   UNL     1       0.060  -1.168   4.621  0.00  0.00    -0.273 OA
ATOM     11  C   UNL     1       0.052  -2.537   2.611  0.00  0.00    +0.136 C 
ATOM     12  C   UNL     1      -1.154  -3.424   2.944  0.00  0.00    +0.122 C 
ATOM     13  C   UNL     1      -0.608  -4.457   3.969  0.00  0.00    +0.107 C 
ATOM     14  C   UNL     1       0.873  -4.072   4.169  0.00  0.00    +0.072 C 
ATOM     15  N   UNL     1       1.246  -3.347   2.918  0.00  0.00    -0.295 NA
ATOM     16  C   UNL     1      -0.701  -5.770   3.226  0.00  0.00    +0.227 C 
ATOM     17  O   UNL     1      -0.366  -6.849   3.665  0.00  0.00    -0.275 OA
ATOM     18  N   UNL     1      -1.212  -5.556   2.008  0.00  0.00    -0.241 N 
ATOM     19  C   UNL     1      -1.514  -4.265   1.739  0.00  0.00    +0.228 C 
ATOM     20  O   UNL     1      -1.992  -3.842   0.709  0.00  0.00    -0.275 OA
ATOM     21 CL   UNL     1      -0.014   0.197  -2.694  0.00  0.00    -0.083 Cl
ATOM     22  H   UNL     1       0.016   0.687   2.775  0.00  0.00    +0.155 HD
ATOM     23  H   UNL     1       1.451  -3.988   2.166  0.00  0.00    +0.124 HD
ENDROOT
BRANCH  14  24
ATOM     24  C   UNL     1       1.734  -5.328   4.318  0.00  0.00    +0.054 C 
BRANCH  24  25
ATOM     25  C   UNL     1       3.153  -4.929   4.635  0.00  0.00    -0.046 A 
ATOM     26  C   UNL     1       4.053  -4.708   3.609  0.00  0.00    +0.007 A 
ATOM     27  C   UNL     1       5.354  -4.343   3.896  0.00  0.00    +0.045 A 
ATOM     28  C   UNL     1       5.757  -4.199   5.216  0.00  0.00    +0.117 A 
ATOM     29  C   UNL     1       4.852  -4.421   6.244  0.00  0.00    +0.045 A 
ATOM     30  C   UNL     1       3.551  -4.781   5.951  0.00  0.00    +0.007 A 
BRANCH  28  31
ATOM     31  O   UNL     1       7.036  -3.840   5.501  0.00  0.00    -0.507 OA
ATOM     32  H   UNL     1       7.173  -2.885   5.562  0.00  0.00    +0.292 HD
ENDBRANCH  28  31
ENDBRANCH  24  25
ENDBRANCH  14  24
BRANCH  18  33
ATOM     33  C   UNL     1      -1.432  -6.634   1.040  0.00  0.00    +0.121 C 
BRANCH  33  34
ATOM     34  C   UNL     1      -2.839  -7.206   1.226  0.00  0.00    +0.054 C 
BRANCH  34  35
ATOM     35  C   UNL     1      -3.066  -8.314   0.231  0.00  0.00    -0.046 A 
ATOM     36  C   UNL     1      -3.591  -8.028  -1.016  0.00  0.00    +0.004 A 
ATOM     37  C   UNL     1      -3.799  -9.045  -1.929  0.00  0.00    +0.000 A 
ATOM     38  C   UNL     1      -3.481 -10.348  -1.595  0.00  0.00    +0.000 A 
ATOM     39  C   UNL     1      -2.955 -10.635  -0.350  0.00  0.00    +0.000 A 
ATOM     40  C   UNL     1      -2.743  -9.617   0.562  0.00  0.00    +0.004 A 
ENDBRANCH  34  35
ENDBRANCH  33  34
ENDBRANCH  18  33
TORSDOF 6
