REMARK  Name = ZINC63655092
REMARK  11 active torsions:
REMARK  status: ('A' for Active; 'I' for Inactive)
REMARK    1  A    between atoms: C_1  and  C_2
REMARK    2  A    between atoms: C_6  and  N_8
REMARK    3  A    between atoms: N_8  and  C_9
REMARK    4  A    between atoms: C_9  and  N_11
REMARK    5  A    between atoms: N_11  and  C_12
REMARK    6  A    between atoms: N_11  and  C_26
REMARK    7  A    between atoms: C_12  and  C_13
REMARK    8  A    between atoms: C_13  and  C_14
REMARK    9  A    between atoms: C_17  and  C_25
REMARK   10  A    between atoms: C_22  and  C_24
REMARK   11  A    between atoms: C_26  and  C_27
REMARK                            x       y       z     vdW  Elec       q    Type
REMARK                         _______ _______ _______ _____ _____    ______ ____
ROOT
ATOM      1  N   UNL     1      -0.119  -4.819   3.548  0.00  0.00    -0.308 N 
ENDROOT
BRANCH   1   2
ATOM      2  C   UNL     1      -0.032  -4.143   2.385  0.00  0.00    +0.137 C 
ATOM      3  S   UNL     1      -0.028  -4.992   0.899  0.00  0.00    -0.018 S 
BRANCH   2   4
ATOM      4  N   UNL     1       0.051  -2.797   2.392  0.00  0.00    -0.297 N 
ATOM      5  H   UNL     1       0.130  -2.321   3.233  0.00  0.00    +0.154 HD
BRANCH   4  11
ATOM      6  C   UNL     1      -1.843  -2.156  -2.099  0.00  0.00    +0.044 C 
ATOM      7  C   UNL     1      -0.884  -1.756  -1.008  0.00  0.00    -0.049 A 
ATOM      8  C   UNL     1      -0.029  -0.686  -1.198  0.00  0.00    +0.003 A 
ATOM      9  C   UNL     1       0.853  -0.316  -0.200  0.00  0.00    +0.002 A 
ATOM     10  C   UNL     1       0.882  -1.014   0.992  0.00  0.00    +0.023 A 
ATOM     11  C   UNL     1       0.024  -2.088   1.187  0.00  0.00    +0.033 A 
ATOM     12  C   UNL     1      -0.864  -2.454   0.183  0.00  0.00    +0.026 A 
ENDBRANCH   4  11
ENDBRANCH   2   4
ENDBRANCH   1   2
BRANCH   1  13
ATOM     13  C   UNL     1      -0.210  -6.281   3.540  0.00  0.00    +0.111 C 
BRANCH  13  14
ATOM     14  C   UNL     1       1.197  -6.879   3.593  0.00  0.00    +0.052 C 
BRANCH  14  15
ATOM     15  C   UNL     1       1.104  -8.383   3.584  0.00  0.00    -0.037 C 
ATOM     16  C   UNL     1      -0.024  -9.128   3.533  0.00  0.00    -0.001 A 
ATOM     17  C   UNL     1      -1.447  -8.774   3.472  0.00  0.00    +0.013 A 
ATOM     18  C   UNL     1      -2.368  -9.763   3.429  0.00  0.00    -0.050 A 
ATOM     19  C   UNL     1      -1.999 -11.115   3.442  0.00  0.00    +0.005 A 
ATOM     20  C   UNL     1      -0.712 -11.519   3.497  0.00  0.00    +0.026 A 
ATOM     21  C   UNL     1       0.340 -10.563   3.545  0.00  0.00    +0.043 A 
ATOM     22  N   UNL     1       1.642 -10.700   3.601  0.00  0.00    -0.378 N 
ATOM     23  C   UNL     1       2.253  -9.366   3.626  0.00  0.00    +0.103 C 
ATOM     24  C   UNL     1       3.058  -9.181   4.914  0.00  0.00    +0.035 C 
ATOM     25  C   UNL     1      -3.830  -9.403   3.367  0.00  0.00    +0.044 C 
ATOM     26  H   UNL     1       2.123 -11.543   3.620  0.00  0.00    +0.160 HD
ENDBRANCH  14  15
ENDBRANCH  13  14
ENDBRANCH   1  13
BRANCH   1  27
ATOM     27  C   UNL     1      -0.123  -4.091   4.819  0.00  0.00    +0.143 C 
BRANCH  27  28
ATOM     28  C   UNL     1      -1.541  -3.753   5.201  0.00  0.00    -0.012 A 
ATOM     29  C   UNL     1      -2.116  -2.563   4.782  0.00  0.00    +0.008 A 
ATOM     30  C   UNL     1      -3.424  -2.295   5.157  0.00  0.00    +0.020 A 
ATOM     31  C   UNL     1      -4.106  -3.215   5.930  0.00  0.00    +0.111 A 
ATOM     32  N   UNL     1      -3.526  -4.337   6.311  0.00  0.00    -0.263 NA
ATOM     33  C   UNL     1      -2.287  -4.628   5.968  0.00  0.00    +0.115 A 
ENDBRANCH  27  28
ENDBRANCH   1  27
TORSDOF 8
