REMARK  Name = ZINC14274043
REMARK  12 active torsions:
REMARK  status: ('A' for Active; 'I' for Inactive)
REMARK    1  A    between atoms: C_1  and  C_2
REMARK    2  A    between atoms: C_2  and  C_3
REMARK    3  A    between atoms: C_9  and  C_11
REMARK    4  A    between atoms: C_14  and  C_17
REMARK    5  A    between atoms: C_17  and  N_18
REMARK    6  A    between atoms: N_18  and  C_19
REMARK    7  A    between atoms: C_19  and  N_21
REMARK    8  A    between atoms: C_22  and  C_24
REMARK    9  A    between atoms: C_25  and  C_26
REMARK   10  A    between atoms: C_29  and  C_32
REMARK   11  A    between atoms: C_32  and  C_33
REMARK   12  A    between atoms: C_32  and  C_34
REMARK                            x       y       z     vdW  Elec       q    Type
REMARK                         _______ _______ _______ _____ _____    ______ ____
ROOT
ATOM      1  N   UNL     1      -4.432   7.814   7.718  0.00  0.00    -0.322 N 
ATOM      2  H   UNL     1      -4.078   8.453   7.080  0.00  0.00    +0.148 HD
ENDROOT
BRANCH   1   3
ATOM      3  C   UNL     1      -4.293   6.492   7.496  0.00  0.00    +0.137 C 
ATOM      4  S   UNL     1      -4.918   5.364   8.624  0.00  0.00    -0.018 S 
BRANCH   3   5
ATOM      5  N   UNL     1      -3.663   6.057   6.387  0.00  0.00    -0.264 N 
ATOM      6  C   UNL     1      -3.525   4.735   6.165  0.00  0.00    +0.242 C 
ATOM      7  O   UNL     1      -3.968   3.934   6.966  0.00  0.00    -0.270 OA
ATOM      8  H   UNL     1      -3.310   6.696   5.748  0.00  0.00    +0.157 HD
BRANCH   6   9
ATOM      9  C   UNL     1      -2.841   4.263   4.961  0.00  0.00    +0.068 C 
ATOM     10  C   UNL     1      -2.702   2.940   4.739  0.00  0.00    +0.013 C 
BRANCH  10  11
ATOM     11  C   UNL     1      -2.014   2.465   3.527  0.00  0.00    -0.025 A 
ATOM     12  C   UNL     1      -1.868   1.094   3.294  0.00  0.00    +0.008 A 
ATOM     13  C   UNL     1      -1.222   0.657   2.156  0.00  0.00    +0.004 A 
ATOM     14  C   UNL     1      -0.718   1.572   1.248  0.00  0.00    -0.045 A 
ATOM     15  C   UNL     1      -0.854   2.930   1.475  0.00  0.00    +0.004 A 
ATOM     16  C   UNL     1      -1.502   3.383   2.604  0.00  0.00    +0.008 A 
BRANCH  14  17
ATOM     17  C   UNL     1      -0.013   1.086   0.008  0.00  0.00    +0.013 C 
ATOM     18  C   UNL     1       1.423   1.615  -0.003  0.00  0.00    +0.012 C 
ATOM     19  C   UNL     1      -0.753   1.593  -1.232  0.00  0.00    +0.012 C 
ENDBRANCH  14  17
ENDBRANCH  10  11
ENDBRANCH   6   9
ENDBRANCH   3   5
ENDBRANCH   1   3
BRANCH   1  20
ATOM     20  C   UNL     1      -5.117   8.286   8.924  0.00  0.00    +0.138 C 
BRANCH  20  24
ATOM     21  C   UNL     1      -5.175  12.562   8.949  0.00  0.00    +0.009 A 
ATOM     22  C   UNL     1      -6.216  11.851   8.352  0.00  0.00    +0.011 A 
ATOM     23  C   UNL     1      -6.191  10.471   8.347  0.00  0.00    +0.006 A 
ATOM     24  C   UNL     1      -5.137   9.793   8.933  0.00  0.00    -0.030 A 
ATOM     25  C   UNL     1      -4.104  10.492   9.531  0.00  0.00    +0.006 A 
ATOM     26  C   UNL     1      -4.114  11.872   9.538  0.00  0.00    +0.011 A 
BRANCH  21  33
ATOM     27  C   UNL     1      -3.872  17.417   9.751  0.00  0.00    +0.155 A 
ATOM     28  N   UNL     1      -4.608  18.416   9.350  0.00  0.00    -0.132 NA
ATOM     29  N   UNL     1      -5.659  17.976   8.751  0.00  0.00    -0.120 NA
ATOM     30  C   UNL     1      -5.640  16.677   8.744  0.00  0.00    +0.218 A 
ATOM     31  N   UNL     1      -4.501  16.247   9.380  0.00  0.00    -0.190 N 
ATOM     32  N   UNL     1      -4.319  14.873   9.463  0.00  0.00    -0.156 NA
ATOM     33  C   UNL     1      -5.195  14.042   8.958  0.00  0.00    +0.132 A 
ATOM     34  S   UNL     1      -6.417  15.151   8.276  0.00  0.00    -0.026 S 
BRANCH  27  36
ATOM     35  C   UNL     1      -1.411  17.576   9.484  0.00  0.00    +0.012 C 
ATOM     36  C   UNL     1      -2.562  17.523  10.490  0.00  0.00    +0.075 C 
ENDBRANCH  27  36
ENDBRANCH  21  33
ENDBRANCH  20  24
ENDBRANCH   1  20
TORSDOF 9
