REMARK  Name = ZINC38546333
REMARK  10 active torsions:
REMARK  status: ('A' for Active; 'I' for Inactive)
REMARK    1  A    between atoms: C_1  and  C_2
REMARK    2  A    between atoms: N_5  and  C_8
REMARK    3  A    between atoms: C_8  and  C_10
REMARK    4  A    between atoms: C_8  and  C_20
REMARK    5  A    between atoms: C_13  and  O_18
REMARK    6  A    between atoms: C_14  and  O_16
REMARK    7  A    between atoms: O_16  and  C_17
REMARK    8  A    between atoms: O_18  and  C_19
REMARK    9  A    between atoms: C_24  and  N_25
REMARK   10  A    between atoms: C_26  and  C_28
REMARK                            x       y       z     vdW  Elec       q    Type
REMARK                         _______ _______ _______ _____ _____    ______ ____
ROOT
ATOM      1  C   UNL     1       1.546  -3.570  -0.376  0.00  0.00    -0.004 C 
ENDROOT
BRANCH   1   2
ATOM      2  C   UNL     1       2.179  -4.449  -1.424  0.00  0.00    -0.025 A 
ATOM      3  C   UNL     1       1.465  -5.521  -1.961  0.00  0.00    -0.033 A 
ATOM      4  C   UNL     1       2.103  -6.268  -2.901  0.00  0.00    -0.005 A 
ATOM      5  S   UNL     1       3.692  -5.496  -3.052  0.00  0.00    -0.078 S 
ATOM      6  C   UNL     1       3.444  -4.196  -1.852  0.00  0.00    +0.074 A 
ATOM      7  C   UNL     1       1.575  -7.461  -3.629  0.00  0.00    +0.043 C 
ATOM      8  C   UNL     1       0.319  -7.957  -2.897  0.00  0.00    +0.005 C 
ATOM      9  C   UNL     1      -0.589  -6.756  -2.613  0.00  0.00    +0.005 C 
ATOM     10  C   UNL     1       0.040  -5.867  -1.540  0.00  0.00    +0.036 C 
BRANCH   6  11
ATOM     11  N   UNL     1       4.322  -3.185  -1.456  0.00  0.00    -0.273 N 
ATOM     12  C   UNL     1       5.493  -3.018  -2.102  0.00  0.00    +0.284 C 
ATOM     13  O   UNL     1       5.785  -3.748  -3.031  0.00  0.00    -0.266 OA
ATOM     14  H   UNL     1       4.089  -2.603  -0.716  0.00  0.00    +0.156 HD
BRANCH  12  15
ATOM     15  C   UNL     1       6.415  -1.956  -1.686  0.00  0.00    +0.189 A 
ATOM     16  C   UNL     1       7.624  -1.675  -2.254  0.00  0.00    +0.054 A 
ATOM     17  C   UNL     1       8.161  -0.589  -1.544  0.00  0.00    +0.042 A 
ATOM     18  C   UNL     1       7.267  -0.259  -0.587  0.00  0.00    +0.196 A 
ATOM     19  O   UNL     1       6.214  -1.082  -0.678  0.00  0.00    -0.458 OA
ENDBRANCH  12  15
ENDBRANCH   6  11
ENDBRANCH   1   2
BRANCH   1  24
ATOM     20  C   UNL     1       1.068   1.901  -1.913  0.00  0.00    +0.007 C 
ATOM     21  C   UNL     1       0.751   0.451  -1.542  0.00  0.00    -0.018 C 
ATOM     22  C   UNL     1       1.450  -0.493  -2.524  0.00  0.00    -0.015 C 
ATOM     23  C   UNL     1       1.195  -1.941  -2.100  0.00  0.00    -0.077 C 
ATOM     24  N   UNL     1       1.724  -2.159  -0.748  0.00  0.00    +0.387 N 
ATOM     25  C   UNL     1       1.008  -1.309   0.210  0.00  0.00    -0.077 C 
ATOM     26  C   UNL     1       1.256   0.164  -0.125  0.00  0.00    -0.015 C 
ATOM     27  H   UNL     1       2.706  -1.931  -0.731  0.00  0.00    -0.080 HD
ENDBRANCH   1  24
BRANCH   1  28
ATOM     28  C   UNL     1       2.203  -3.824   0.956  0.00  0.00    -0.053 A 
ATOM     29  C   UNL     1       3.222  -2.998   1.392  0.00  0.00    +0.006 A 
ATOM     30  C   UNL     1       3.827  -3.228   2.614  0.00  0.00    +0.049 A 
ATOM     31  C   UNL     1       3.412  -4.287   3.404  0.00  0.00    +0.161 A 
ATOM     32  C   UNL     1       2.386  -5.118   2.966  0.00  0.00    +0.162 A 
ATOM     33  C   UNL     1       1.780  -4.880   1.742  0.00  0.00    +0.051 A 
BRANCH  32  34
ATOM     34  O   UNL     1       1.976  -6.160   3.738  0.00  0.00    -0.491 OA
ATOM     35  C   UNL     1       0.917  -6.971   3.224  0.00  0.00    +0.277 C 
ENDBRANCH  32  34
BRANCH  31  36
ATOM     36  O   UNL     1       4.007  -4.514   4.606  0.00  0.00    -0.491 OA
ATOM     37  C   UNL     1       5.054  -3.621   4.991  0.00  0.00    +0.277 C 
ENDBRANCH  31  36
ENDBRANCH   1  28
TORSDOF 7
