REMARK  Name = ZINC10000931
REMARK  10 active torsions:
REMARK  status: ('A' for Active; 'I' for Inactive)
REMARK    1  A    between atoms: C_1  and  C_2
REMARK    2  A    between atoms: C_2  and  C_3
REMARK    3  A    between atoms: C_2  and  C_4
REMARK    4  A    between atoms: C_4  and  C_6
REMARK    5  A    between atoms: C_4  and  N_20
REMARK    6  A    between atoms: N_8  and  N_9
REMARK    7  A    between atoms: C_10  and  C_11
REMARK    8  A    between atoms: C_16  and  O_17
REMARK    9  A    between atoms: O_17  and  C_18
REMARK   10  A    between atoms: C_21  and  C_23
REMARK                            x       y       z     vdW  Elec       q    Type
REMARK                         _______ _______ _______ _____ _____    ______ ____
ROOT
ATOM      1  C   UNL     1      -0.688   1.697  -1.507  0.00  0.00    +0.163 C 
ENDROOT
BRANCH   1   2
ATOM      2  C   UNL     1      -2.131   1.274  -1.416  0.00  0.00    +0.253 C 
ATOM      3  O   UNL     1      -3.011   2.051  -1.722  0.00  0.00    -0.272 OA
ATOM      4  N   UNL     1      -2.445   0.033  -0.995  0.00  0.00    -0.205 N 
ATOM      5  H   UNL     1      -1.742  -0.612  -0.820  0.00  0.00    +0.177 HD
BRANCH   4   6
ATOM      6  N   UNL     1      -3.786  -0.326  -0.811  0.00  0.00    -0.188 NA
ATOM      7  C   UNL     1      -4.088  -1.522  -0.405  0.00  0.00    +0.142 C 
BRANCH   7   8
ATOM      8  C   UNL     1      -5.500  -1.900  -0.211  0.00  0.00    +0.037 A 
ATOM      9  C   UNL     1      -5.829  -3.185   0.225  0.00  0.00    +0.028 A 
ATOM     10  C   UNL     1      -7.152  -3.532   0.405  0.00  0.00    +0.019 A 
ATOM     11  C   UNL     1      -8.156  -2.611   0.154  0.00  0.00    +0.019 A 
ATOM     12  C   UNL     1      -7.842  -1.336  -0.278  0.00  0.00    +0.047 A 
ATOM     13  C   UNL     1      -6.518  -0.970  -0.458  0.00  0.00    +0.129 A 
ATOM     14 BR   UNL     1      -7.597  -5.273   0.995  0.00  0.00    -0.050 Br
BRANCH  13  15
ATOM     15  O   UNL     1      -6.209   0.285  -0.877  0.00  0.00    -0.494 OA
ATOM     16  C   UNL     1      -7.300   1.179  -1.108  0.00  0.00    +0.277 C 
ENDBRANCH  13  15
ENDBRANCH   7   8
ENDBRANCH   4   6
ENDBRANCH   1   2
BRANCH   1  17
ATOM     17  N   UNL     1      -0.579   2.882  -2.361  0.00  0.00    -0.300 N 
ATOM     18  C   UNL     1       0.578   3.150  -2.998  0.00  0.00    +0.245 C 
ATOM     19  O   UNL     1       1.532   2.408  -2.864  0.00  0.00    -0.270 OA
ATOM     20  H   UNL     1      -1.340   3.474  -2.468  0.00  0.00    +0.150 HD
BRANCH  18  21
ATOM     21  C   UNL     1       0.688   4.344  -3.859  0.00  0.00    +0.040 A 
ATOM     22  C   UNL     1      -0.408   5.195  -4.019  0.00  0.00    +0.017 A 
ATOM     23  C   UNL     1      -0.303   6.312  -4.818  0.00  0.00    +0.050 A 
ATOM     24  C   UNL     1       0.888   6.590  -5.476  0.00  0.00    +0.166 A 
ATOM     25  C   UNL     1       1.985   5.741  -5.325  0.00  0.00    +0.167 A 
ATOM     26  C   UNL     1       1.887   4.623  -4.520  0.00  0.00    +0.062 A 
ATOM     27  O   UNL     1       3.021   6.232  -6.067  0.00  0.00    -0.453 OA
ATOM     28  C   UNL     1       2.424   7.158  -6.994  0.00  0.00    +0.466 C 
ATOM     29  O   UNL     1       1.239   7.609  -6.311  0.00  0.00    -0.453 OA
ENDBRANCH  18  21
ENDBRANCH   1  17
BRANCH   1  31
ATOM     30  C   UNL     1       1.326   2.366  -0.188  0.00  0.00    +0.009 C 
ATOM     31  C   UNL     1      -0.164   2.027  -0.108  0.00  0.00    +0.012 C 
ATOM     32  C   UNL     1      -0.930   3.226   0.454  0.00  0.00    +0.009 C 
ENDBRANCH   1  31
TORSDOF 7
