REMARK  Name = ZINC40427284
REMARK  5 active torsions:
REMARK  status: ('A' for Active; 'I' for Inactive)
REMARK    1  A    between atoms: C_1  and  C_2
REMARK    2  A    between atoms: N_11  and  C_12
REMARK    3  A    between atoms: C_19  and  C_21
REMARK    4  A    between atoms: C_21  and  N_22
REMARK    5  A    between atoms: C_30  and  C_32
REMARK                            x       y       z     vdW  Elec       q    Type
REMARK                         _______ _______ _______ _____ _____    ______ ____
ROOT
ATOM      1  C   UNL     1      -0.900   1.143   0.698  0.00  0.00    +0.030 C 
ATOM      2  C   UNL     1      -0.585  -0.347   0.552  0.00  0.00    +0.092 C 
ATOM      3  C   UNL     1      -0.168  -0.647  -0.893  0.00  0.00    +0.130 C 
ATOM      4  N   UNL     1       0.375  -2.011  -0.952  0.00  0.00    -0.297 N 
ATOM      5  C   UNL     1       1.485  -2.370  -0.059  0.00  0.00    +0.127 C 
ATOM      6  C   UNL     1       1.068  -2.071   1.386  0.00  0.00    +0.128 C 
ATOM      7  N   UNL     1       0.522  -0.708   1.449  0.00  0.00    -0.280 N 
ATOM      8  C   UNL     1       1.031   0.197   2.308  0.00  0.00    +0.307 C 
ATOM      9  O   UNL     1       0.468   1.262   2.474  0.00  0.00    -0.252 OA
ATOM     10  N   UNL     1       2.163  -0.080   2.985  0.00  0.00    -0.269 N 
ATOM     11  C   UNL     1      -0.135  -2.916  -1.811  0.00  0.00    +0.230 C 
ATOM     12  O   UNL     1      -1.051  -2.607  -2.543  0.00  0.00    -0.274 OA
ATOM     13  H   UNL     1       2.667  -0.883   2.780  0.00  0.00    +0.156 HD
ENDROOT
BRANCH  10  14
ATOM     14  C   UNL     1       2.612   0.792   3.983  0.00  0.00    +0.037 A 
ATOM     15  C   UNL     1       2.283   2.141   3.929  0.00  0.00    +0.023 A 
ATOM     16  C   UNL     1       2.727   3.000   4.915  0.00  0.00    +0.005 A 
ATOM     17  C   UNL     1       3.499   2.520   5.956  0.00  0.00    +0.038 A 
ATOM     18  C   UNL     1       3.830   1.177   6.014  0.00  0.00    +0.125 A 
ATOM     19  C   UNL     1       3.383   0.311   5.032  0.00  0.00    +0.061 A 
ATOM     20  F   UNL     1       4.586   0.711   7.033  0.00  0.00    -0.205 F 
ENDBRANCH  10  14
BRANCH  11  21
ATOM     21  C   UNL     1       0.432  -4.311  -1.860  0.00  0.00    +0.181 C 
BRANCH  21  22
ATOM     22  N   UNL     1      -0.290  -5.098  -2.869  0.00  0.00    -0.283 NA
ATOM     23  C   UNL     1      -0.073  -4.553  -4.216  0.00  0.00    +0.091 C 
ATOM     24  C   UNL     1      -1.143  -5.126  -5.161  0.00  0.00    +0.058 C 
ATOM     25  C   UNL     1      -1.222  -6.598  -4.920  0.00  0.00    -0.004 A 
ATOM     26  C   UNL     1      -0.691  -7.280  -3.866  0.00  0.00    -0.016 A 
ATOM     27  C   UNL     1      -0.889  -8.658  -3.853  0.00  0.00    +0.013 A 
ATOM     28  C   UNL     1      -1.581  -9.252  -4.854  0.00  0.00    +0.046 A 
ATOM     29  S   UNL     1      -1.998  -7.858  -5.892  0.00  0.00    -0.101 S 
ATOM     30  C   UNL     1       0.069  -6.519  -2.783  0.00  0.00    +0.118 C 
BRANCH  30  31
ATOM     31  C   UNL     1      -0.310  -7.056  -1.427  0.00  0.00    -0.023 A 
ATOM     32  C   UNL     1      -1.502  -6.672  -0.840  0.00  0.00    +0.006 A 
ATOM     33  C   UNL     1      -1.851  -7.164   0.403  0.00  0.00    +0.003 A 
ATOM     34  C   UNL     1      -1.009  -8.040   1.062  0.00  0.00    +0.038 A 
ATOM     35  C   UNL     1       0.185  -8.425   0.476  0.00  0.00    +0.124 A 
ATOM     36  C   UNL     1       0.530  -7.936  -0.773  0.00  0.00    +0.043 A 
ATOM     37  F   UNL     1       1.009  -9.280   1.119  0.00  0.00    -0.205 F 
ENDBRANCH  30  31
ENDBRANCH  21  22
ENDBRANCH  11  21
TORSDOF 4
