REMARK  Name = ZINC01186092
REMARK  6 active torsions:
REMARK  status: ('A' for Active; 'I' for Inactive)
REMARK    1  A    between atoms: C_4  and  S_7
REMARK    2  A    between atoms: S_7  and  N_10
REMARK    3  A    between atoms: N_10  and  C_11
REMARK    4  A    between atoms: N_10  and  C_22
REMARK    5  A    between atoms: C_11  and  C_12
REMARK    6  A    between atoms: N_14  and  C_15
REMARK                            x       y       z     vdW  Elec       q    Type
REMARK                         _______ _______ _______ _____ _____    ______ ____
ROOT
ATOM      1  N   UNL     1       4.347  -1.062  -1.631  0.00  0.00    -0.191 N 
ENDROOT
BRANCH   1   2
ATOM      2  C   UNL     1       5.105  -0.096  -2.301  0.00  0.00    +0.087 A 
ATOM      3  C   UNL     1       4.474   0.880  -3.060  0.00  0.00    +0.027 A 
ATOM      4  C   UNL     1       5.225   1.835  -3.718  0.00  0.00    +0.002 A 
ATOM      5  C   UNL     1       6.605   1.815  -3.628  0.00  0.00    +0.003 A 
ATOM      6  C   UNL     1       7.238   0.842  -2.877  0.00  0.00    +0.040 A 
ATOM      7  C   UNL     1       6.493  -0.115  -2.213  0.00  0.00    +0.146 A 
ATOM      8  F   UNL     1       7.112  -1.066  -1.480  0.00  0.00    -0.203 F 
ENDBRANCH   1   2
BRANCH   1   9
ATOM      9  S   UNL     1       3.942  -0.840  -0.041  0.00  0.00    +0.075 S 
ATOM     10  O   UNL     1       4.908   0.048   0.504  0.00  0.00    -0.150 OA
ATOM     11  O   UNL     1       3.701  -2.131   0.501  0.00  0.00    -0.150 OA
BRANCH   9  15
ATOM     12  C   UNL     1      -0.018   1.353   0.037  0.00  0.00    +0.000 A 
ATOM     13  C   UNL     1       1.167   2.066   0.027  0.00  0.00    +0.002 A 
ATOM     14  C   UNL     1       2.376   1.396   0.003  0.00  0.00    +0.029 A 
ATOM     15  C   UNL     1       2.401   0.014  -0.011  0.00  0.00    +0.109 A 
ATOM     16  C   UNL     1       1.216  -0.698  -0.000  0.00  0.00    +0.029 A 
ATOM     17  C   UNL     1       0.007  -0.029   0.024  0.00  0.00    +0.002 A 
ENDBRANCH   9  15
ENDBRANCH   1   9
BRANCH   1  18
ATOM     18  C   UNL     1       3.912  -2.270  -2.336  0.00  0.00    +0.227 C 
BRANCH  18  19
ATOM     19  C   UNL     1       2.630  -1.985  -3.076  0.00  0.00    +0.236 C 
ATOM     20  O   UNL     1       2.129  -0.882  -3.020  0.00  0.00    -0.274 OA
ATOM     21  N   UNL     1       2.040  -2.957  -3.800  0.00  0.00    -0.284 N 
ATOM     22  H   UNL     1       2.474  -3.818  -3.900  0.00  0.00    +0.155 HD
BRANCH  21  23
ATOM     23  C   UNL     1       0.801  -2.722  -4.408  0.00  0.00    +0.033 A 
ATOM     24  C   UNL     1      -0.129  -3.749  -4.511  0.00  0.00    +0.024 A 
ATOM     25  C   UNL     1      -1.353  -3.513  -5.106  0.00  0.00    +0.017 A 
ATOM     26  C   UNL     1      -1.649  -2.259  -5.609  0.00  0.00    +0.018 A 
ATOM     27  C   UNL     1      -0.722  -1.236  -5.513  0.00  0.00    +0.017 A 
ATOM     28  C   UNL     1       0.501  -1.464  -4.913  0.00  0.00    +0.024 A 
ATOM     29 BR   UNL     1      -3.323  -1.942  -6.429  0.00  0.00    -0.050 Br
ENDBRANCH  21  23
ENDBRANCH  18  19
ENDBRANCH   1  18
TORSDOF 6
