REMARK  Name = ZINC06135906
REMARK  5 active torsions:
REMARK  status: ('A' for Active; 'I' for Inactive)
REMARK    1  A    between atoms: C_1  and  N_2
REMARK    2  A    between atoms: N_2  and  C_3
REMARK    3  A    between atoms: N_2  and  C_4
REMARK    4  A    between atoms: C_7  and  C_10
REMARK    5  A    between atoms: C_27  and  C_29
REMARK                            x       y       z     vdW  Elec       q    Type
REMARK                         _______ _______ _______ _____ _____    ______ ____
ROOT
ATOM      1  C   UNL     1       0.071  -2.680  -5.435  0.00  0.00    +0.234 C 
ATOM      2  C   UNL     1       1.534  -2.827  -5.734  0.00  0.00    +0.027 C 
ATOM      3  C   UNL     1       2.164  -1.946  -6.538  0.00  0.00    +0.083 C 
ATOM      4  C   UNL     1       1.351  -0.846  -7.116  0.00  0.00    +0.042 A 
ATOM      5  C   UNL     1       1.945   0.277  -7.677  0.00  0.00    +0.013 A 
ATOM      6  C   UNL     1       1.150   1.278  -8.202  0.00  0.00    +0.001 A 
ATOM      7  C   UNL     1      -0.229   1.163  -8.169  0.00  0.00    +0.004 A 
ATOM      8  C   UNL     1      -0.827   0.048  -7.613  0.00  0.00    +0.046 A 
ATOM      9  C   UNL     1      -0.044  -0.963  -7.084  0.00  0.00    +0.131 A 
ATOM     10  O   UNL     1      -0.601  -2.070  -6.539  0.00  0.00    -0.479 OA
ATOM     11  N   UNL     1       3.486  -2.058  -6.814  0.00  0.00    -0.213 NA
ATOM     12  C   UNL     1       4.262  -3.009  -6.348  0.00  0.00    +0.237 C 
ATOM     13  N   UNL     1       5.577  -3.266  -6.522  0.00  0.00    -0.205 NA
ATOM     14  C   UNL     1       5.922  -4.335  -5.857  0.00  0.00    +0.203 C 
ATOM     15  N   UNL     1       4.835  -4.836  -5.207  0.00  0.00    -0.251 N 
ATOM     16  N   UNL     1       3.766  -3.991  -5.514  0.00  0.00    -0.208 N 
ATOM     17  C   UNL     1       2.346  -3.961  -5.147  0.00  0.00    +0.160 C 
ATOM     18  H   UNL     1       4.809  -5.624  -4.642  0.00  0.00    +0.171 HD
ENDROOT
BRANCH  17  19
ATOM     19  C   UNL     1       1.720  -5.261  -5.580  0.00  0.00    -0.003 A 
ATOM     20  C   UNL     1       1.008  -6.022  -4.671  0.00  0.00    +0.009 A 
ATOM     21  C   UNL     1       0.434  -7.215  -5.068  0.00  0.00    +0.020 A 
ATOM     22  C   UNL     1       0.570  -7.647  -6.376  0.00  0.00    +0.042 A 
ATOM     23  C   UNL     1       1.280  -6.886  -7.285  0.00  0.00    +0.040 A 
ATOM     24  C   UNL     1       1.851  -5.690  -6.889  0.00  0.00    +0.048 A 
ATOM     25 CL   UNL     1       2.739  -4.730  -8.031  0.00  0.00    -0.083 Cl
ATOM     26 CL   UNL     1      -0.152  -9.146  -6.874  0.00  0.00    -0.083 Cl
ENDBRANCH  17  19
BRANCH   1  30
ATOM     27  C   UNL     1      -0.423  -0.243  -1.958  0.00  0.00    +0.029 A 
ATOM     28  C   UNL     1      -0.561  -1.623  -1.867  0.00  0.00    +0.023 A 
ATOM     29  C   UNL     1      -0.401  -2.407  -2.993  0.00  0.00    +0.009 A 
ATOM     30  C   UNL     1      -0.104  -1.821  -4.209  0.00  0.00    -0.003 A 
ATOM     31  C   UNL     1       0.035  -0.448  -4.304  0.00  0.00    +0.009 A 
ATOM     32  C   UNL     1      -0.129   0.343  -3.183  0.00  0.00    +0.023 A 
BRANCH  27  34
ATOM     33  C   UNL     1      -0.444   2.008  -0.921  0.00  0.00    +0.129 C 
ATOM     34  N   UNL     1      -0.584   0.553  -0.822  0.00  0.00    -0.336 N 
ATOM     35  C   UNL     1      -0.893  -0.067   0.469  0.00  0.00    +0.129 C 
ENDBRANCH  27  34
ENDBRANCH   1  30
TORSDOF 3
