REMARK  Name = ZINC64479979
REMARK  4 active torsions:
REMARK  status: ('A' for Active; 'I' for Inactive)
REMARK    1  A    between atoms: C_1  and  C_2
REMARK    2  A    between atoms: C_2  and  N_3
REMARK    3  A    between atoms: N_31  and  C_32
REMARK    4  A    between atoms: C_32  and  C_33
REMARK                            x       y       z     vdW  Elec       q    Type
REMARK                         _______ _______ _______ _____ _____    ______ ____
ROOT
ATOM      1  N   UNL     1       0.737  -0.479  -1.177  0.00  0.00    -0.299 N 
ATOM      2  C   UNL     1       0.833  -1.801  -1.420  0.00  0.00    +0.303 C 
ATOM      3  O   UNL     1       0.436  -2.602  -0.596  0.00  0.00    -0.253 OA
ATOM      4  N   UNL     1       1.370  -2.236  -2.577  0.00  0.00    -0.265 N 
ATOM      5  C   UNL     1       1.909  -1.264  -3.536  0.00  0.00    +0.115 C 
ATOM      6  C   UNL     1       3.382  -1.600  -3.834  0.00  0.00    +0.052 C 
ATOM      7  C   UNL     1       3.448  -3.087  -4.077  0.00  0.00    -0.034 C 
ATOM      8  C   UNL     1       3.954  -3.793  -5.080  0.00  0.00    -0.001 A 
ATOM      9  C   UNL     1       4.735  -3.395  -6.262  0.00  0.00    +0.010 A 
ATOM     10  C   UNL     1       5.078  -4.393  -7.118  0.00  0.00    +0.001 A 
ATOM     11  C   UNL     1       4.728  -5.732  -6.919  0.00  0.00    +0.002 A 
ATOM     12  C   UNL     1       4.021  -6.190  -5.855  0.00  0.00    +0.026 A 
ATOM     13  C   UNL     1       3.610  -5.234  -4.880  0.00  0.00    +0.043 A 
ATOM     14  N   UNL     1       2.954  -5.395  -3.769  0.00  0.00    -0.375 N 
ATOM     15  C   UNL     1       2.855  -4.098  -3.099  0.00  0.00    +0.144 C 
ATOM     16  C   UNL     1       1.414  -3.673  -2.859  0.00  0.00    +0.167 C 
ATOM     17  C   UNL     1       0.547  -4.024  -4.025  0.00  0.00    +0.009 A 
ATOM     18  C   UNL     1       0.585  -3.630  -5.346  0.00  0.00    +0.008 A 
ATOM     19  C   UNL     1      -0.388  -4.154  -6.189  0.00  0.00    +0.000 A 
ATOM     20  C   UNL     1      -1.348  -5.029  -5.723  0.00  0.00    +0.002 A 
ATOM     21  C   UNL     1      -1.393  -5.429  -4.396  0.00  0.00    +0.024 A 
ATOM     22  C   UNL     1      -0.422  -4.911  -3.539  0.00  0.00    +0.051 A 
ATOM     23  N   UNL     1      -0.232  -5.136  -2.185  0.00  0.00    -0.192 N 
ATOM     24  C   UNL     1       0.826  -4.450  -1.702  0.00  0.00    +0.258 C 
ATOM     25  O   UNL     1       1.228  -4.455  -0.558  0.00  0.00    -0.272 OA
ATOM     26  C   UNL     1      -1.010  -5.944  -1.438  0.00  0.00    +0.313 C 
ATOM     27  O   UNL     1      -1.886  -6.601  -1.966  0.00  0.00    -0.252 OA
ATOM     28  N   UNL     1      -0.817  -6.024  -0.107  0.00  0.00    -0.299 N 
ATOM     29  H   UNL     1       1.119   0.158  -1.800  0.00  0.00    +0.150 HD
ATOM     30  H   UNL     1      -0.073  -5.558   0.304  0.00  0.00    +0.150 HD
ATOM     31  H   UNL     1       2.592  -6.232  -3.439  0.00  0.00    +0.160 HD
ENDROOT
BRANCH   1  33
ATOM     32  C   UNL     1       0.085   1.525   0.065  0.00  0.00    +0.024 C 
ATOM     33  C   UNL     1       0.054  -0.004   0.030  0.00  0.00    +0.102 C 
ENDBRANCH   1  33
BRANCH  28  34
ATOM     34  C   UNL     1      -1.732  -6.816   0.720  0.00  0.00    +0.102 C 
ATOM     35  C   UNL     1      -1.292  -6.741   2.183  0.00  0.00    +0.024 C 
ENDBRANCH  28  34
TORSDOF 2
