REMARK  Name = ZINC36013798
REMARK  13 active torsions:
REMARK  status: ('A' for Active; 'I' for Inactive)
REMARK    1  A    between atoms: C_1  and  C_2
REMARK    2  A    between atoms: C_2  and  O_3
REMARK    3  A    between atoms: O_3  and  C_4
REMARK    4  A    between atoms: C_4  and  C_6
REMARK    5  A    between atoms: C_7  and  C_25
REMARK    6  A    between atoms: N_8  and  C_24
REMARK    7  A    between atoms: C_12  and  C_14
REMARK    8  A    between atoms: C_18  and  O_22
REMARK    9  A    between atoms: C_19  and  O_20
REMARK   10  A    between atoms: O_20  and  C_21
REMARK   11  A    between atoms: O_22  and  C_23
REMARK   12  A    between atoms: C_25  and  N_26
REMARK   13  A    between atoms: C_32  and  C_34
REMARK                            x       y       z     vdW  Elec       q    Type
REMARK                         _______ _______ _______ _____ _____    ______ ____
ROOT
ATOM      1  C   UNL     1      -2.688  -2.363  -0.173  0.00  0.00    +0.080 C 
ATOM      2  C   UNL     1      -3.097  -3.639  -0.342  0.00  0.00    +0.041 C 
ATOM      3  N   UNL     1      -4.412  -3.982  -0.204  0.00  0.00    -0.260 N 
ATOM      4  C   UNL     1      -5.379  -3.107   0.102  0.00  0.00    +0.307 C 
ATOM      5  O   UNL     1      -6.522  -3.507   0.204  0.00  0.00    -0.252 OA
ATOM      6  N   UNL     1      -5.125  -1.798   0.301  0.00  0.00    -0.288 N 
ATOM      7  C   UNL     1      -3.735  -1.327   0.181  0.00  0.00    +0.147 C 
ATOM      8  C   UNL     1      -4.786  -5.384  -0.401  0.00  0.00    +0.139 C 
ATOM      9  H   UNL     1      -5.841  -1.182   0.521  0.00  0.00    +0.151 HD
ENDROOT
BRANCH   7  10
ATOM     10  C   UNL     1      -3.339  -0.695   1.490  0.00  0.00    +0.023 A 
ATOM     11  C   UNL     1      -3.877  -1.162   2.675  0.00  0.00    +0.009 A 
ATOM     12  C   UNL     1      -3.516  -0.584   3.877  0.00  0.00    +0.004 A 
ATOM     13  C   UNL     1      -2.615   0.465   3.900  0.00  0.00    +0.049 A 
ATOM     14  C   UNL     1      -2.072   0.938   2.717  0.00  0.00    +0.162 A 
ATOM     15  C   UNL     1      -2.431   0.351   1.507  0.00  0.00    +0.167 A 
BRANCH  15  16
ATOM     16  O   UNL     1      -1.896   0.808   0.343  0.00  0.00    -0.491 OA
ATOM     17  C   UNL     1      -2.598   1.859  -0.325  0.00  0.00    +0.277 C 
ENDBRANCH  15  16
BRANCH  14  18
ATOM     18  O   UNL     1      -1.185   1.969   2.738  0.00  0.00    -0.491 OA
ATOM     19  C   UNL     1      -0.859   2.518   4.017  0.00  0.00    +0.277 C 
ENDBRANCH  14  18
ENDBRANCH   7  10
BRANCH   1  20
ATOM     20  C   UNL     1      -1.326  -2.007  -0.316  0.00  0.00    +0.339 C 
ATOM     21  O   UNL     1      -0.937  -1.492  -1.347  0.00  0.00    -0.245 OA
BRANCH  20  22
ATOM     22  O   UNL     1      -0.459  -2.240   0.691  0.00  0.00    -0.462 OA
BRANCH  22  24
ATOM     23  C   UNL     1       1.728  -2.194   1.720  0.00  0.00    +0.048 C 
ATOM     24  C   UNL     1       0.901  -1.855   0.478  0.00  0.00    +0.229 C 
ENDBRANCH  22  24
ENDBRANCH  20  22
ENDBRANCH   1  20
BRANCH   2  25
ATOM     25  C   UNL     1      -2.087  -4.702  -0.690  0.00  0.00    +0.136 C 
BRANCH  25  26
ATOM     26  N   UNL     1      -2.365  -5.220  -2.036  0.00  0.00    -0.294 NA
ATOM     27  C   UNL     1      -2.029  -4.226  -3.063  0.00  0.00    +0.104 C 
ATOM     28  C   UNL     1      -2.499  -4.730  -4.432  0.00  0.00    +0.123 C 
ATOM     29  N   UNL     1      -1.935  -6.069  -4.655  0.00  0.00    -0.295 N 
ATOM     30  C   UNL     1      -2.114  -7.084  -3.605  0.00  0.00    +0.123 C 
ATOM     31  C   UNL     1      -1.659  -6.487  -2.269  0.00  0.00    +0.104 C 
ATOM     32  C   UNL     1      -1.272  -6.360  -5.792  0.00  0.00    +0.253 C 
ATOM     33  O   UNL     1      -1.017  -5.478  -6.590  0.00  0.00    -0.269 OA
BRANCH  32  34
ATOM     34  C   UNL     1      -0.859  -7.739  -6.067  0.00  0.00    +0.074 A 
ATOM     35  C   UNL     1      -0.031  -8.220  -7.071  0.00  0.00    +0.021 A 
ATOM     36  C   UNL     1       0.175  -9.579  -7.074  0.00  0.00    +0.008 A 
ATOM     37  C   UNL     1      -0.425 -10.339  -6.126  0.00  0.00    +0.046 A 
ATOM     38  S   UNL     1      -1.282  -9.235  -5.194  0.00  0.00    -0.092 S 
ENDBRANCH  32  34
ENDBRANCH  25  26
ENDBRANCH   2  25
TORSDOF 9
