REMARK  Name = ZINC06788559
REMARK  5 active torsions:
REMARK  status: ('A' for Active; 'I' for Inactive)
REMARK    1  A    between atoms: C_1  and  C_2
REMARK    2  A    between atoms: C_5  and  C_8
REMARK    3  A    between atoms: C_12  and  C_22
REMARK    4  A    between atoms: C_17  and  N_21
REMARK    5  A    between atoms: C_18  and  C_19
REMARK                            x       y       z     vdW  Elec       q    Type
REMARK                         _______ _______ _______ _____ _____    ______ ____
ROOT
ATOM      1  C   UNL     1       0.059  -4.275  -0.021  0.00  0.00    +0.082 C 
ATOM      2  C   UNL     1       1.319  -4.776   0.695  0.00  0.00    +0.143 C 
ATOM      3  C   UNL     1       2.475  -3.826   0.477  0.00  0.00    +0.119 C 
ATOM      4  N   UNL     1       2.780  -3.349   1.658  0.00  0.00    -0.147 NA
ATOM      5  N   UNL     1       1.938  -3.838   2.657  0.00  0.00    -0.114 NA
ATOM      6  C   UNL     1       1.032  -4.642   2.188  0.00  0.00    +0.227 C 
ATOM      7  O   UNL     1      -0.043  -5.238   2.750  0.00  0.00    -0.425 OA
ATOM      8  C   UNL     1      -1.159  -5.223   1.977  0.00  0.00    +0.200 C 
ATOM      9  C   UNL     1      -1.156  -4.798   0.695  0.00  0.00    +0.095 C 
ENDROOT
BRANCH   1  14
ATOM     10  C   UNL     1      -0.018   1.503   0.010  0.00  0.00    +0.044 C 
ATOM     11  C   UNL     1       0.002  -0.004   0.002  0.00  0.00    -0.050 A 
ATOM     12  C   UNL     1       0.006  -0.689  -1.199  0.00  0.00    +0.003 A 
ATOM     13  C   UNL     1       0.025  -2.071  -1.206  0.00  0.00    +0.004 A 
ATOM     14  C   UNL     1       0.040  -2.768  -0.013  0.00  0.00    -0.038 A 
ATOM     15  C   UNL     1       0.037  -2.084   1.188  0.00  0.00    +0.004 A 
ATOM     16  C   UNL     1       0.023  -0.702   1.195  0.00  0.00    +0.003 A 
ENDBRANCH   1  14
BRANCH   3  17
ATOM     17  C   UNL     1       3.121  -3.505  -0.794  0.00  0.00    +0.151 A 
ATOM     18  C   UNL     1       4.170  -2.645  -0.968  0.00  0.00    +0.051 A 
ATOM     19  C   UNL     1       4.465  -2.641  -2.342  0.00  0.00    +0.042 A 
ATOM     20  C   UNL     1       3.596  -3.485  -2.938  0.00  0.00    +0.196 A 
ATOM     21  O   UNL     1       2.790  -4.009  -2.001  0.00  0.00    -0.462 OA
ENDBRANCH   3  17
BRANCH   8  22
ATOM     22  N   UNL     1      -2.341  -5.660   2.521  0.00  0.00    -0.328 N 
ATOM     23  H   UNL     1      -2.366  -5.971   3.440  0.00  0.00    +0.145 HD
ATOM     24  H   UNL     1      -3.151  -5.659   1.987  0.00  0.00    +0.145 HD
ENDBRANCH   8  22
BRANCH   9  25
ATOM     25  C   UNL     1      -2.390  -4.847  -0.030  0.00  0.00    +0.100 C 
ATOM     26  N   UNL     1      -3.369  -4.886  -0.606  0.00  0.00    -0.191 NA
ENDBRANCH   9  25
TORSDOF 4
