REMARK  Name = ZINC24875391
REMARK  10 active torsions:
REMARK  status: ('A' for Active; 'I' for Inactive)
REMARK    1  A    between atoms: C_1  and  C_2
REMARK    2  A    between atoms: C_3  and  C_33
REMARK    3  A    between atoms: N_9  and  C_32
REMARK    4  A    between atoms: C_10  and  S_12
REMARK    5  A    between atoms: S_12  and  C_13
REMARK    6  A    between atoms: C_13  and  C_15
REMARK    7  A    between atoms: C_13  and  C_16
REMARK    8  A    between atoms: N_18  and  C_19
REMARK    9  A    between atoms: C_19  and  C_20
REMARK   10  A    between atoms: C_19  and  C_26
REMARK                            x       y       z     vdW  Elec       q    Type
REMARK                         _______ _______ _______ _____ _____    ______ ____
ROOT
ATOM      1  C   UNL     1      -2.143   1.058   1.278  0.00  0.00    +0.227 C 
ATOM      2  O   UNL     1      -3.045   1.743   0.846  0.00  0.00    -0.275 OA
ATOM      3  N   UNL     1      -2.404  -0.171   1.767  0.00  0.00    -0.304 N 
ATOM      4  H   UNL     1      -1.585  -0.792   2.158  0.00  0.00    +0.150 HD
ENDROOT
BRANCH   1   5
ATOM      5  C   UNL     1      -0.729   1.579   1.267  0.00  0.00    +0.137 C 
ATOM      6  C   UNL     1      -0.013   1.086   0.008  0.00  0.00    +0.029 C 
BRANCH   5   7
ATOM      7  S   UNL     1      -0.753   3.389   1.277  0.00  0.00    -0.075 S 
BRANCH   7  17
ATOM      8  C   UNL     1       5.821   5.618   1.803  0.00  0.00    +0.045 C 
ATOM      9  C   UNL     1       5.115   4.288   1.740  0.00  0.00    -0.026 A 
ATOM     10  C   UNL     1       5.815   3.145   1.787  0.00  0.00    -0.008 A 
ATOM     11  S   UNL     1       4.558   1.885   1.681  0.00  0.00    -0.073 S 
ATOM     12  C   UNL     1       3.128   2.930   1.576  0.00  0.00    +0.117 A 
ATOM     13  C   UNL     1       3.667   4.229   1.627  0.00  0.00    +0.075 A 
ATOM     14  C   UNL     1       2.720   5.300   1.560  0.00  0.00    +0.263 A 
ATOM     15  O   UNL     1       3.095   6.459   1.597  0.00  0.00    -0.267 OA
ATOM     16  N   UNL     1       1.411   5.010   1.450  0.00  0.00    -0.290 N 
ATOM     17  C   UNL     1       0.972   3.718   1.413  0.00  0.00    +0.173 A 
ATOM     18  N   UNL     1       1.823   2.713   1.473  0.00  0.00    -0.216 NA
ATOM     19  C   UNL     1       0.437   6.101   1.375  0.00  0.00    +0.154 C 
ATOM     20  C   UNL     1       7.307   2.969   1.902  0.00  0.00    +0.052 C 
ENDBRANCH   7  17
ENDBRANCH   5   7
ENDBRANCH   1   5
BRANCH   3  21
ATOM     21  C   UNL     1      -3.779  -0.678   1.777  0.00  0.00    +0.134 C 
BRANCH  21  22
ATOM     22  C   UNL     1      -3.758  -2.185   1.769  0.00  0.00    -0.023 A 
ATOM     23  C   UNL     1      -2.821  -2.867   2.521  0.00  0.00    +0.006 A 
ATOM     24  C   UNL     1      -2.805  -4.250   2.518  0.00  0.00    +0.000 A 
ATOM     25  C   UNL     1      -3.720  -4.949   1.753  0.00  0.00    +0.000 A 
ATOM     26  C   UNL     1      -4.654  -4.266   0.996  0.00  0.00    +0.000 A 
ATOM     27  C   UNL     1      -4.673  -2.884   1.004  0.00  0.00    +0.006 A 
ENDBRANCH  21  22
BRANCH  21  28
ATOM     28  C   UNL     1      -4.484  -0.192   3.017  0.00  0.00    -0.023 A 
ATOM     29  C   UNL     1      -3.814  -0.160   4.226  0.00  0.00    +0.006 A 
ATOM     30  C   UNL     1      -4.459   0.290   5.362  0.00  0.00    +0.000 A 
ATOM     31  C   UNL     1      -5.778   0.700   5.292  0.00  0.00    +0.000 A 
ATOM     32  C   UNL     1      -6.450   0.662   4.084  0.00  0.00    +0.000 A 
ATOM     33  C   UNL     1      -5.802   0.217   2.947  0.00  0.00    +0.006 A 
ENDBRANCH  21  28
ENDBRANCH   3  21
TORSDOF 6
