REMARK  Name = ZINC12347332
REMARK  5 active torsions:
REMARK  status: ('A' for Active; 'I' for Inactive)
REMARK    1  A    between atoms: C_1  and  O_2
REMARK    2  A    between atoms: O_2  and  C_3
REMARK    3  A    between atoms: C_5  and  C_10
REMARK    4  A    between atoms: C_8  and  O_9
REMARK    5  A    between atoms: C_17  and  O_18
REMARK                            x       y       z     vdW  Elec       q    Type
REMARK                         _______ _______ _______ _____ _____    ______ ____
ROOT
ATOM      1  C   UNL     1       1.227  -2.186  -0.021  0.00  0.00    +0.092 C 
ATOM      2  C   UNL     1       1.928  -2.670  -1.259  0.00  0.00    +0.067 A 
ATOM      3  C   UNL     1       3.185  -3.211  -1.227  0.00  0.00    +0.126 A 
ATOM      4  N   UNL     1       3.524  -3.538  -2.489  0.00  0.00    -0.260 N 
ATOM      5  H   UNL     1       4.387  -3.950  -2.779  0.00  0.00    +0.190 HD
ATOM      6  N   UNL     1       2.448  -3.194  -3.324  0.00  0.00    -0.134 NA
ATOM      7  C   UNL     1       1.494  -2.675  -2.582  0.00  0.00    +0.237 A 
ATOM      8  N   UNL     1       3.885  -3.346  -0.035  0.00  0.00    -0.303 N 
ATOM      9  C   UNL     1       3.200  -3.211   1.147  0.00  0.00    +0.017 C 
ATOM     10  C   UNL     1       1.957  -2.687   1.206  0.00  0.00    +0.024 C 
ATOM     11  C   UNL     1       1.275  -2.585   2.432  0.00  0.00    +0.162 C 
ATOM     12  O   UNL     1       0.158  -2.106   2.452  0.00  0.00    -0.292 OA
ATOM     13  C   UNL     1       1.894  -3.055   3.718  0.00  0.00    +0.080 C 
ATOM     14  C   UNL     1       2.879  -4.188   3.411  0.00  0.00    +0.014 C 
ATOM     15  C   UNL     1       3.906  -3.671   2.402  0.00  0.00    +0.051 C 
ATOM     16  H   UNL     1       4.837  -3.532  -0.037  0.00  0.00    +0.153 HD
ENDROOT
BRANCH   1  19
ATOM     17  C   UNL     1      -0.017   1.381   0.010  0.00  0.00    +0.162 A 
ATOM     18  C   UNL     1       0.002  -0.004   0.002  0.00  0.00    +0.054 A 
ATOM     19  C   UNL     1       1.208  -0.679  -0.013  0.00  0.00    -0.032 A 
ATOM     20  C   UNL     1       2.398   0.026  -0.020  0.00  0.00    +0.008 A 
ATOM     21  C   UNL     1       2.386   1.408  -0.012  0.00  0.00    +0.049 A 
ATOM     22  C   UNL     1       1.181   2.091   0.002  0.00  0.00    +0.158 A 
BRANCH  17  24
ATOM     23  C   UNL     1      -2.392   1.254   0.020  0.00  0.00    +0.277 C 
ATOM     24  O   UNL     1      -1.203   2.047   0.019  0.00  0.00    -0.491 OA
ENDBRANCH  17  24
BRANCH  22  25
ATOM     25  O   UNL     1       1.167   3.450   0.009  0.00  0.00    -0.503 OA
ATOM     26  H   UNL     1       1.172   3.839   0.894  0.00  0.00    +0.292 HD
ENDBRANCH  22  25
ENDBRANCH   1  19
BRANCH   7  27
ATOM     27  O   UNL     1       0.293  -2.222  -3.030  0.00  0.00    -0.491 OA
ATOM     28  H   UNL     1       0.240  -2.343  -4.021  0.00  0.00    +0.294 HD
ENDBRANCH   7  27
TORSDOF 4
