REMARK  Name = ZINC59305614
REMARK  7 active torsions:
REMARK  status: ('A' for Active; 'I' for Inactive)
REMARK    1  A    between atoms: C_1  and  C_2
REMARK    2  A    between atoms: C_5  and  C_8
REMARK    3  A    between atoms: C_10  and  C_29
REMARK    4  A    between atoms: C_11  and  C_28
REMARK    5  A    between atoms: C_18  and  C_19
REMARK    6  A    between atoms: C_22  and  N_24
REMARK    7  A    between atoms: N_31  and  C_32
REMARK                            x       y       z     vdW  Elec       q    Type
REMARK                         _______ _______ _______ _____ _____    ______ ____
ROOT
ATOM      1  C   UNL     1       0.150  -5.602  -1.177  0.00  0.00    +0.160 C 
ATOM      2  C   UNL     1       1.637  -5.785  -0.962  0.00  0.00    +0.063 C 
ATOM      3  C   UNL     1       2.053  -6.290   0.237  0.00  0.00    +0.051 C 
ATOM      4  N   UNL     1       1.177  -6.608   1.182  0.00  0.00    -0.228 NA
ATOM      5  C   UNL     1      -0.118  -6.479   1.071  0.00  0.00    +0.178 A 
ATOM      6  N   UNL     1      -0.742  -5.990  -0.053  0.00  0.00    -0.275 N 
ATOM      7  C   UNL     1      -2.078  -5.919  -0.012  0.00  0.00    +0.268 A 
ATOM      8  O   UNL     1      -2.718  -5.501  -0.956  0.00  0.00    -0.266 OA
ATOM      9  C   UNL     1      -2.743  -6.371   1.232  0.00  0.00    +0.084 A 
ATOM     10  C   UNL     1      -4.122  -6.400   1.534  0.00  0.00    +0.067 C 
ATOM     11  S   UNL     1      -1.449  -6.840   2.195  0.00  0.00    -0.046 S 
ATOM     12  C   UNL     1       3.525  -6.487   0.490  0.00  0.00    +0.066 C 
ENDROOT
BRANCH   1  17
ATOM     13  C   UNL     1      -0.810  -0.031  -2.371  0.00  0.00    +0.044 C 
ATOM     14  C   UNL     1      -0.559  -1.484  -2.060  0.00  0.00    -0.050 A 
ATOM     15  C   UNL     1      -0.608  -2.425  -3.070  0.00  0.00    +0.004 A 
ATOM     16  C   UNL     1      -0.378  -3.758  -2.784  0.00  0.00    +0.006 A 
ATOM     17  C   UNL     1      -0.099  -4.149  -1.488  0.00  0.00    -0.020 A 
ATOM     18  C   UNL     1      -0.050  -3.207  -0.478  0.00  0.00    +0.006 A 
ATOM     19  C   UNL     1      -0.276  -1.874  -0.764  0.00  0.00    +0.004 A 
ENDBRANCH   1  17
BRANCH  10  20
ATOM     20  C   UNL     1      -5.030  -5.800   0.680  0.00  0.00    +0.132 A 
ATOM     21  C   UNL     1      -6.444  -5.856   0.786  0.00  0.00    +0.052 A 
ATOM     22  C   UNL     1      -6.945  -5.122  -0.269  0.00  0.00    +0.076 A 
ATOM     23  C   UNL     1      -5.862  -4.639  -0.987  0.00  0.00    +0.280 A 
ATOM     24  O   UNL     1      -4.731  -5.049  -0.404  0.00  0.00    -0.435 OA
BRANCH  23  25
ATOM     25  N   UNL     1      -5.944  -3.798  -2.204  0.00  0.00    +0.093 N 
ATOM     26  O   UNL     1      -7.120  -3.452  -2.687  0.00  0.00    -0.123 OA
ATOM     27  O   UNL     1      -4.842  -3.398  -2.804  0.00  0.00    -0.123 OA
ENDBRANCH  23  25
ENDBRANCH  10  20
BRANCH   2  28
ATOM     28  C   UNL     1       2.599  -5.433  -2.008  0.00  0.00    +0.248 C 
ATOM     29  O   UNL     1       2.814  -6.207  -2.922  0.00  0.00    -0.270 OA
ATOM     30  N   UNL     1       3.246  -4.251  -1.958  0.00  0.00    -0.282 N 
ATOM     31  H   UNL     1       3.150  -3.678  -1.181  0.00  0.00    +0.155 HD
BRANCH  30  32
ATOM     32  C   UNL     1       4.054  -3.852  -3.025  0.00  0.00    +0.034 A 
ATOM     33  C   UNL     1       3.727  -4.223  -4.324  0.00  0.00    +0.023 A 
ATOM     34  C   UNL     1       4.528  -3.826  -5.376  0.00  0.00    +0.002 A 
ATOM     35  C   UNL     1       5.656  -3.061  -5.138  0.00  0.00    +0.000 A 
ATOM     36  C   UNL     1       5.985  -2.690  -3.847  0.00  0.00    +0.002 A 
ATOM     37  C   UNL     1       5.185  -3.079  -2.791  0.00  0.00    +0.023 A 
ENDBRANCH  30  32
ENDBRANCH   2  28
TORSDOF 5
