REMARK  Name = ZINC39595714
REMARK  10 active torsions:
REMARK  status: ('A' for Active; 'I' for Inactive)
REMARK    1  A    between atoms: C_1  and  C_2
REMARK    2  A    between atoms: C_2  and  O_3
REMARK    3  A    between atoms: O_3  and  C_4
REMARK    4  A    between atoms: C_7  and  C_10
REMARK    5  A    between atoms: C_14  and  C_23
REMARK    6  A    between atoms: N_25  and  C_26
REMARK    7  A    between atoms: C_26  and  C_27
REMARK    8  A    between atoms: C_27  and  C_29
REMARK    9  A    between atoms: C_27  and  O_30
REMARK   10  A    between atoms: O_30  and  C_31
REMARK                            x       y       z     vdW  Elec       q    Type
REMARK                         _______ _______ _______ _____ _____    ______ ____
ROOT
ATOM      1  C   UNL     1      -1.996  -6.097   0.032  0.00  0.00    +0.247 C 
ATOM      2  O   UNL     1      -1.031  -6.828  -0.081  0.00  0.00    -0.270 OA
ATOM      3  N   UNL     1      -3.232  -6.625   0.131  0.00  0.00    -0.296 N 
ATOM      4  C   UNL     1      -4.528  -5.907   0.145  0.00  0.00    +0.121 C 
ATOM      5  C   UNL     1      -5.475  -6.793  -0.695  0.00  0.00    +0.100 C 
ATOM      6  C   UNL     1      -4.863  -8.202  -0.620  0.00  0.00    -0.004 C 
ATOM      7  C   UNL     1      -3.603  -8.056   0.245  0.00  0.00    +0.115 C 
ATOM      8  C   UNL     1      -4.484  -8.689  -2.015  0.00  0.00    -0.010 C 
ATOM      9  C   UNL     1      -3.931 -10.114  -1.921  0.00  0.00    -0.082 C 
ATOM     10  N   UNL     1      -4.945 -10.996  -1.331  0.00  0.00    +0.379 N 
ATOM     11  C   UNL     1      -5.236 -10.576   0.044  0.00  0.00    -0.082 C 
ATOM     12  C   UNL     1      -5.844  -9.171   0.033  0.00  0.00    -0.010 C 
ATOM     13  H   UNL     1      -5.790 -10.950  -1.882  0.00  0.00    -0.086 HD
ATOM     14  H   UNL     1      -4.601 -11.945  -1.327  0.00  0.00    -0.086 HD
ENDROOT
BRANCH   1  18
ATOM     15  C   UNL     1      -1.474  -1.884   0.114  0.00  0.00    +0.121 A 
ATOM     16  C   UNL     1      -2.595  -2.455   0.704  0.00  0.00    +0.046 A 
ATOM     17  C   UNL     1      -2.768  -3.821   0.679  0.00  0.00    +0.016 A 
ATOM     18  C   UNL     1      -1.815  -4.633   0.060  0.00  0.00    +0.037 A 
ATOM     19  C   UNL     1      -0.689  -4.055  -0.533  0.00  0.00    +0.016 A 
ATOM     20  C   UNL     1      -0.525  -2.688  -0.508  0.00  0.00    +0.046 A 
BRANCH  15  21
ATOM     21  O   UNL     1      -1.306  -0.537   0.140  0.00  0.00    -0.492 OA
BRANCH  21  23
ATOM     22  C   UNL     1      -1.960   1.715   0.723  0.00  0.00    +0.048 C 
ATOM     23  C   UNL     1      -2.319   0.229   0.795  0.00  0.00    +0.225 C 
ENDBRANCH  21  23
ENDBRANCH  15  21
ENDBRANCH   1  18
BRANCH   5  24
ATOM     24  C   UNL     1      -6.861  -6.788  -0.104  0.00  0.00    +0.218 C 
ATOM     25  O   UNL     1      -7.016  -6.555   1.076  0.00  0.00    -0.275 OA
ATOM     26  N   UNL     1      -7.928  -7.044  -0.886  0.00  0.00    -0.312 N 
ATOM     27  H   UNL     1      -7.804  -7.231  -1.830  0.00  0.00    +0.149 HD
BRANCH  26  28
ATOM     28  C   UNL     1      -9.276  -7.039  -0.312  0.00  0.00    +0.148 C 
BRANCH  28  29
ATOM     29  C   UNL     1     -10.298  -7.356  -1.405  0.00  0.00    +0.187 C 
ATOM     30  C   UNL     1     -11.712  -7.228  -0.834  0.00  0.00    +0.053 C 
BRANCH  29  31
ATOM     31  O   UNL     1     -10.093  -8.689  -1.877  0.00  0.00    -0.488 OA
BRANCH  31  32
ATOM     32  C   UNL     1     -10.519  -8.970  -3.137  0.00  0.00    +0.121 A 
ATOM     33  C   UNL     1     -11.024  -7.958  -3.941  0.00  0.00    +0.048 A 
ATOM     34  C   UNL     1     -11.457  -8.245  -5.221  0.00  0.00    +0.042 A 
ATOM     35  C   UNL     1     -11.386  -9.541  -5.702  0.00  0.00    +0.124 A 
ATOM     36  C   UNL     1     -10.882 -10.552  -4.901  0.00  0.00    +0.042 A 
ATOM     37  C   UNL     1     -10.443 -10.267  -3.623  0.00  0.00    +0.048 A 
ATOM     38  F   UNL     1     -11.809  -9.820  -6.955  0.00  0.00    -0.205 F 
ENDBRANCH  31  32
ENDBRANCH  29  31
ENDBRANCH  28  29
ENDBRANCH  26  28
ENDBRANCH   5  24
TORSDOF 8
