REMARK  Name = ZINC08952332
REMARK  8 active torsions:
REMARK  status: ('A' for Active; 'I' for Inactive)
REMARK    1  A    between atoms: C_1  and  C_2
REMARK    2  A    between atoms: C_2  and  C_3
REMARK    3  A    between atoms: C_3  and  C_4
REMARK    4  A    between atoms: C_13  and  O_15
REMARK    5  A    between atoms: O_15  and  C_16
REMARK    6  A    between atoms: C_16  and  C_17
REMARK    7  A    between atoms: C_22  and  O_37
REMARK    8  A    between atoms: C_29  and  C_31
REMARK                            x       y       z     vdW  Elec       q    Type
REMARK                         _______ _______ _______ _____ _____    ______ ____
ROOT
ATOM      1  C   UNL     1      -5.039   0.751  -1.212  0.00  0.00    +0.254 C 
ATOM      2  O   UNL     1      -4.862  -0.445  -1.122  0.00  0.00    -0.272 OA
ATOM      3  N   UNL     1      -6.144   1.312  -0.680  0.00  0.00    -0.291 N 
ATOM      4  C   UNL     1      -6.323   2.770  -0.691  0.00  0.00    +0.111 C 
ATOM      5  C   UNL     1      -6.604   3.245   0.730  0.00  0.00    +0.054 C 
ATOM      6  C   UNL     1      -7.789   2.470   1.307  0.00  0.00    +0.072 C 
ATOM      7  C   UNL     1      -9.021   2.692   0.427  0.00  0.00    +0.035 C 
ATOM      8  C   UNL     1     -10.209   1.924   1.011  0.00  0.00    +0.003 C 
ATOM      9  C   UNL     1      -9.877   0.431   1.061  0.00  0.00    +0.001 C 
ATOM     10  C   UNL     1      -8.643   0.211   1.939  0.00  0.00    +0.008 C 
ATOM     11  C   UNL     1      -7.456   0.977   1.350  0.00  0.00    +0.046 C 
ATOM     12  C   UNL     1      -7.189   0.476  -0.073  0.00  0.00    +0.112 C 
ENDROOT
BRANCH  12  13
ATOM     13  C   UNL     1      -6.726  -0.957  -0.026  0.00  0.00    -0.027 A 
ATOM     14  C   UNL     1      -5.789  -1.350   0.912  0.00  0.00    +0.005 A 
ATOM     15  C   UNL     1      -5.368  -2.666   0.958  0.00  0.00    +0.000 A 
ATOM     16  C   UNL     1      -5.876  -3.586   0.061  0.00  0.00    +0.000 A 
ATOM     17  C   UNL     1      -6.809  -3.192  -0.880  0.00  0.00    +0.000 A 
ATOM     18  C   UNL     1      -7.234  -1.877  -0.923  0.00  0.00    +0.005 A 
ENDBRANCH  12  13
BRANCH   6  19
ATOM     19  O   UNL     1      -8.062   2.935   2.631  0.00  0.00    -0.388 OA
ATOM     20  H   UNL     1      -8.281   3.875   2.680  0.00  0.00    +0.210 HD
ENDBRANCH   6  19
BRANCH   1  21
ATOM     21  C   UNL     1      -4.024   1.612  -1.920  0.00  0.00    +0.324 C 
BRANCH  21  22
ATOM     22  O   UNL     1      -2.953   0.793  -2.393  0.00  0.00    -0.483 OA
BRANCH  22  32
ATOM     23  C   UNL     1       1.175   3.368  -5.141  0.00  0.00    -0.030 A 
ATOM     24  C   UNL     1       2.199   2.602  -5.601  0.00  0.00    +0.096 A 
ATOM     25  C   UNL     1       2.191   1.210  -5.374  0.00  0.00    +0.337 A 
ATOM     26  O   UNL     1       3.115   0.536  -5.792  0.00  0.00    -0.245 OA
ATOM     27  O   UNL     1       1.191   0.610  -4.709  0.00  0.00    -0.422 OA
ATOM     28  C   UNL     1       0.144   1.313  -4.226  0.00  0.00    +0.143 A 
ATOM     29  C   UNL     1       0.088   2.707  -4.416  0.00  0.00    +0.021 A 
ATOM     30  C   UNL     1      -0.994   3.439  -3.916  0.00  0.00    +0.015 A 
ATOM     31  C   UNL     1      -1.994   2.797  -3.244  0.00  0.00    +0.046 A 
ATOM     32  C   UNL     1      -1.947   1.417  -3.058  0.00  0.00    +0.125 A 
ATOM     33  C   UNL     1      -0.880   0.678  -3.541  0.00  0.00    +0.092 A 
BRANCH  23  34
ATOM     34  C   UNL     1       1.160   4.857  -5.369  0.00  0.00    +0.036 C 
BRANCH  34  36
ATOM     35  C   UNL     1       1.733   7.079  -4.380  0.00  0.00    +0.004 C 
ATOM     36  C   UNL     1       1.749   5.567  -4.149  0.00  0.00    +0.001 C 
ENDBRANCH  34  36
ENDBRANCH  23  34
ENDBRANCH  22  32
ENDBRANCH  21  22
ENDBRANCH   1  21
TORSDOF 7
