REMARK  Name = ZINC39965463
REMARK  13 active torsions:
REMARK  status: ('A' for Active; 'I' for Inactive)
REMARK    1  A    between atoms: C_1  and  C_2
REMARK    2  A    between atoms: C_2  and  C_3
REMARK    3  A    between atoms: C_4  and  C_33
REMARK    4  A    between atoms: C_6  and  N_13
REMARK    5  A    between atoms: C_7  and  C_8
REMARK    6  A    between atoms: C_8  and  O_10
REMARK    7  A    between atoms: O_10  and  C_11
REMARK    8  A    between atoms: C_11  and  C_12
REMARK    9  A    between atoms: C_14  and  C_16
REMARK   10  A    between atoms: C_16  and  S_17
REMARK   11  A    between atoms: S_17  and  C_18
REMARK   12  A    between atoms: C_21  and  C_24
REMARK   13  A    between atoms: N_22  and  C_23
REMARK                            x       y       z     vdW  Elec       q    Type
REMARK                         _______ _______ _______ _____ _____    ______ ____
ROOT
ATOM      1  N   UNL     1       3.886  -1.611  -2.822  0.00  0.00    -0.279 N 
ATOM      2  C   UNL     1       4.245  -2.120  -4.018  0.00  0.00    +0.228 C 
ATOM      3  O   UNL     1       3.396  -2.405  -4.835  0.00  0.00    -0.275 OA
ATOM      4  H   UNL     1       4.566  -1.383  -2.169  0.00  0.00    +0.155 HD
ENDROOT
BRANCH   1   8
ATOM      5  C   UNL     1       0.555  -0.807  -1.313  0.00  0.00    -0.022 A 
ATOM      6  C   UNL     1      -0.096  -1.221  -2.416  0.00  0.00    -0.008 A 
ATOM      7  S   UNL     1       1.218  -1.737  -3.499  0.00  0.00    -0.078 S 
ATOM      8  C   UNL     1       2.546  -1.415  -2.527  0.00  0.00    +0.086 A 
ATOM      9  C   UNL     1       1.996  -0.901  -1.360  0.00  0.00    +0.091 A 
ATOM     10  C   UNL     1      -1.581  -1.242  -2.672  0.00  0.00    +0.052 C 
BRANCH   5  12
ATOM     11  C   UNL     1      -0.351   1.241  -0.248  0.00  0.00    +0.009 C 
ATOM     12  C   UNL     1      -0.174  -0.273  -0.107  0.00  0.00    +0.033 C 
ENDBRANCH   5  12
BRANCH   9  13
ATOM     13  C   UNL     1       2.833  -0.481  -0.234  0.00  0.00    +0.342 C 
ATOM     14  O   UNL     1       3.129  -1.280   0.634  0.00  0.00    -0.245 OA
BRANCH  13  15
ATOM     15  O   UNL     1       3.274   0.791  -0.159  0.00  0.00    -0.461 OA
BRANCH  15  16
ATOM     16  C   UNL     1       4.085   1.131   0.967  0.00  0.00    +0.229 C 
ATOM     17  C   UNL     1       4.487   2.605   0.879  0.00  0.00    +0.048 C 
ENDBRANCH  15  16
ENDBRANCH  13  15
ENDBRANCH   9  13
ENDBRANCH   1   8
BRANCH   2  18
ATOM     18  C   UNL     1       5.702  -2.333  -4.339  0.00  0.00    +0.173 C 
BRANCH  18  19
ATOM     19  S   UNL     1       5.858  -3.024  -6.010  0.00  0.00    -0.077 S 
BRANCH  19  20
ATOM     20  C   UNL     1       7.595  -3.213  -6.232  0.00  0.00    +0.192 A 
ATOM     21  N   UNL     1       8.530  -2.915  -5.358  0.00  0.00    -0.122 NA
ATOM     22  N   UNL     1       9.690  -3.178  -5.845  0.00  0.00    -0.128 NA
ATOM     23  C   UNL     1       9.567  -3.659  -7.061  0.00  0.00    +0.165 A 
ATOM     24  N   UNL     1       8.222  -3.702  -7.344  0.00  0.00    -0.305 N 
ATOM     25  C   UNL     1       7.591  -4.171  -8.580  0.00  0.00    +0.153 C 
BRANCH  23  26
ATOM     26  C   UNL     1      10.667  -4.081  -7.954  0.00  0.00    +0.023 A 
ATOM     27  C   UNL     1      11.931  -4.350  -7.428  0.00  0.00    +0.015 A 
ATOM     28  C   UNL     1      12.956  -4.744  -8.262  0.00  0.00    +0.050 A 
ATOM     29  C   UNL     1      12.735  -4.874  -9.626  0.00  0.00    +0.166 A 
ATOM     30  C   UNL     1      11.474  -4.607 -10.157  0.00  0.00    +0.167 A 
ATOM     31  C   UNL     1      10.442  -4.216  -9.325  0.00  0.00    +0.061 A 
ATOM     32  O   UNL     1      11.519  -4.807 -11.507  0.00  0.00    -0.453 OA
ATOM     33  C   UNL     1      12.917  -4.803 -11.850  0.00  0.00    +0.466 C 
ATOM     34  O   UNL     1      13.568  -5.242 -10.643  0.00  0.00    -0.453 OA
ENDBRANCH  23  26
ENDBRANCH  19  20
ENDBRANCH  18  19
ENDBRANCH   2  18
TORSDOF 9
