REMARK  Name = ZINC40008951
REMARK  18 active torsions:
REMARK  status: ('A' for Active; 'I' for Inactive)
REMARK    1  A    between atoms: C_1  and  C_2
REMARK    2  A    between atoms: C_2  and  C_3
REMARK    3  A    between atoms: C_3  and  C_4
REMARK    4  A    between atoms: C_4  and  N_5
REMARK    5  A    between atoms: N_5  and  C_6
REMARK    6  A    between atoms: N_5  and  C_10
REMARK    7  A    between atoms: C_6  and  C_7
REMARK    8  A    between atoms: C_7  and  C_8
REMARK    9  A    between atoms: C_8  and  C_9
REMARK   10  A    between atoms: C_10  and  C_11
REMARK   11  A    between atoms: C_11  and  C_12
REMARK   12  A    between atoms: C_12  and  N_13
REMARK   13  A    between atoms: C_14  and  C_31
REMARK   14  A    between atoms: C_21  and  C_30
REMARK   15  A    between atoms: C_22  and  C_29
REMARK   16  A    between atoms: C_34  and  O_39
REMARK   17  A    between atoms: C_35  and  O_37
REMARK   18  A    between atoms: O_37  and  C_38
REMARK                            x       y       z     vdW  Elec       q    Type
REMARK                         _______ _______ _______ _____ _____    ______ ____
ROOT
ATOM      1  N   UNL     1       3.120  -6.545   4.938  0.00  0.00    -0.284 N 
ATOM      2  C   UNL     1       4.562  -6.656   5.213  0.00  0.00    +0.145 C 
ATOM      3  C   UNL     1       4.671  -7.173   6.610  0.00  0.00    +0.072 A 
ATOM      4  C   UNL     1       5.843  -7.494   7.432  0.00  0.00    +0.199 A 
ATOM      5  O   UNL     1       6.982  -7.206   7.112  0.00  0.00    -0.287 OA
ATOM      6  C   UNL     1       5.507  -8.204   8.693  0.00  0.00    +0.065 A 
ATOM      7  C   UNL     1       6.516  -8.753   9.484  0.00  0.00    +0.019 A 
ATOM      8  C   UNL     1       6.190  -9.409  10.639  0.00  0.00    -0.047 A 
ATOM      9  C   UNL     1       4.862  -9.528  11.024  0.00  0.00    -0.044 A 
ATOM     10  C   UNL     1       3.854  -8.992  10.255  0.00  0.00    +0.050 A 
ATOM     11  C   UNL     1       4.160  -8.316   9.074  0.00  0.00    +0.140 A 
ATOM     12  O   UNL     1       3.155  -7.787   8.339  0.00  0.00    -0.450 OA
ATOM     13  C   UNL     1       3.405  -7.337   7.094  0.00  0.00    +0.199 A 
ATOM     14  C   UNL     1       2.453  -6.939   6.042  0.00  0.00    +0.283 C 
ATOM     15  O   UNL     1       1.243  -6.965   6.152  0.00  0.00    -0.267 OA
ATOM     16  C   UNL     1       4.519 -10.256  12.298  0.00  0.00    +0.044 C 
ATOM     17  C   UNL     1       7.277 -10.003  11.497  0.00  0.00    +0.044 C 
ENDROOT
BRANCH   2  18
ATOM     18  C   UNL     1       5.202  -7.620   4.249  0.00  0.00    -0.019 A 
ATOM     19  C   UNL     1       4.540  -8.781   3.892  0.00  0.00    +0.009 A 
ATOM     20  C   UNL     1       5.123  -9.669   3.008  0.00  0.00    +0.049 A 
ATOM     21  C   UNL     1       6.374  -9.397   2.476  0.00  0.00    +0.158 A 
ATOM     22  C   UNL     1       7.040  -8.229   2.834  0.00  0.00    +0.162 A 
ATOM     23  C   UNL     1       6.447  -7.340   3.718  0.00  0.00    +0.055 A 
BRANCH  22  24
ATOM     24  O   UNL     1       8.267  -7.957   2.315  0.00  0.00    -0.491 OA
ATOM     25  C   UNL     1       8.891  -6.740   2.728  0.00  0.00    +0.277 C 
ENDBRANCH  22  24
BRANCH  21  26
ATOM     26  O   UNL     1       6.949 -10.270   1.606  0.00  0.00    -0.503 OA
ATOM     27  H   UNL     1       6.736 -10.099   0.679  0.00  0.00    +0.292 HD
ENDBRANCH  21  26
ENDBRANCH   2  18
BRANCH   1  28
ATOM     28  C   UNL     1       2.516  -6.080   3.687  0.00  0.00    +0.107 C 
BRANCH  28  29
ATOM     29  C   UNL     1       2.321  -4.564   3.747  0.00  0.00    +0.000 C 
BRANCH  29  30
ATOM     30  C   UNL     1       1.690  -4.079   2.440  0.00  0.00    -0.077 C 
BRANCH  30  31
ATOM     31  N   UNL     1       1.408  -2.640   2.537  0.00  0.00    +0.380 N 
ATOM     32  H   UNL     1       0.840  -2.463   3.352  0.00  0.00    -0.082 HD
BRANCH  31  33
ATOM     33  C   UNL     1       2.671  -1.900   2.649  0.00  0.00    -0.079 C 
BRANCH  33  34
ATOM     34  C   UNL     1       2.374  -0.416   2.875  0.00  0.00    -0.019 C 
BRANCH  34  36
ATOM     35  C   UNL     1       3.393   1.839   3.218  0.00  0.00    +0.004 C 
ATOM     36  C   UNL     1       3.690   0.356   2.992  0.00  0.00    -0.005 C 
ENDBRANCH  34  36
ENDBRANCH  33  34
ENDBRANCH  31  33
BRANCH  31  37
ATOM     37  C   UNL     1       0.687  -2.201   1.335  0.00  0.00    -0.079 C 
BRANCH  37  38
ATOM     38  C   UNL     1      -0.698  -2.850   1.304  0.00  0.00    -0.019 C 
BRANCH  38  39
ATOM     39  C   UNL     1      -1.430  -2.430   0.028  0.00  0.00    -0.005 C 
ATOM     40  C   UNL     1      -2.815  -3.079  -0.003  0.00  0.00    +0.004 C 
ENDBRANCH  38  39
ENDBRANCH  37  38
ENDBRANCH  31  37
ENDBRANCH  30  31
ENDBRANCH  29  30
ENDBRANCH  28  29
ENDBRANCH   1  28
TORSDOF 13
