REMARK  Name = ZINC59599199
REMARK  16 active torsions:
REMARK  status: ('A' for Active; 'I' for Inactive)
REMARK    1  A    between atoms: C_1  and  C_2
REMARK    2  A    between atoms: C_2  and  O_3
REMARK    3  A    between atoms: O_3  and  C_4
REMARK    4  A    between atoms: C_6  and  C_22
REMARK    5  A    between atoms: C_9  and  O_10
REMARK    6  A    between atoms: O_10  and  C_11
REMARK    7  A    between atoms: C_12  and  N_21
REMARK    8  A    between atoms: N_13  and  C_20
REMARK    9  A    between atoms: N_16  and  C_19
REMARK   10  A    between atoms: C_23  and  C_24
REMARK   11  A    between atoms: C_23  and  C_26
REMARK   12  A    between atoms: N_28  and  C_29
REMARK   13  A    between atoms: C_32  and  C_35
REMARK   14  A    between atoms: C_35  and  C_36
REMARK   15  A    between atoms: C_35  and  C_37
REMARK   16  A    between atoms: C_35  and  C_38
REMARK                            x       y       z     vdW  Elec       q    Type
REMARK                         _______ _______ _______ _____ _____    ______ ____
ROOT
ATOM      1  C   UNL     1       0.680  -2.217  -1.580  0.00  0.00    +0.163 A 
ATOM      2  C   UNL     1       0.083  -2.481  -0.365  0.00  0.00    +0.057 A 
ATOM      3  C   UNL     1      -0.376  -3.775  -0.080  0.00  0.00    -0.020 A 
ATOM      4  C   UNL     1      -0.225  -4.793  -1.032  0.00  0.00    +0.012 A 
ATOM      5  C   UNL     1       0.372  -4.520  -2.241  0.00  0.00    +0.050 A 
ATOM      6  C   UNL     1       0.822  -3.235  -2.525  0.00  0.00    +0.170 A 
ENDROOT
BRANCH   3   7
ATOM      7  C   UNL     1      -1.010  -4.062   1.208  0.00  0.00    +0.032 C 
ATOM      8  C   UNL     1      -0.772  -5.264   1.841  0.00  0.00    +0.114 C 
BRANCH   8   9
ATOM      9  C   UNL     1       0.350  -6.112   1.411  0.00  0.00    +0.259 C 
ATOM     10  O   UNL     1       1.145  -5.697   0.589  0.00  0.00    -0.269 OA
ATOM     11  N   UNL     1       0.497  -7.347   1.928  0.00  0.00    -0.281 N 
ATOM     12  H   UNL     1      -0.173  -7.704   2.531  0.00  0.00    +0.155 HD
BRANCH  11  13
ATOM     13  C   UNL     1       1.617  -8.116   1.594  0.00  0.00    +0.034 A 
ATOM     14  C   UNL     1       2.845  -7.502   1.384  0.00  0.00    +0.023 A 
ATOM     15  C   UNL     1       3.949  -8.264   1.055  0.00  0.00    +0.006 A 
ATOM     16  C   UNL     1       3.833  -9.636   0.935  0.00  0.00    -0.042 A 
ATOM     17  C   UNL     1       2.612 -10.251   1.144  0.00  0.00    +0.006 A 
ATOM     18  C   UNL     1       1.505  -9.495   1.478  0.00  0.00    +0.023 A 
BRANCH  16  19
ATOM     19  C   UNL     1       5.039 -10.465   0.575  0.00  0.00    -0.013 C 
ATOM     20  C   UNL     1       6.123 -10.276   1.639  0.00  0.00    +0.015 C 
ATOM     21  C   UNL     1       4.643 -11.941   0.507  0.00  0.00    +0.015 C 
ATOM     22  C   UNL     1       5.577 -10.018  -0.785  0.00  0.00    +0.015 C 
ENDBRANCH  16  19
ENDBRANCH  11  13
ENDBRANCH   8   9
BRANCH   8  23
ATOM     23  C   UNL     1      -1.618  -5.686   2.916  0.00  0.00    +0.104 C 
ATOM     24  N   UNL     1      -2.289  -6.022   3.769  0.00  0.00    -0.191 NA
ENDBRANCH   8  23
ENDBRANCH   3   7
BRANCH   1  25
ATOM     25  O   UNL     1       1.127  -0.963  -1.859  0.00  0.00    -0.489 OA
BRANCH  25  27
ATOM     26  C   UNL     1       1.509   1.366  -1.340  0.00  0.00    +0.048 C 
ATOM     27  C   UNL     1       0.950   0.030  -0.847  0.00  0.00    +0.226 C 
ENDBRANCH  25  27
ENDBRANCH   1  25
BRANCH   6  28
ATOM     28  O   UNL     1       1.404  -2.971  -3.721  0.00  0.00    -0.443 OA
BRANCH  28  29
ATOM     29  C   UNL     1       1.485  -3.983  -4.631  0.00  0.00    +0.230 A 
ATOM     30  C   UNL     1       0.755  -3.937  -5.787  0.00  0.00    +0.149 A 
ATOM     31  N   UNL     1       0.855  -4.971  -6.689  0.00  0.00    -0.282 N 
ATOM     32  C   UNL     1       1.662  -6.018  -6.438  0.00  0.00    +0.333 A 
ATOM     33  O   UNL     1       1.738  -6.923  -7.247  0.00  0.00    -0.246 OA
ATOM     34  N   UNL     1       2.386  -6.079  -5.306  0.00  0.00    -0.261 N 
ATOM     35  C   UNL     1       2.325  -5.087  -4.397  0.00  0.00    +0.301 A 
ATOM     36  O   UNL     1       2.989  -5.147  -3.376  0.00  0.00    -0.263 OA
ATOM     37  C   UNL     1       3.256  -7.233  -5.062  0.00  0.00    +0.157 C 
ATOM     38  C   UNL     1       0.078  -4.932  -7.931  0.00  0.00    +0.155 C 
BRANCH  30  39
ATOM     39  N   UNL     1      -0.070  -2.868  -6.046  0.00  0.00    -0.341 N 
ATOM     40  H   UNL     1      -0.195  -2.179  -5.375  0.00  0.00    +0.144 HD
ATOM     41  H   UNL     1      -0.527  -2.803  -6.899  0.00  0.00    +0.144 HD
ENDBRANCH  30  39
ENDBRANCH  28  29
ENDBRANCH   6  28
TORSDOF 10
