REMARK  Name = ZINC14748175
REMARK  11 active torsions:
REMARK  status: ('A' for Active; 'I' for Inactive)
REMARK    1  A    between atoms: C_1  and  O_2
REMARK    2  A    between atoms: O_2  and  C_3
REMARK    3  A    between atoms: C_3  and  C_4
REMARK    4  A    between atoms: C_4  and  N_5
REMARK    5  A    between atoms: C_13  and  C_14
REMARK    6  A    between atoms: C_13  and  N_69
REMARK    7  A    between atoms: N_23  and  C_26
REMARK    8  A    between atoms: C_26  and  C_27
REMARK    9  A    between atoms: C_27  and  C_28
REMARK   10  A    between atoms: C_31  and  O_34
REMARK   11  A    between atoms: O_34  and  C_35
REMARK                            x       y       z     vdW  Elec       q    Type
REMARK                         _______ _______ _______ _____ _____    ______ ____
ROOT
ATOM      1  N   UNL     1      -0.684   1.546   1.225  0.00  0.00    -0.222 N 
ATOM      2  C   UNL     1      -0.428   2.725   1.829  0.00  0.00    +0.247 C 
ATOM      3  O   UNL     1       0.396   3.553   1.504  0.00  0.00    -0.273 OA
ATOM      4  C   UNL     1      -1.386   2.797   2.995  0.00  0.00    +0.112 C 
ATOM      5  C   UNL     1      -0.616   2.881   4.309  0.00  0.00    +0.017 C 
ATOM      6  C   UNL     1      -1.607   2.978   5.472  0.00  0.00    -0.076 C 
ATOM      7  C   UNL     1      -3.260   4.052   4.059  0.00  0.00    -0.076 C 
ATOM      8  C   UNL     1      -2.324   3.991   2.848  0.00  0.00    +0.017 C 
ATOM      9  N   UNL     1      -2.138   1.538   2.918  0.00  0.00    -0.271 N 
ATOM     10  C   UNL     1      -1.657   0.873   1.851  0.00  0.00    +0.312 C 
ATOM     11  O   UNL     1      -2.061  -0.217   1.496  0.00  0.00    -0.252 OA
ATOM     12  N   UNL     1      -2.446   4.182   5.287  0.00  0.00    +0.385 N 
ATOM     13  H   UNL     1      -1.835   5.002   5.195  0.00  0.00    -0.081 HD
ENDROOT
BRANCH   1  14
ATOM     14  C   UNL     1       0.019   1.061   0.035  0.00  0.00    +0.146 C 
BRANCH  14  15
ATOM     15  C   UNL     1      -0.719   1.530  -1.221  0.00  0.00    +0.179 C 
BRANCH  15  17
ATOM     16  C   UNL     1      -1.323   3.500  -2.445  0.00  0.00    +0.194 C 
ATOM     17  O   UNL     1      -0.660   2.956  -1.302  0.00  0.00    -0.381 OA
ENDBRANCH  15  17
ENDBRANCH  14  15
ENDBRANCH   1  14
BRANCH  12  18
ATOM     18  C   UNL     1      -3.326   4.369   6.458  0.00  0.00    -0.003 C 
BRANCH  18  19
ATOM     19  C   UNL     1      -2.476   4.716   7.653  0.00  0.00    +0.090 A 
ATOM     20  C   UNL     1      -2.124   5.959   8.009  0.00  0.00    +0.051 A 
ATOM     21  C   UNL     1      -1.306   5.821   9.220  0.00  0.00    +0.020 A 
ATOM     22  C   UNL     1      -0.652   6.719  10.062  0.00  0.00    +0.011 A 
ATOM     23  C   UNL     1       0.047   6.251  11.141  0.00  0.00    +0.001 A 
ATOM     24  C   UNL     1       0.107   4.890  11.402  0.00  0.00    +0.004 A 
ATOM     25  C   UNL     1      -0.534   3.987  10.581  0.00  0.00    +0.047 A 
ATOM     26  C   UNL     1      -1.248   4.441   9.479  0.00  0.00    +0.135 A 
ATOM     27  O   UNL     1      -1.966   3.824   8.520  0.00  0.00    -0.462 OA
ENDBRANCH  18  19
ENDBRANCH  12  18
BRANCH   9  28
ATOM     28  C   UNL     1      -3.200   1.094   3.825  0.00  0.00    +0.115 C 
BRANCH  28  29
ATOM     29  C   UNL     1      -4.528   1.040   3.066  0.00  0.00    +0.054 C 
BRANCH  29  30
ATOM     30  C   UNL     1      -5.641   0.702   4.024  0.00  0.00    -0.046 A 
ATOM     31  C   UNL     1      -5.984  -0.620   4.244  0.00  0.00    +0.007 A 
ATOM     32  C   UNL     1      -7.000  -0.933   5.127  0.00  0.00    +0.046 A 
ATOM     33  C   UNL     1      -7.683   0.080   5.784  0.00  0.00    +0.120 A 
ATOM     34  C   UNL     1      -7.340   1.405   5.557  0.00  0.00    +0.046 A 
ATOM     35  C   UNL     1      -6.320   1.713   4.678  0.00  0.00    +0.007 A 
BRANCH  33  36
ATOM     36  O   UNL     1      -8.686  -0.226   6.649  0.00  0.00    -0.495 OA
ATOM     37  C   UNL     1      -8.984  -1.611   6.833  0.00  0.00    +0.277 C 
ENDBRANCH  33  36
ENDBRANCH  29  30
ENDBRANCH  28  29
ENDBRANCH   9  28
TORSDOF 9
