REMARK  Name = ZINC30874474
REMARK  6 active torsions:
REMARK  status: ('A' for Active; 'I' for Inactive)
REMARK    1  A    between atoms: C_1  and  C_2
REMARK    2  A    between atoms: C_2  and  C_3
REMARK    3  A    between atoms: C_3  and  N_4
REMARK    4  A    between atoms: N_6  and  C_28
REMARK    5  A    between atoms: C_9  and  C_22
REMARK    6  A    between atoms: N_15  and  C_16
REMARK                            x       y       z     vdW  Elec       q    Type
REMARK                         _______ _______ _______ _____ _____    ______ ____
ROOT
ATOM      1  N   UNL     1       1.347   1.809   0.108  0.00  0.00    -0.270 NA
ATOM      2  C   UNL     1       1.134   3.226  -0.234  0.00  0.00    +0.201 C 
ATOM      3  N   UNL     1       2.448   3.896  -0.266  0.00  0.00    -0.259 N 
ATOM      4  C   UNL     1       3.300   3.659   0.788  0.00  0.00    +0.196 C 
ATOM      5  N   UNL     1       4.169   4.537   1.197  0.00  0.00    -0.224 NA
ATOM      6  C   UNL     1       4.925   4.262   2.427  0.00  0.00    +0.257 C 
ATOM      7  N   UNL     1       5.237   2.832   2.514  0.00  0.00    -0.224 NA
ATOM      8  C   UNL     1       4.381   1.957   2.045  0.00  0.00    +0.192 C 
ATOM      9  N   UNL     1       3.246   2.429   1.423  0.00  0.00    -0.232 N 
ATOM     10  C   UNL     1       1.989   1.680   1.426  0.00  0.00    +0.204 C 
ATOM     11  N   UNL     1       4.610   0.605   2.169  0.00  0.00    -0.287 N 
ATOM     12  H   UNL     1       3.944  -0.113   1.668  0.00  0.00    +0.155 HD
ENDROOT
BRANCH  11  13
ATOM     13  C   UNL     1       5.688   0.146   2.932  0.00  0.00    +0.033 A 
ATOM     14  C   UNL     1       6.318  -1.046   2.599  0.00  0.00    +0.023 A 
ATOM     15  C   UNL     1       7.387  -1.494   3.350  0.00  0.00    +0.002 A 
ATOM     16  C   UNL     1       7.822  -0.763   4.441  0.00  0.00    +0.000 A 
ATOM     17  C   UNL     1       7.193   0.421   4.778  0.00  0.00    +0.002 A 
ATOM     18  C   UNL     1       6.128   0.878   4.027  0.00  0.00    +0.023 A 
ENDBRANCH  11  13
BRANCH   6  19
ATOM     19  C   UNL     1       6.207   5.054   2.413  0.00  0.00    -0.001 A 
ATOM     20  C   UNL     1       6.267   6.261   1.742  0.00  0.00    +0.007 A 
ATOM     21  C   UNL     1       7.442   6.989   1.734  0.00  0.00    +0.000 A 
ATOM     22  C   UNL     1       8.559   6.506   2.388  0.00  0.00    +0.000 A 
ATOM     23  C   UNL     1       8.501   5.296   3.055  0.00  0.00    +0.000 A 
ATOM     24  C   UNL     1       7.325   4.570   3.067  0.00  0.00    +0.007 A 
ENDBRANCH   6  19
BRANCH   3  25
ATOM     25  C   UNL     1       2.812   4.735  -1.324  0.00  0.00    +0.038 A 
ATOM     26  C   UNL     1       1.888   5.053  -2.311  0.00  0.00    +0.023 A 
ATOM     27  C   UNL     1       2.250   5.887  -3.351  0.00  0.00    +0.002 A 
ATOM     28  C   UNL     1       3.534   6.396  -3.416  0.00  0.00    +0.000 A 
ATOM     29  C   UNL     1       4.458   6.077  -2.438  0.00  0.00    +0.002 A 
ATOM     30  C   UNL     1       4.101   5.249  -1.392  0.00  0.00    +0.023 A 
ENDBRANCH   3  25
BRANCH   1  31
ATOM     31  C   UNL     1       0.083   1.062   0.063  0.00  0.00    +0.087 C 
BRANCH  31  33
ATOM     32  C   UNL     1      -0.944  -1.215   0.128  0.00  0.00    +0.005 C 
ATOM     33  C   UNL     1       0.372  -0.437   0.175  0.00  0.00    +0.012 C 
ENDBRANCH  31  33
ENDBRANCH   1  31
TORSDOF 5
