REMARK  Name = ZINC11018092
REMARK  12 active torsions:
REMARK  status: ('A' for Active; 'I' for Inactive)
REMARK    1  A    between atoms: C_1  and  O_2
REMARK    2  A    between atoms: O_2  and  C_3
REMARK    3  A    between atoms: C_3  and  C_4
REMARK    4  A    between atoms: C_4  and  N_5
REMARK    5  A    between atoms: C_6  and  N_35
REMARK    6  A    between atoms: C_7  and  C_14
REMARK    7  A    between atoms: C_14  and  C_16
REMARK    8  A    between atoms: C_16  and  S_17
REMARK    9  A    between atoms: S_17  and  C_18
REMARK   10  A    between atoms: C_21  and  C_29
REMARK   11  A    between atoms: N_22  and  C_23
REMARK   12  A    between atoms: C_29  and  C_30
REMARK                            x       y       z     vdW  Elec       q    Type
REMARK                         _______ _______ _______ _____ _____    ______ ____
ROOT
ATOM      1  C   UNL     1      -4.721   3.034  -3.903  0.00  0.00    +0.157 C 
ENDROOT
BRANCH   1   2
ATOM      2  C   UNL     1      -4.135   2.613  -2.580  0.00  0.00    +0.182 C 
ATOM      3  O   UNL     1      -4.274   3.319  -1.602  0.00  0.00    -0.291 OA
BRANCH   2   6
ATOM      4  N   UNL     1      -2.085  -0.142  -1.240  0.00  0.00    -0.279 N 
ATOM      5  C   UNL     1      -2.764   1.042  -1.289  0.00  0.00    +0.116 A 
ATOM      6  C   UNL     1      -3.424   1.398  -2.478  0.00  0.00    +0.120 A 
ATOM      7  C   UNL     1      -3.353   0.464  -3.609  0.00  0.00    +0.266 A 
ATOM      8  O   UNL     1      -3.909   0.720  -4.661  0.00  0.00    -0.267 OA
ATOM      9  N   UNL     1      -2.660  -0.683  -3.457  0.00  0.00    -0.274 N 
ATOM     10  H   UNL     1      -2.602  -1.329  -4.218  0.00  0.00    +0.173 HD
ATOM     11  C   UNL     1      -2.046  -0.968  -2.297  0.00  0.00    +0.331 A 
ATOM     12  O   UNL     1      -1.431  -2.013  -2.201  0.00  0.00    -0.246 OA
BRANCH   5  13
ATOM     13  N   UNL     1      -2.798   1.865  -0.206  0.00  0.00    -0.344 N 
ATOM     14  H   UNL     1      -2.944   2.816  -0.324  0.00  0.00    +0.144 HD
ATOM     15  H   UNL     1      -2.675   1.500   0.684  0.00  0.00    +0.144 HD
ENDBRANCH   5  13
BRANCH   4  16
ATOM     16  C   UNL     1      -1.390  -0.521  -0.007  0.00  0.00    +0.156 C 
BRANCH  16  17
ATOM     17  C   UNL     1       0.046   0.006  -0.048  0.00  0.00    +0.181 C 
BRANCH  17  19
ATOM     18  C   UNL     1       1.327   2.031  -0.086  0.00  0.00    +0.194 C 
ATOM     19  O   UNL     1       0.029   1.435  -0.049  0.00  0.00    -0.381 OA
ENDBRANCH  17  19
ENDBRANCH  16  17
ENDBRANCH   4  16
ENDBRANCH   2   6
ENDBRANCH   1   2
BRANCH   1  20
ATOM     20  S   UNL     1      -5.565   4.623  -3.710  0.00  0.00    -0.078 S 
BRANCH  20  21
ATOM     21  C   UNL     1      -6.138   4.868  -5.359  0.00  0.00    +0.197 A 
ATOM     22  N   UNL     1      -5.947   4.063  -6.379  0.00  0.00    -0.122 NA
ATOM     23  N   UNL     1      -6.505   4.549  -7.430  0.00  0.00    -0.133 NA
ATOM     24  C   UNL     1      -7.073   5.688  -7.150  0.00  0.00    +0.143 A 
ATOM     25  N   UNL     1      -6.860   5.934  -5.820  0.00  0.00    -0.274 N 
BRANCH  25  26
ATOM     26  C   UNL     1      -7.292   7.047  -5.084  0.00  0.00    +0.050 A 
ATOM     27  C   UNL     1      -8.649   7.273  -4.896  0.00  0.00    +0.026 A 
ATOM     28  C   UNL     1      -9.071   8.367  -4.167  0.00  0.00    +0.002 A 
ATOM     29  C   UNL     1      -8.144   9.243  -3.632  0.00  0.00    +0.000 A 
ATOM     30  C   UNL     1      -6.792   9.023  -3.822  0.00  0.00    +0.002 A 
ATOM     31  C   UNL     1      -6.364   7.928  -4.546  0.00  0.00    +0.026 A 
ENDBRANCH  25  26
BRANCH  24  32
ATOM     32  C   UNL     1      -7.824   6.572  -8.113  0.00  0.00    +0.119 C 
BRANCH  32  33
ATOM     33  C   UNL     1      -6.868   7.545  -8.752  0.00  0.00    -0.003 A 
ATOM     34  C   UNL     1      -6.143   7.408  -9.889  0.00  0.00    +0.011 A 
ATOM     35  C   UNL     1      -5.321   8.445 -10.290  0.00  0.00    +0.008 A 
ATOM     36  C   UNL     1      -5.265   9.569  -9.534  0.00  0.00    +0.045 A 
ATOM     37  S   UNL     1      -6.401   9.182  -8.212  0.00  0.00    -0.101 S 
ENDBRANCH  32  33
ENDBRANCH  24  32
ENDBRANCH  20  21
ENDBRANCH   1  20
TORSDOF 11
