REMARK  Name = ZINC38965732
REMARK  6 active torsions:
REMARK  status: ('A' for Active; 'I' for Inactive)
REMARK    1  A    between atoms: C_1  and  O_2
REMARK    2  A    between atoms: O_2  and  C_3
REMARK    3  A    between atoms: C_6  and  N_10
REMARK    4  A    between atoms: N_10  and  C_11
REMARK    5  A    between atoms: N_14  and  S_15
REMARK    6  A    between atoms: S_15  and  C_18
REMARK                            x       y       z     vdW  Elec       q    Type
REMARK                         _______ _______ _______ _____ _____    ______ ____
ROOT
ATOM      1  C   UNL     1       2.512  -3.963   4.344  0.00  0.00    +0.237 C 
ATOM      2  C   UNL     1       1.982  -4.309   5.718  0.00  0.00    +0.192 C 
ATOM      3  N   UNL     1       0.812  -3.889   6.098  0.00  0.00    -0.110 NA
ATOM      4  N   UNL     1       2.737  -5.056   6.538  0.00  0.00    -0.226 NA
ATOM      5  C   UNL     1       3.925  -5.493   6.176  0.00  0.00    +0.089 A 
ATOM      6  C   UNL     1       4.696  -6.280   7.069  0.00  0.00    +0.030 A 
ATOM      7  C   UNL     1       5.916  -6.731   6.702  0.00  0.00    +0.002 A 
ATOM      8  C   UNL     1       6.482  -6.456   5.447  0.00  0.00    +0.002 A 
ATOM      9  C   UNL     1       5.833  -5.715   4.522  0.00  0.00    +0.027 A 
ATOM     10  C   UNL     1       4.499  -5.187   4.842  0.00  0.00    +0.063 A 
ATOM     11  N   UNL     1       3.843  -4.469   3.975  0.00  0.00    -0.359 N 
ATOM     12  H   UNL     1       4.224  -4.273   3.105  0.00  0.00    +0.162 HD
ENDROOT
BRANCH   3  13
ATOM     13  S   UNL     1       0.243  -4.274   7.605  0.00  0.00    +0.100 S 
ATOM     14  O   UNL     1       0.046  -5.682   7.617  0.00  0.00    -0.146 OA
ATOM     15  O   UNL     1       1.088  -3.615   8.539  0.00  0.00    -0.146 OA
BRANCH  13  16
ATOM     16  C   UNL     1      -1.351  -3.542   7.763  0.00  0.00    +0.114 A 
ATOM     17  C   UNL     1      -1.476  -2.259   8.264  0.00  0.00    +0.029 A 
ATOM     18  C   UNL     1      -2.727  -1.683   8.388  0.00  0.00    +0.003 A 
ATOM     19  C   UNL     1      -3.853  -2.390   8.013  0.00  0.00    +0.020 A 
ATOM     20  C   UNL     1      -3.730  -3.674   7.513  0.00  0.00    +0.043 A 
ATOM     21  C   UNL     1      -2.477  -4.247   7.383  0.00  0.00    +0.049 A 
ATOM     22 CL   UNL     1      -5.144  -4.563   7.042  0.00  0.00    -0.083 Cl
ENDBRANCH  13  16
ENDBRANCH   3  13
BRANCH   1  23
ATOM     23  N   UNL     1       2.541  -2.502   4.231  0.00  0.00    -0.318 N 
ATOM     24  H   UNL     1       2.976  -1.972   4.917  0.00  0.00    +0.148 HD
BRANCH  23  28
ATOM     25  C   UNL     1       0.756  -0.631   0.962  0.00  0.00    +0.138 A 
ATOM     26  C   UNL     1       0.877  -2.012   0.988  0.00  0.00    +0.049 A 
ATOM     27  C   UNL     1       1.469  -2.633   2.071  0.00  0.00    +0.026 A 
ATOM     28  C   UNL     1       1.942  -1.874   3.134  0.00  0.00    +0.030 A 
ATOM     29  C   UNL     1       1.821  -0.491   3.107  0.00  0.00    +0.046 A 
ATOM     30  C   UNL     1       1.234   0.130   2.020  0.00  0.00    +0.084 A 
ATOM     31 CL   UNL     1       1.088   1.859   1.982  0.00  0.00    -0.080 Cl
BRANCH  25  33
ATOM     32  C   UNL     1      -0.297  -0.864  -1.159  0.00  0.00    +0.277 C 
ATOM     33  O   UNL     1       0.173  -0.020  -0.105  0.00  0.00    -0.494 OA
ENDBRANCH  25  33
ENDBRANCH  23  28
ENDBRANCH   1  23
TORSDOF 5
