REMARK  Name = ZINC66348868
REMARK  11 active torsions:
REMARK  status: ('A' for Active; 'I' for Inactive)
REMARK    1  A    between atoms: C_1  and  C_2
REMARK    2  A    between atoms: C_2  and  O_3
REMARK    3  A    between atoms: O_3  and  C_4
REMARK    4  A    between atoms: C_10  and  C_33
REMARK    5  A    between atoms: N_14  and  C_15
REMARK    6  A    between atoms: C_15  and  C_16
REMARK    7  A    between atoms: C_19  and  C_22
REMARK    8  A    between atoms: C_27  and  C_28
REMARK    9  A    between atoms: C_33  and  O_35
REMARK   10  A    between atoms: O_35  and  C_36
REMARK   11  A    between atoms: C_36  and  C_37
REMARK                            x       y       z     vdW  Elec       q    Type
REMARK                         _______ _______ _______ _____ _____    ______ ____
ROOT
ATOM      1  C   UNL     1      -1.497  -1.839   0.006  0.00  0.00    +0.264 C 
ATOM      2  N   UNL     1      -0.500  -2.691  -0.002  0.00  0.00    -0.315 N 
ATOM      3  C   UNL     1      -0.932  -3.950   0.062  0.00  0.00    +0.042 C 
ATOM      4  C   UNL     1      -0.301  -5.113   0.330  0.00  0.00    +0.023 C 
ATOM      5  C   UNL     1      -1.155  -6.296   0.526  0.00  0.00    -0.002 C 
ATOM      6  C   UNL     1      -2.457  -6.152   0.767  0.00  0.00    -0.010 C 
ATOM      7  C   UNL     1      -3.109  -4.791   0.830  0.00  0.00    +0.147 C 
ATOM      8  C   UNL     1      -2.432  -3.884  -0.191  0.00  0.00    +0.142 C 
ATOM      9  N   UNL     1      -2.720  -2.462   0.015  0.00  0.00    -0.273 N 
ATOM     10  H   UNL     1       0.435  -2.436  -0.049  0.00  0.00    +0.170 HD
ENDROOT
BRANCH   7  11
ATOM     11  C   UNL     1      -2.946  -4.215   2.212  0.00  0.00    +0.316 C 
ATOM     12  O   UNL     1      -2.361  -3.169   2.366  0.00  0.00    -0.250 OA
BRANCH  11  13
ATOM     13  O   UNL     1      -3.452  -4.863   3.274  0.00  0.00    -0.464 OA
BRANCH  13  14
ATOM     14  C   UNL     1      -3.261  -4.258   4.554  0.00  0.00    +0.229 C 
ATOM     15  C   UNL     1      -3.901  -5.135   5.633  0.00  0.00    +0.048 C 
ENDBRANCH  13  14
ENDBRANCH  11  13
ENDBRANCH   7  11
BRANCH   1  16
ATOM     16  O   UNL     1      -1.339  -0.499   0.012  0.00  0.00    -0.467 OA
BRANCH  16  18
ATOM     17  C   UNL     1      -0.019   1.526   0.010  0.00  0.00    +0.048 C 
ATOM     18  C   UNL     1       0.002  -0.004   0.002  0.00  0.00    +0.228 C 
ENDBRANCH  16  18
ENDBRANCH   1  16
BRANCH   9  19
ATOM     19  C   UNL     1      -4.034  -1.838   0.190  0.00  0.00    +0.145 C 
BRANCH  19  20
ATOM     20  C   UNL     1      -4.586  -1.444  -1.156  0.00  0.00    -0.030 A 
ATOM     21  C   UNL     1      -4.310  -0.191  -1.674  0.00  0.00    +0.006 A 
ATOM     22  C   UNL     1      -4.813   0.175  -2.906  0.00  0.00    +0.009 A 
ATOM     23  C   UNL     1      -5.601  -0.720  -3.628  0.00  0.00    -0.017 A 
ATOM     24  C   UNL     1      -5.876  -1.981  -3.101  0.00  0.00    +0.009 A 
ATOM     25  C   UNL     1      -5.363  -2.338  -1.871  0.00  0.00    +0.006 A 
BRANCH  23  26
ATOM     26  C   UNL     1      -6.144  -0.333  -4.951  0.00  0.00    -0.007 A 
ATOM     27  C   UNL     1      -6.811   0.880  -5.107  0.00  0.00    +0.009 A 
ATOM     28  C   UNL     1      -7.316   1.237  -6.341  0.00  0.00    +0.001 A 
ATOM     29  C   UNL     1      -7.164   0.396  -7.430  0.00  0.00    +0.001 A 
ATOM     30  C   UNL     1      -6.506  -0.810  -7.295  0.00  0.00    +0.012 A 
ATOM     31  C   UNL     1      -5.985  -1.184  -6.058  0.00  0.00    +0.030 A 
BRANCH  31  32
ATOM     32  C   UNL     1      -5.275  -2.472  -5.909  0.00  0.00    +0.207 A 
ATOM     33  N   UNL     1      -4.737  -2.963  -4.790  0.00  0.00    -0.106 NA
ATOM     34  N   UNL     1      -4.214  -4.105  -5.081  0.00  0.00    -0.021 NA
ATOM     35  N   UNL     1      -4.399  -4.351  -6.330  0.00  0.00    -0.021 NA
ATOM     36  N   UNL     1      -5.050  -3.375  -6.865  0.00  0.00    -0.106 NA
ENDBRANCH  31  32
ENDBRANCH  23  26
ENDBRANCH  19  20
ENDBRANCH   9  19
TORSDOF 9
