REMARK  Name = ZINC59255252
REMARK  7 active torsions:
REMARK  status: ('A' for Active; 'I' for Inactive)
REMARK    1  A    between atoms: C_1  and  C_2
REMARK    2  A    between atoms: C_5  and  N_8
REMARK    3  A    between atoms: C_14  and  S_15
REMARK    4  A    between atoms: S_15  and  C_16
REMARK    5  A    between atoms: C_16  and  C_17
REMARK    6  A    between atoms: C_23  and  C_28
REMARK    7  A    between atoms: C_23  and  C_32
REMARK                            x       y       z     vdW  Elec       q    Type
REMARK                         _______ _______ _______ _____ _____    ______ ____
ROOT
ATOM      1  N   UNL     1       0.760  -3.845   0.465  0.00  0.00    -0.234 N 
ATOM      2  C   UNL     1       0.634  -4.719   1.520  0.00  0.00    +0.137 C 
ATOM      3  C   UNL     1       0.446  -6.074   1.233  0.00  0.00    +0.098 C 
ATOM      4  C   UNL     1       0.391  -6.498  -0.078  0.00  0.00    +0.281 C 
ATOM      5  O   UNL     1       0.209  -7.808  -0.364  0.00  0.00    -0.265 OA
ATOM      6  N   UNL     1       0.518  -5.604  -1.065  0.00  0.00    -0.186 NA
ATOM      7  C   UNL     1       0.692  -4.322  -0.813  0.00  0.00    +0.170 C 
ATOM      8  C   UNL     1       0.309  -7.029   2.395  0.00  0.00    +0.260 C 
ATOM      9  N   UNL     1       0.389  -6.425   3.740  0.00  0.00    -0.273 N 
ATOM     10  C   UNL     1       0.574  -5.094   3.833  0.00  0.00    +0.326 C 
ATOM     11  O   UNL     1       0.640  -4.596   4.944  0.00  0.00    -0.251 OA
ATOM     12  N   UNL     1       0.688  -4.299   2.781  0.00  0.00    -0.147 NA
ATOM     13  H   UNL     1       0.309  -6.973   4.536  0.00  0.00    +0.152 HD
ENDROOT
BRANCH   1  18
ATOM     14  C   UNL     1       1.530   1.696   1.414  0.00  0.00    +0.044 C 
ATOM     15  C   UNL     1       1.325   0.224   1.162  0.00  0.00    -0.050 A 
ATOM     16  C   UNL     1       0.051  -0.311   1.198  0.00  0.00    +0.005 A 
ATOM     17  C   UNL     1      -0.140  -1.659   0.967  0.00  0.00    +0.024 A 
ATOM     18  C   UNL     1       0.950  -2.477   0.699  0.00  0.00    +0.042 A 
ATOM     19  C   UNL     1       2.228  -1.937   0.664  0.00  0.00    +0.024 A 
ATOM     20  C   UNL     1       2.412  -0.587   0.890  0.00  0.00    +0.005 A 
ENDBRANCH   1  18
BRANCH   8  21
ATOM     21  C   UNL     1      -1.039  -7.742   2.271  0.00  0.00    +0.424 C 
ATOM     22  F   UNL     1      -1.023  -8.578   1.149  0.00  0.00    -0.168 F 
ATOM     23  F   UNL     1      -1.269  -8.508   3.419  0.00  0.00    -0.168 F 
ATOM     24  F   UNL     1      -2.057  -6.793   2.132  0.00  0.00    -0.168 F 
ENDBRANCH   8  21
BRANCH   8  25
ATOM     25  C   UNL     1       1.411  -8.084   2.279  0.00  0.00    +0.424 C 
ATOM     26  F   UNL     1       2.657  -7.451   2.211  0.00  0.00    -0.168 F 
ATOM     27  F   UNL     1       1.375  -8.922   3.399  0.00  0.00    -0.168 F 
ATOM     28  F   UNL     1       1.210  -8.844   1.121  0.00  0.00    -0.168 F 
ENDBRANCH   8  25
BRANCH   7  29
ATOM     29  S   UNL     1       0.845  -3.196  -2.159  0.00  0.00    -0.085 S 
BRANCH  29  30
ATOM     30  C   UNL     1       0.697  -4.248  -3.630  0.00  0.00    +0.112 C 
BRANCH  30  31
ATOM     31  C   UNL     1       0.813  -3.398  -4.869  0.00  0.00    -0.037 A 
ATOM     32  C   UNL     1      -0.319  -2.840  -5.432  0.00  0.00    +0.004 A 
ATOM     33  C   UNL     1      -0.213  -2.060  -6.569  0.00  0.00    +0.000 A 
ATOM     34  C   UNL     1       1.025  -1.838  -7.142  0.00  0.00    +0.000 A 
ATOM     35  C   UNL     1       2.157  -2.396  -6.578  0.00  0.00    +0.000 A 
ATOM     36  C   UNL     1       2.052  -3.172  -5.439  0.00  0.00    +0.004 A 
ENDBRANCH  30  31
ENDBRANCH  29  30
ENDBRANCH   7  29
TORSDOF 6
