REMARK  Name = ZINC32124760
REMARK  9 active torsions:
REMARK  status: ('A' for Active; 'I' for Inactive)
REMARK    1  A    between atoms: C_3  and  S_32
REMARK    2  A    between atoms: C_4  and  N_29
REMARK    3  A    between atoms: C_6  and  C_7
REMARK    4  A    between atoms: N_11  and  C_15
REMARK    5  A    between atoms: C_15  and  C_16
REMARK    6  A    between atoms: N_18  and  C_19
REMARK    7  A    between atoms: S_32  and  C_33
REMARK    8  A    between atoms: C_33  and  C_34
REMARK    9  A    between atoms: C_34  and  O_35
REMARK                            x       y       z     vdW  Elec       q    Type
REMARK                         _______ _______ _______ _____ _____    ______ ____
ROOT
ATOM      1  C   UNL     1       9.655   2.263   1.512  0.00  0.00    +0.028 C 
ATOM      2  C   UNL     1       9.143   1.416   0.582  0.00  0.00    +0.080 C 
ATOM      3  C   UNL     1       8.298   0.220   0.763  0.00  0.00    +0.261 C 
ATOM      4  O   UNL     1       7.947  -0.154   1.867  0.00  0.00    -0.269 OA
ATOM      5  N   UNL     1       7.939  -0.424  -0.335  0.00  0.00    -0.219 N 
ATOM      6  C   UNL     1       8.334  -0.009  -1.556  0.00  0.00    +0.286 C 
ATOM      7  O   UNL     1       8.085  -0.504  -2.639  0.00  0.00    -0.262 OA
ATOM      8  S   UNL     1       9.308   1.444  -1.198  0.00  0.00    -0.026 S 
ENDROOT
BRANCH   1  14
ATOM      9  C   UNL     1      10.883   4.377   1.960  0.00  0.00    +0.009 A 
ATOM     10  C   UNL     1      11.787   5.331   1.586  0.00  0.00    +0.017 A 
ATOM     11  C   UNL     1      12.451   5.223   0.366  0.00  0.00    +0.038 A 
ATOM     12  C   UNL     1      12.198   4.144  -0.477  0.00  0.00    +0.140 A 
ATOM     13  C   UNL     1      11.300   3.183  -0.109  0.00  0.00    +0.041 A 
ATOM     14  C   UNL     1      10.625   3.289   1.115  0.00  0.00    -0.022 A 
BRANCH  12  15
ATOM     15  N   UNL     1      12.906   4.035  -1.772  0.00  0.00    +0.058 N 
ATOM     16  O   UNL     1      12.685   3.092  -2.510  0.00  0.00    -0.126 OA
ATOM     17  O   UNL     1      13.711   4.889  -2.100  0.00  0.00    -0.126 OA
ENDBRANCH  12  15
BRANCH  11  18
ATOM     18  S   UNL     1      13.616   6.456  -0.111  0.00  0.00    -0.121 S 
BRANCH  18  19
ATOM     19  C   UNL     1      13.607   7.628   1.274  0.00  0.00    +0.102 C 
BRANCH  19  20
ATOM     20  C   UNL     1      14.589   8.765   0.986  0.00  0.00    +0.167 C 
BRANCH  20  21
ATOM     21  O   UNL     1      14.582   9.688   2.077  0.00  0.00    -0.394 OA
ATOM     22  H   UNL     1      15.230  10.577   2.049  0.00  0.00    +0.209 HD
ENDBRANCH  20  21
ENDBRANCH  19  20
ENDBRANCH  18  19
ENDBRANCH  11  18
ENDBRANCH   1  14
BRANCH   5  23
ATOM     23  C   UNL     1       7.100  -1.620  -0.221  0.00  0.00    +0.213 C 
BRANCH  23  24
ATOM     24  C   UNL     1       5.648  -1.221  -0.277  0.00  0.00    +0.235 C 
ATOM     25  O   UNL     1       5.344  -0.053  -0.400  0.00  0.00    -0.274 OA
ATOM     26  N   UNL     1       4.687  -2.163  -0.191  0.00  0.00    -0.284 N 
ATOM     27  H   UNL     1       4.960  -3.212  -0.005  0.00  0.00    +0.155 HD
BRANCH  26  28
ATOM     28  C   UNL     1       3.341  -1.804  -0.338  0.00  0.00    +0.037 A 
ATOM     29  C   UNL     1       2.363  -2.463   0.395  0.00  0.00    +0.027 A 
ATOM     30  C   UNL     1       1.035  -2.111   0.250  0.00  0.00    +0.051 A 
ATOM     31  C   UNL     1       0.674  -1.100  -0.628  0.00  0.00    +0.162 A 
ATOM     32  C   UNL     1       1.651  -0.436  -1.361  0.00  0.00    +0.164 A 
ATOM     33  C   UNL     1       2.984  -0.791  -1.216  0.00  0.00    +0.072 A 
ATOM     34  O   UNL     1       1.317   0.564  -2.222  0.00  0.00    -0.485 OA
ATOM     35  C   UNL     1      -0.055   0.637  -2.622  0.00  0.00    +0.270 C 
ATOM     36  C   UNL     1      -0.929   0.493  -1.369  0.00  0.00    +0.270 C 
ATOM     37  O   UNL     1      -0.641  -0.772  -0.764  0.00  0.00    -0.485 OA
ENDBRANCH  26  28
ENDBRANCH  23  24
ENDBRANCH   5  23
TORSDOF 9
