REMARK  Name = ZINC33010091
REMARK  7 active torsions:
REMARK  status: ('A' for Active; 'I' for Inactive)
REMARK    1  A    between atoms: C_1  and  C_2
REMARK    2  A    between atoms: C_2  and  C_3
REMARK    3  A    between atoms: C_2  and  C_4
REMARK    4  A    between atoms: C_4  and  C_6
REMARK    5  A    between atoms: C_4  and  N_11
REMARK    6  A    between atoms: C_12  and  C_14
REMARK    7  A    between atoms: C_26  and  C_29
REMARK                            x       y       z     vdW  Elec       q    Type
REMARK                         _______ _______ _______ _____ _____    ______ ____
ROOT
ATOM      1  C   UNL     1      -1.281   1.363   3.609  0.00  0.00    +0.078 C 
ATOM      2  C   UNL     1      -0.789   2.770   3.959  0.00  0.00    +0.031 C 
ATOM      3  C   UNL     1      -1.462   3.233   5.253  0.00  0.00    +0.107 C 
ATOM      4  N   UNL     1      -1.139   2.297   6.338  0.00  0.00    -0.314 N 
ATOM      5  C   UNL     1      -1.645   0.950   6.045  0.00  0.00    +0.107 C 
ATOM      6  C   UNL     1      -0.976   0.418   4.775  0.00  0.00    +0.031 C 
ATOM      7  C   UNL     1      -1.628   2.758   7.556  0.00  0.00    +0.142 A 
ATOM      8  C   UNL     1      -1.256   4.037   8.016  0.00  0.00    +0.049 A 
ATOM      9  C   UNL     1      -1.727   4.498   9.205  0.00  0.00    +0.053 A 
ATOM     10  C   UNL     1      -2.587   3.683   9.964  0.00  0.00    +0.178 A 
ATOM     11  N   UNL     1      -3.200   3.836  11.129  0.00  0.00    -0.128 NA
ATOM     12  N   UNL     1      -3.889   2.782  11.396  0.00  0.00    -0.127 NA
ATOM     13  C   UNL     1      -3.759   1.897  10.424  0.00  0.00    +0.185 A 
ATOM     14  N   UNL     1      -2.931   2.442   9.488  0.00  0.00    -0.191 N 
ATOM     15  N   UNL     1      -2.434   1.999   8.261  0.00  0.00    -0.148 NA
ENDROOT
BRANCH  13  16
ATOM     16  C   UNL     1      -4.394   0.564  10.363  0.00  0.00    +0.021 A 
ATOM     17  C   UNL     1      -3.942  -0.386   9.445  0.00  0.00    +0.013 A 
ATOM     18  C   UNL     1      -4.535  -1.630   9.396  0.00  0.00    +0.021 A 
ATOM     19  C   UNL     1      -5.584  -1.934  10.247  0.00  0.00    +0.041 A 
ATOM     20  C   UNL     1      -6.041  -0.994  11.155  0.00  0.00    +0.021 A 
ATOM     21  C   UNL     1      -5.453   0.252  11.218  0.00  0.00    +0.013 A 
ATOM     22 CL   UNL     1      -6.331  -3.500  10.174  0.00  0.00    -0.084 Cl
ENDBRANCH  13  16
BRANCH   1  24
ATOM     23  N   UNL     1      -0.698   1.558   1.213  0.00  0.00    -0.308 N 
ATOM     24  C   UNL     1      -0.575   0.877   2.369  0.00  0.00    +0.217 C 
ATOM     25  O   UNL     1       0.103  -0.128   2.412  0.00  0.00    -0.275 OA
ATOM     26  H   UNL     1      -1.314   2.469   1.175  0.00  0.00    +0.149 HD
BRANCH  23  27
ATOM     27  C   UNL     1      -0.013   1.086   0.008  0.00  0.00    +0.112 C 
BRANCH  27  28
ATOM     28  C   UNL     1      -0.742   1.585  -1.213  0.00  0.00    +0.010 A 
ATOM     29  C   UNL     1      -0.999   0.940  -2.377  0.00  0.00    +0.013 A 
ATOM     30  C   UNL     1      -1.694   1.602  -3.371  0.00  0.00    +0.008 A 
ATOM     31  C   UNL     1      -2.096   2.878  -3.153  0.00  0.00    +0.045 A 
ATOM     32  S   UNL     1      -1.496   3.177  -1.499  0.00  0.00    -0.100 S 
ENDBRANCH  27  28
BRANCH  27  34
ATOM     33  C   UNL     1       2.163   1.109   1.237  0.00  0.00    +0.009 C 
ATOM     34  C   UNL     1       1.423   1.615  -0.003  0.00  0.00    +0.008 C 
ATOM     35  C   UNL     1       2.139   1.122  -1.262  0.00  0.00    +0.009 C 
ENDBRANCH  27  34
ENDBRANCH  23  27
ENDBRANCH   1  24
TORSDOF 5
