REMARK  Name = ZINC13461696
REMARK  13 active torsions:
REMARK  status: ('A' for Active; 'I' for Inactive)
REMARK    1  A    between atoms: C_1  and  N_2
REMARK    2  A    between atoms: N_2  and  C_3
REMARK    3  A    between atoms: N_2  and  S_4
REMARK    4  A    between atoms: S_4  and  C_7
REMARK    5  A    between atoms: C_10  and  N_15
REMARK    6  A    between atoms: C_11  and  C_13
REMARK    7  A    between atoms: N_15  and  C_16
REMARK    8  A    between atoms: C_16  and  C_18
REMARK    9  A    between atoms: C_16  and  C_20
REMARK   10  A    between atoms: C_18  and  O_19
REMARK   11  A    between atoms: C_20  and  C_22
REMARK   12  A    between atoms: C_20  and  O_31
REMARK   13  A    between atoms: C_25  and  N_28
REMARK                            x       y       z     vdW  Elec       q    Type
REMARK                         _______ _______ _______ _____ _____    ______ ____
ROOT
ATOM      1  N   UNK A   1       3.670   2.961  -0.228  0.00  0.00    -0.335 N 
ATOM      2  H   UNK A   1       2.911   3.563  -0.176  0.00  0.00    +0.147 HD
ENDROOT
BRANCH   1   6
ATOM      3  C   UNK A   0       3.118  -1.139   0.262  0.00  0.00    +0.106 A 
ATOM      4  C   UNK A   0       4.395  -0.615   0.137  0.00  0.00    +0.030 A 
ATOM      5  C   UNK A   0       4.582   0.742  -0.021  0.00  0.00    +0.025 A 
ATOM      6  C   UNK A   0       3.486   1.595  -0.062  0.00  0.00    +0.042 A 
ATOM      7  C   UNK A   0       2.191   1.069   0.069  0.00  0.00    +0.086 A 
ATOM      8  C   UNK A   0       2.019  -0.309   0.229  0.00  0.00    +0.045 A 
BRANCH   3   9
ATOM      9  S   UNK A   0       2.899  -2.876   0.464  0.00  0.00    +0.060 S 
ATOM     10  O   UNK A   0       4.111  -3.377   1.010  0.00  0.00    -0.153 OA
ATOM     11  O   UNK A   0       1.643  -3.055   1.104  0.00  0.00    -0.153 OA
BRANCH   9  13
ATOM     12  C   UNK A   0       3.949  -3.984  -1.768  0.00  0.00    +0.131 C 
ATOM     13  N   UNK A   0       2.755  -3.530  -1.050  0.00  0.00    -0.183 NA
ATOM     14  C   UNK A   0       1.435  -3.655  -1.672  0.00  0.00    +0.131 C 
ENDBRANCH   9  13
ENDBRANCH   3   9
BRANCH   7  15
ATOM     15  C   UNK A   0       1.020   1.962   0.033  0.00  0.00    +0.388 C 
ATOM     16  O   UNK A   0       1.176   3.167   0.004  0.00  0.00    -0.241 OA
ATOM     17  O   UNK A   0      -0.224   1.443   0.032  0.00  0.00    -0.241 OA
ENDBRANCH   7  15
ENDBRANCH   1   6
BRANCH   1  18
ATOM     18  C   UNK A   1       5.011   3.494  -0.481  0.00  0.00    +0.129 C 
BRANCH  18  19
ATOM     19  C   UNK A   1       5.735   3.706   0.850  0.00  0.00    +0.180 C 
BRANCH  19  20
ATOM     20  O   UNK A   1       5.053   4.705   1.610  0.00  0.00    -0.393 OA
ATOM     21  H   UNK A   1       5.458   4.891   2.469  0.00  0.00    +0.209 HD
ENDBRANCH  19  20
ENDBRANCH  18  19
BRANCH  18  22
ATOM     22  C   UNK A   1       4.899   4.830  -1.218  0.00  0.00    +0.167 C 
BRANCH  22  23
ATOM     23  C   UNK A   1       4.088   4.644  -2.474  0.00  0.00    -0.017 A 
ATOM     24  C   UNK A   1       4.679   4.114  -3.606  0.00  0.00    +0.008 A 
ATOM     25  C   UNK A   1       3.933   3.938  -4.757  0.00  0.00    +0.033 A 
ATOM     26  C   UNK A   1       2.600   4.302  -4.780  0.00  0.00    +0.126 A 
ATOM     27  C   UNK A   1       2.010   4.837  -3.649  0.00  0.00    +0.033 A 
ATOM     28  C   UNK A   1       2.754   5.007  -2.497  0.00  0.00    +0.008 A 
BRANCH  26  29
ATOM     29  N   UNK A   1       1.804   4.120  -6.014  0.00  0.00    +0.056 N 
ATOM     30  O   UNK A   1       0.629   4.441  -6.034  0.00  0.00    -0.126 OA
ATOM     31  O   UNK A   1       2.323   3.649  -7.010  0.00  0.00    -0.126 OA
ENDBRANCH  26  29
ENDBRANCH  22  23
BRANCH  22  32
ATOM     32  O   UNK A   1       6.205   5.297  -1.559  0.00  0.00    -0.385 OA
ATOM     33  H   UNK A   1       6.673   4.732  -2.189  0.00  0.00    +0.210 HD
ENDBRANCH  22  32
ENDBRANCH  18  22
ENDBRANCH   1  18
TORSDOF 11
