REMARK  Name = ZINC35226867
REMARK  14 active torsions:
REMARK  status: ('A' for Active; 'I' for Inactive)
REMARK    1  A    between atoms: C_1  and  C_2
REMARK    2  A    between atoms: C_2  and  O_3
REMARK    3  A    between atoms: O_3  and  C_4
REMARK    4  A    between atoms: C_7  and  C_10
REMARK    5  A    between atoms: C_10  and  N_11
REMARK    6  A    between atoms: N_11  and  C_12
REMARK    7  A    between atoms: N_11  and  C_20
REMARK    8  A    between atoms: C_12  and  C_13
REMARK    9  A    between atoms: C_20  and  C_21
REMARK   10  A    between atoms: C_24  and  C_26
REMARK   11  A    between atoms: C_32  and  C_35
REMARK   12  A    between atoms: C_35  and  O_37
REMARK   13  A    between atoms: O_37  and  C_38
REMARK   14  A    between atoms: C_38  and  C_39
REMARK                            x       y       z     vdW  Elec       q    Type
REMARK                         _______ _______ _______ _____ _____    ______ ____
ROOT
ATOM      1  N   UNL     1      -1.868  -6.390   1.076  0.00  0.00    +0.390 N 
ATOM      2  H   UNL     1      -2.652  -6.088   1.635  0.00  0.00    -0.080 HD
ENDROOT
BRANCH   1   3
ATOM      3  C   UNL     1      -0.619  -6.141   1.809  0.00  0.00    -0.042 C 
BRANCH   3   7
ATOM      4  C   UNL     1      -0.423  -2.023   2.932  0.00  0.00    +0.121 A 
ATOM      5  C   UNL     1      -1.011  -2.948   3.783  0.00  0.00    +0.046 A 
ATOM      6  C   UNL     1      -1.073  -4.279   3.417  0.00  0.00    +0.005 A 
ATOM      7  C   UNL     1      -0.550  -4.689   2.205  0.00  0.00    -0.064 A 
ATOM      8  C   UNL     1       0.036  -3.769   1.355  0.00  0.00    +0.005 A 
ATOM      9  C   UNL     1       0.095  -2.436   1.714  0.00  0.00    +0.046 A 
BRANCH   4  10
ATOM     10  O   UNL     1      -0.361  -0.713   3.289  0.00  0.00    -0.492 OA
BRANCH  10  12
ATOM     11  C   UNL     1      -0.754   1.145   4.784  0.00  0.00    +0.048 C 
ATOM     12  C   UNL     1      -0.915  -0.360   4.558  0.00  0.00    +0.225 C 
ENDBRANCH  10  12
ENDBRANCH   4  10
ENDBRANCH   3   7
ENDBRANCH   1   3
BRANCH   1  13
ATOM     13  C   UNL     1      -1.851  -5.643  -0.189  0.00  0.00    -0.042 C 
BRANCH  13  14
ATOM     14  C   UNL     1      -3.178  -5.803  -0.884  0.00  0.00    -0.061 A 
ATOM     15  C   UNL     1      -3.389  -6.874  -1.732  0.00  0.00    +0.002 A 
ATOM     16  C   UNL     1      -4.606  -7.022  -2.371  0.00  0.00    +0.003 A 
ATOM     17  C   UNL     1      -5.613  -6.098  -2.163  0.00  0.00    +0.038 A 
ATOM     18  C   UNL     1      -5.403  -5.025  -1.315  0.00  0.00    +0.124 A 
ATOM     19  C   UNL     1      -4.185  -4.881  -0.670  0.00  0.00    +0.040 A 
ATOM     20  F   UNL     1      -6.386  -4.121  -1.111  0.00  0.00    -0.205 F 
ENDBRANCH  13  14
ENDBRANCH   1  13
BRANCH   1  21
ATOM     21  C   UNL     1      -1.992  -7.827   0.794  0.00  0.00    -0.002 C 
BRANCH  21  22
ATOM     22  C   UNL     1      -2.125  -8.583   2.091  0.00  0.00    +0.090 A 
ATOM     23  C   UNL     1      -3.277  -8.793   2.765  0.00  0.00    +0.043 A 
ATOM     24  C   UNL     1      -2.955  -9.537   3.911  0.00  0.00    +0.055 A 
ATOM     25  C   UNL     1      -1.606  -9.746   3.877  0.00  0.00    +0.190 A 
ATOM     26  O   UNL     1      -1.121  -9.163   2.761  0.00  0.00    -0.457 OA
BRANCH  25  27
ATOM     27  C   UNL     1      -0.823 -10.480   4.877  0.00  0.00    +0.282 C 
ATOM     28  O   UNL     1      -1.387 -11.070   5.779  0.00  0.00    -0.267 OA
ATOM     29  N   UNL     1       0.522 -10.500   4.796  0.00  0.00    -0.294 N 
ATOM     30  C   UNL     1       1.225  -9.680   3.800  0.00  0.00    +0.108 C 
ATOM     31  C   UNL     1       2.274  -8.825   4.517  0.00  0.00    +0.020 C 
ATOM     32  C   UNL     1       3.189  -9.732   5.342  0.00  0.00    +0.018 C 
ATOM     33  C   UNL     1       2.362 -10.468   6.399  0.00  0.00    +0.115 C 
ATOM     34  C   UNL     1       1.315 -11.338   5.707  0.00  0.00    +0.122 C 
BRANCH  33  35
ATOM     35  C   UNL     1       3.269 -11.337   7.232  0.00  0.00    +0.312 C 
ATOM     36  O   UNL     1       4.456 -11.364   7.005  0.00  0.00    -0.250 OA
BRANCH  35  37
ATOM     37  O   UNL     1       2.759 -12.079   8.227  0.00  0.00    -0.465 OA
BRANCH  37  38
ATOM     38  C   UNL     1       3.677 -12.879   8.976  0.00  0.00    +0.229 C 
ATOM     39  C   UNL     1       2.917 -13.649  10.058  0.00  0.00    +0.048 C 
ENDBRANCH  37  38
ENDBRANCH  35  37
ENDBRANCH  33  35
ENDBRANCH  25  27
ENDBRANCH  21  22
ENDBRANCH   1  21
TORSDOF 12
