REMARK  Name = ZINC64012144
REMARK  13 active torsions:
REMARK  status: ('A' for Active; 'I' for Inactive)
REMARK    1  A    between atoms: C_1  and  C_2
REMARK    2  A    between atoms: C_2  and  C_3
REMARK    3  A    between atoms: C_3  and  C_4
REMARK    4  A    between atoms: C_4  and  N_5
REMARK    5  A    between atoms: C_6  and  N_36
REMARK    6  A    between atoms: C_8  and  N_15
REMARK    7  A    between atoms: N_15  and  C_16
REMARK    8  A    between atoms: N_15  and  C_21
REMARK    9  A    between atoms: C_16  and  C_17
REMARK   10  A    between atoms: C_17  and  C_18
REMARK   11  A    between atoms: C_18  and  C_19
REMARK   12  A    between atoms: C_18  and  C_20
REMARK   13  A    between atoms: C_21  and  C_22
REMARK                            x       y       z     vdW  Elec       q    Type
REMARK                         _______ _______ _______ _____ _____    ______ ____
ROOT
ATOM      1  N   UNL     1       1.575  -0.954  -4.924  0.00  0.00    -0.282 NA
ENDROOT
BRANCH   1   4
ATOM      2  N   UNL     1       1.219  -2.229  -2.228  0.00  0.00    -0.267 N 
ATOM      3  C   UNL     1       0.487  -2.579  -3.449  0.00  0.00    +0.169 C 
ATOM      4  C   UNL     1       1.406  -2.389  -4.658  0.00  0.00    +0.181 C 
ATOM      5  C   UNL     1       2.748  -3.009  -4.366  0.00  0.00    +0.261 C 
ATOM      6  O   UNL     1       3.458  -3.562  -5.363  0.00  0.00    -0.272 OA
ATOM      7  N   UNL     1       3.225  -3.014  -3.153  0.00  0.00    -0.127 NA
ATOM      8  C   UNL     1       2.531  -2.500  -2.123  0.00  0.00    +0.330 C 
ATOM      9  O   UNL     1       3.103  -2.279  -1.072  0.00  0.00    -0.250 OA
BRANCH   3  10
ATOM     10  N   UNL     1       0.053  -3.981  -3.376  0.00  0.00    -0.311 NA
ATOM     11  H   UNL     1      -0.551  -4.132  -2.582  0.00  0.00    +0.120 HD
ATOM     12  H   UNL     1      -0.398  -4.265  -4.233  0.00  0.00    +0.120 HD
ENDBRANCH   3  10
BRANCH   2  13
ATOM     13  C   UNL     1       0.518  -1.576  -1.119  0.00  0.00    +0.111 C 
BRANCH  13  14
ATOM     14  C   UNL     1       0.586  -0.058  -1.297  0.00  0.00    +0.019 C 
BRANCH  14  16
ATOM     15  C   UNL     1      -0.079   2.142  -0.318  0.00  0.00    +0.004 C 
ATOM     16  C   UNL     1      -0.146   0.624  -0.140  0.00  0.00    -0.002 C 
ENDBRANCH  14  16
ENDBRANCH  13  14
ENDBRANCH   2  13
ENDBRANCH   1   4
BRANCH   1  17
ATOM     17  C   UNL     1       2.545  -0.730  -6.004  0.00  0.00    +0.086 C 
BRANCH  17  18
ATOM     18  C   UNL     1       2.999   0.732  -5.987  0.00  0.00    +0.018 C 
BRANCH  18  19
ATOM     19  C   UNL     1       4.094   0.938  -7.036  0.00  0.00    -0.016 C 
ATOM     20  C   UNL     1       4.460   2.422  -7.106  0.00  0.00    +0.007 C 
ATOM     21  C   UNL     1       5.331   0.125  -6.647  0.00  0.00    +0.007 C 
ENDBRANCH  18  19
ENDBRANCH  17  18
ENDBRANCH   1  17
BRANCH   1  22
ATOM     22  C   UNL     1       0.287  -0.319  -5.232  0.00  0.00    +0.158 C 
BRANCH  22  23
ATOM     23  C   UNL     1      -0.283  -0.926  -6.488  0.00  0.00    +0.138 C 
ATOM     24  N   UNL     1       0.384  -1.894  -7.070  0.00  0.00    -0.160 NA
ATOM     25  C   UNL     1      -0.037  -2.490  -8.190  0.00  0.00    +0.271 C 
ATOM     26  O   UNL     1       0.605  -3.393  -8.700  0.00  0.00    -0.268 OA
ATOM     27  C   UNL     1      -1.319  -2.018  -8.799  0.00  0.00    +0.071 C 
ATOM     28  C   UNL     1      -1.871  -2.376  -9.973  0.00  0.00    -0.042 C 
ATOM     29  C   UNL     1      -1.521  -3.058 -11.293  0.00  0.00    +0.033 C 
ATOM     30  C   UNL     1      -2.310  -2.298 -12.381  0.00  0.00    +0.006 C 
ATOM     31  C   UNL     1      -3.183  -1.262 -11.627  0.00  0.00    +0.019 C 
ATOM     32  C   UNL     1      -3.297  -1.885 -10.223  0.00  0.00    +0.079 C 
ATOM     33  S   UNL     1      -3.476  -0.599  -8.935  0.00  0.00    -0.097 S 
ATOM     34  C   UNL     1      -1.981  -0.935  -8.037  0.00  0.00    +0.112 C 
ATOM     35  N   UNL     1      -1.435  -0.458  -6.945  0.00  0.00    -0.226 NA
ENDBRANCH  22  23
ENDBRANCH   1  22
TORSDOF 10
