REMARK  Name = ZINC25286362
REMARK  6 active torsions:
REMARK  status: ('A' for Active; 'I' for Inactive)
REMARK    1  A    between atoms: C_9  and  O_33
REMARK    2  A    between atoms: C_10  and  C_14
REMARK    3  A    between atoms: C_14  and  N_15
REMARK    4  A    between atoms: N_18  and  S_21
REMARK    5  A    between atoms: S_21  and  C_24
REMARK    6  A    between atoms: C_29  and  N_30
REMARK                            x       y       z     vdW  Elec       q    Type
REMARK                         _______ _______ _______ _____ _____    ______ ____
ROOT
ATOM      1  N   UNL     1       1.405   0.446   2.691  0.00  0.00    -0.296 NA
ATOM      2  C   UNL     1       2.285  -0.649   3.120  0.00  0.00    +0.102 C 
ATOM      3  C   UNL     1       3.737  -0.159   3.133  0.00  0.00    +0.125 C 
ATOM      4  N   UNL     1       3.812   1.058   3.955  0.00  0.00    -0.174 NA
ATOM      5  C   UNL     1       2.867   2.148   3.673  0.00  0.00    +0.125 C 
ATOM      6  C   UNL     1       1.449   1.567   3.639  0.00  0.00    +0.102 C 
ENDROOT
BRANCH   4   7
ATOM      7  S   UNL     1       4.932   1.196   5.168  0.00  0.00    +0.063 S 
ATOM      8  O   UNL     1       6.054   0.419   4.775  0.00  0.00    -0.153 OA
ATOM      9  O   UNL     1       5.032   2.581   5.471  0.00  0.00    -0.153 OA
BRANCH   7  10
ATOM     10  C   UNL     1       4.253   0.416   6.595  0.00  0.00    +0.136 A 
ATOM     11  C   UNL     1       2.914   0.075   6.625  0.00  0.00    +0.031 A 
ATOM     12  C   UNL     1       2.383  -0.541   7.742  0.00  0.00    +0.002 A 
ATOM     13  C   UNL     1       3.189  -0.808   8.834  0.00  0.00    +0.002 A 
ATOM     14  C   UNL     1       4.527  -0.462   8.805  0.00  0.00    +0.035 A 
ATOM     15  C   UNL     1       5.059   0.150   7.686  0.00  0.00    +0.152 A 
BRANCH  15  16
ATOM     16  N   UNL     1       6.492   0.520   7.655  0.00  0.00    +0.058 N 
ATOM     17  O   UNL     1       7.229   0.175   8.561  0.00  0.00    -0.126 OA
ATOM     18  O   UNL     1       6.933   1.171   6.725  0.00  0.00    -0.126 OA
ENDBRANCH  15  16
ENDBRANCH   7  10
ENDBRANCH   4   7
BRANCH   1  19
ATOM     19  C   UNL     1       0.028  -0.029   2.501  0.00  0.00    +0.123 C 
BRANCH  19  29
ATOM     20  C   UNL     1      -0.214  -5.465  -3.506  0.00  0.00    +0.001 A 
ATOM     21  C   UNL     1      -0.337  -6.545  -2.646  0.00  0.00    +0.004 A 
ATOM     22  C   UNL     1      -0.370  -6.354  -1.280  0.00  0.00    +0.047 A 
ATOM     23  C   UNL     1      -0.281  -5.071  -0.754  0.00  0.00    +0.136 A 
ATOM     24  C   UNL     1      -0.157  -3.981  -1.627  0.00  0.00    +0.028 A 
ATOM     25  C   UNL     1      -0.124  -4.185  -3.002  0.00  0.00    +0.012 A 
ATOM     26  C   UNL     1      -0.087  -2.785  -0.765  0.00  0.00    +0.031 A 
ATOM     27  C   UNL     1       0.032  -1.421  -1.013  0.00  0.00    +0.058 A 
ATOM     28  C   UNL     1       0.075  -0.533   0.046  0.00  0.00    +0.122 A 
ATOM     29  C   UNL     1      -0.013  -1.003   1.352  0.00  0.00    +0.012 A 
ATOM     30  C   UNL     1      -0.137  -2.353   1.604  0.00  0.00    +0.055 A 
ATOM     31  C   UNL     1      -0.175  -3.259   0.551  0.00  0.00    +0.137 A 
ATOM     32  O   UNL     1      -0.287  -4.606   0.515  0.00  0.00    -0.455 OA
BRANCH  28  33
ATOM     33  O   UNL     1       0.197   0.801  -0.189  0.00  0.00    -0.506 OA
ATOM     34  H   UNL     1       0.230   1.507   0.653  0.00  0.00    +0.292 HD
ENDBRANCH  28  33
ENDBRANCH  19  29
ENDBRANCH   1  19
TORSDOF 6
