REMARK  Name = ZINC34790572
REMARK  12 active torsions:
REMARK  status: ('A' for Active; 'I' for Inactive)
REMARK    1  A    between atoms: C_1  and  C_2
REMARK    2  A    between atoms: C_5  and  O_8
REMARK    3  A    between atoms: O_8  and  C_9
REMARK    4  A    between atoms: C_9  and  C_10
REMARK    5  A    between atoms: C_10  and  C_12
REMARK    6  A    between atoms: C_10  and  O_33
REMARK    7  A    between atoms: C_12  and  N_13
REMARK    8  A    between atoms: C_22  and  O_31
REMARK    9  A    between atoms: C_23  and  O_29
REMARK   10  A    between atoms: C_26  and  C_28
REMARK   11  A    between atoms: O_29  and  C_30
REMARK   12  A    between atoms: O_31  and  C_32
REMARK                            x       y       z     vdW  Elec       q    Type
REMARK                         _______ _______ _______ _____ _____    ______ ____
ROOT
ATOM      1  N   UNL     1       0.130  -8.584   2.018  0.00  0.00    +0.386 N 
ATOM      2  C   UNL     1       0.059  -9.366   3.262  0.00  0.00    -0.066 C 
ATOM      3  C   UNL     1       0.228 -10.844   2.918  0.00  0.00    -0.019 C 
ATOM      4  C   UNL     1       1.683 -11.116   2.493  0.00  0.00    +0.010 C 
ATOM      5  C   UNL     1       2.368 -11.619   3.789  0.00  0.00    +0.001 C 
ATOM      6  C   UNL     1       1.262 -12.480   4.449  0.00  0.00    +0.001 C 
ATOM      7  C   UNL     1      -0.043 -11.707   4.159  0.00  0.00    +0.010 C 
ATOM      8  C   UNL     1      -0.707 -11.235   1.806  0.00  0.00    -0.038 A 
ATOM      9  C   UNL     1      -0.950 -12.581   1.581  0.00  0.00    +0.053 A 
ATOM     10  C   UNL     1      -1.802 -12.977   0.565  0.00  0.00    +0.162 A 
ATOM     11  C   UNL     1      -2.416 -12.016  -0.233  0.00  0.00    +0.162 A 
ATOM     12  C   UNL     1      -2.171 -10.674  -0.003  0.00  0.00    +0.051 A 
ATOM     13  C   UNL     1      -1.319 -10.282   1.018  0.00  0.00    -0.054 A 
ATOM     14  C   UNL     1      -1.090  -8.810   1.240  0.00  0.00    -0.040 C 
ATOM     15  C   UNL     1      -0.960  -8.111  -0.115  0.00  0.00    -0.008 C 
ATOM     16  H   UNL     1       0.932  -8.876   1.480  0.00  0.00    -0.081 HD
ENDROOT
BRANCH  11  17
ATOM     17  O   UNL     1      -3.253 -12.395  -1.236  0.00  0.00    -0.491 OA
ATOM     18  C   UNL     1      -3.848 -11.354  -2.014  0.00  0.00    +0.277 C 
ENDBRANCH  11  17
BRANCH  10  19
ATOM     19  O   UNL     1      -2.038 -14.299   0.347  0.00  0.00    -0.491 OA
ATOM     20  C   UNL     1      -1.372 -15.227   1.205  0.00  0.00    +0.277 C 
ENDBRANCH  10  19
BRANCH   1  21
ATOM     21  C   UNL     1       0.249  -7.156   2.342  0.00  0.00    -0.043 C 
BRANCH  21  22
ATOM     22  C   UNL     1       1.621  -6.887   2.965  0.00  0.00    +0.135 C 
BRANCH  22  23
ATOM     23  O   UNL     1       1.684  -7.492   4.258  0.00  0.00    -0.390 OA
ATOM     24  H   UNL     1       1.019  -7.164   4.878  0.00  0.00    +0.210 HD
ENDBRANCH  22  23
BRANCH  22  25
ATOM     25  C   UNL     1       1.833  -5.378   3.097  0.00  0.00    +0.258 C 
BRANCH  25  26
ATOM     26  O   UNL     1       3.158  -5.123   3.570  0.00  0.00    -0.489 OA
BRANCH  26  31
ATOM     27  C   UNL     1       4.623   0.268   4.288  0.00  0.00    +0.044 C 
ATOM     28  C   UNL     1       4.231  -1.174   4.096  0.00  0.00    -0.050 A 
ATOM     29  C   UNL     1       5.138  -2.179   4.376  0.00  0.00    +0.007 A 
ATOM     30  C   UNL     1       4.782  -3.502   4.200  0.00  0.00    +0.046 A 
ATOM     31  C   UNL     1       3.511  -3.822   3.744  0.00  0.00    +0.121 A 
ATOM     32  C   UNL     1       2.602  -2.812   3.465  0.00  0.00    +0.046 A 
ATOM     33  C   UNL     1       2.962  -1.490   3.647  0.00  0.00    +0.007 A 
ENDBRANCH  26  31
ENDBRANCH  25  26
ENDBRANCH  22  25
ENDBRANCH  21  22
ENDBRANCH   1  21
TORSDOF 8
