REMARK  Name = ZINC46544562
REMARK  11 active torsions:
REMARK  status: ('A' for Active; 'I' for Inactive)
REMARK    1  A    between atoms: C_1  and  C_2
REMARK    2  A    between atoms: C_4  and  C_16
REMARK    3  A    between atoms: C_5  and  C_15
REMARK    4  A    between atoms: N_6  and  C_7
REMARK    5  A    between atoms: C_10  and  O_13
REMARK    6  A    between atoms: O_13  and  C_14
REMARK    7  A    between atoms: C_17  and  C_18
REMARK    8  A    between atoms: C_17  and  C_20
REMARK    9  A    between atoms: C_20  and  O_22
REMARK   10  A    between atoms: O_22  and  C_23
REMARK   11  A    between atoms: C_23  and  C_24
REMARK                            x       y       z     vdW  Elec       q    Type
REMARK                         _______ _______ _______ _____ _____    ______ ____
ROOT
ATOM      1  C   UNL     1       0.407  -3.232  -1.588  0.00  0.00    +0.035 C 
ATOM      2  C   UNL     1       0.157  -3.135  -2.944  0.00  0.00    +0.136 C 
ENDROOT
BRANCH   1   6
ATOM      3  C   UNL     1       0.770   1.600  -0.160  0.00  0.00    +0.064 C 
ATOM      4  C   UNL     1       0.626   0.100  -0.167  0.00  0.00    +0.022 A 
ATOM      5  C   UNL     1       0.629  -0.677  -1.263  0.00  0.00    +0.031 A 
ATOM      6  C   UNL     1       0.464  -2.060  -0.793  0.00  0.00    -0.003 A 
ATOM      7  C   UNL     1       0.374  -1.983   0.588  0.00  0.00    +0.028 A 
ATOM      8  N   UNL     1       0.478  -0.687   0.942  0.00  0.00    -0.317 N 
ATOM      9  C   UNL     1       0.197  -3.146   1.530  0.00  0.00    +0.064 C 
BRANCH   8  10
ATOM     10  C   UNL     1       0.438  -0.211   2.261  0.00  0.00    +0.047 A 
ATOM     11  C   UNL     1       1.446  -0.550   3.152  0.00  0.00    +0.030 A 
ATOM     12  C   UNL     1       1.406  -0.082   4.450  0.00  0.00    +0.047 A 
ATOM     13  C   UNL     1       0.358   0.728   4.864  0.00  0.00    +0.120 A 
ATOM     14  C   UNL     1      -0.651   1.067   3.973  0.00  0.00    +0.047 A 
ATOM     15  C   UNL     1      -0.609   0.603   2.673  0.00  0.00    +0.030 A 
BRANCH  13  16
ATOM     16  O   UNL     1       0.318   1.189   6.142  0.00  0.00    -0.495 OA
ATOM     17  C   UNL     1      -0.790   2.017   6.499  0.00  0.00    +0.277 C 
ENDBRANCH  13  16
ENDBRANCH   8  10
ENDBRANCH   1   6
BRANCH   2  18
ATOM     18  C   UNL     1      -0.031  -1.850  -3.548  0.00  0.00    +0.106 C 
ATOM     19  N   UNL     1      -0.180  -0.831  -4.027  0.00  0.00    -0.191 NA
ENDBRANCH   2  18
BRANCH   2  20
ATOM     20  C   UNL     1       0.083  -4.349  -3.765  0.00  0.00    +0.350 C 
ATOM     21  O   UNL     1       0.242  -5.440  -3.253  0.00  0.00    -0.244 OA
BRANCH  20  22
ATOM     22  O   UNL     1      -0.162  -4.255  -5.088  0.00  0.00    -0.451 OA
BRANCH  22  23
ATOM     23  C   UNL     1      -0.220  -5.477  -5.826  0.00  0.00    +0.328 C 
BRANCH  23  24
ATOM     24  C   UNL     1      -0.500  -5.176  -7.276  0.00  0.00    +0.253 C 
ATOM     25  O   UNL     1      -0.636  -4.028  -7.641  0.00  0.00    -0.272 OA
ATOM     26  N   UNL     1      -0.599  -6.183  -8.166  0.00  0.00    -0.296 N 
ATOM     27  C   UNL     1      -0.442  -7.580  -7.737  0.00  0.00    +0.127 C 
ATOM     28  C   UNL     1      -1.686  -8.367  -8.165  0.00  0.00    +0.125 C 
ATOM     29  N   UNL     1      -1.953  -8.088  -9.583  0.00  0.00    -0.314 N 
ATOM     30  C   UNL     1      -2.110  -6.691 -10.012  0.00  0.00    +0.125 C 
ATOM     31  C   UNL     1      -0.871  -5.904  -9.583  0.00  0.00    +0.127 C 
ATOM     32  C   UNL     1      -2.055  -9.126 -10.501  0.00  0.00    +0.099 A 
ATOM     33  C   UNL     1      -2.166 -10.438 -10.050  0.00  0.00    +0.042 A 
ATOM     34  C   UNL     1      -2.267 -11.461 -10.975  0.00  0.00    +0.005 A 
ATOM     35  C   UNL     1      -2.253 -11.138 -12.325  0.00  0.00    +0.018 A 
ATOM     36  C   UNL     1      -2.140  -9.815 -12.703  0.00  0.00    +0.084 A 
ATOM     37  N   UNL     1      -2.051  -8.858 -11.798  0.00  0.00    -0.350 N 
ATOM     38  H   UNL     1      -1.976  -7.936 -12.090  0.00  0.00    +0.166 HD
ENDBRANCH  23  24
ENDBRANCH  22  23
ENDBRANCH  20  22
ENDBRANCH   2  20
TORSDOF 8
