REMARK  Name = ZINC33809964
REMARK  5 active torsions:
REMARK  status: ('A' for Active; 'I' for Inactive)
REMARK    1  A    between atoms: C_2  and  C_3
REMARK    2  A    between atoms: C_3  and  S_4
REMARK    3  A    between atoms: S_4  and  C_5
REMARK    4  A    between atoms: C_15  and  C_17
REMARK    5  A    between atoms: C_21  and  N_23
REMARK                            x       y       z     vdW  Elec       q    Type
REMARK                         _______ _______ _______ _____ _____    ______ ____
ROOT
ATOM      1  C   UNL     1      -2.999  -2.535  -1.381  0.00  0.00    +0.172 A 
ATOM      2  N   UNL     1      -3.711  -2.373  -0.285  0.00  0.00    -0.185 NA
ATOM      3  C   UNL     1      -4.888  -2.997  -0.127  0.00  0.00    +0.280 A 
ATOM      4  O   UNL     1      -5.538  -2.834   0.895  0.00  0.00    -0.265 OA
ATOM      5  C   UNL     1      -5.373  -3.841  -1.150  0.00  0.00    +0.069 A 
ATOM      6  C   UNL     1      -4.630  -3.997  -2.279  0.00  0.00    +0.111 A 
ATOM      7  N   UNL     1      -3.437  -3.334  -2.394  0.00  0.00    -0.322 N 
ATOM      8  N   UNL     1      -5.080  -4.805  -3.297  0.00  0.00    -0.304 N 
ATOM      9  C   UNL     1      -6.401  -5.153  -3.381  0.00  0.00    +0.017 C 
ATOM     10  C   UNL     1      -7.210  -5.045  -2.307  0.00  0.00    +0.024 C 
ATOM     11  C   UNL     1      -6.682  -4.553  -0.983  0.00  0.00    +0.092 C 
ATOM     12  C   UNL     1      -8.572  -5.386  -2.389  0.00  0.00    +0.162 C 
ATOM     13  O   UNL     1      -9.273  -5.284  -1.402  0.00  0.00    -0.292 OA
ATOM     14  C   UNL     1      -9.177  -5.877  -3.675  0.00  0.00    +0.080 C 
ATOM     15  C   UNL     1      -8.398  -5.281  -4.853  0.00  0.00    +0.014 C 
ATOM     16  C   UNL     1      -6.924  -5.663  -4.701  0.00  0.00    +0.051 C 
ATOM     17  H   UNL     1      -4.454  -5.132  -3.962  0.00  0.00    +0.153 HD
ATOM     18  H   UNL     1      -2.901  -3.437  -3.196  0.00  0.00    +0.169 HD
ENDROOT
BRANCH  11  19
ATOM     19  C   UNL     1      -6.491  -5.729  -0.061  0.00  0.00    -0.033 A 
ATOM     20  C   UNL     1      -5.595  -6.729  -0.393  0.00  0.00    +0.005 A 
ATOM     21  C   UNL     1      -5.420  -7.808   0.453  0.00  0.00    +0.003 A 
ATOM     22  C   UNL     1      -6.139  -7.887   1.631  0.00  0.00    +0.033 A 
ATOM     23  C   UNL     1      -7.033  -6.887   1.964  0.00  0.00    +0.126 A 
ATOM     24  C   UNL     1      -7.206  -5.806   1.119  0.00  0.00    +0.037 A 
BRANCH  23  25
ATOM     25  N   UNL     1      -7.804  -6.971   3.225  0.00  0.00    +0.056 N 
ATOM     26  O   UNL     1      -7.651  -7.915   3.964  0.00  0.00    -0.126 OA
ATOM     27  O   UNL     1      -8.586  -6.097   3.515  0.00  0.00    -0.126 OA
ENDBRANCH  23  25
ENDBRANCH  11  19
BRANCH   1  28
ATOM     28  S   UNL     1      -1.457  -1.697  -1.543  0.00  0.00    -0.084 S 
BRANCH  28  29
ATOM     29  C   UNL     1      -1.293  -0.775   0.010  0.00  0.00    +0.104 C 
BRANCH  29  31
ATOM     30  C   UNL     1      -0.016   1.306   0.009  0.00  0.00    +0.005 C 
ATOM     31  C   UNL     1       0.002  -0.004   0.002  0.00  0.00    -0.023 C 
ENDBRANCH  29  31
ENDBRANCH  28  29
ENDBRANCH   1  28
TORSDOF 5
