REMARK  Name = ZINC12936799
REMARK  9 active torsions:
REMARK  status: ('A' for Active; 'I' for Inactive)
REMARK    1  A    between atoms: C_1  and  C_2
REMARK    2  A    between atoms: C_2  and  C_4
REMARK    3  A    between atoms: C_2  and  N_51
REMARK    4  A    between atoms: N_6  and  C_7
REMARK    5  A    between atoms: C_7  and  C_13
REMARK    6  A    between atoms: C_15  and  N_51
REMARK    7  A    between atoms: C_16  and  C_17
REMARK    8  A    between atoms: C_16  and  N_51
REMARK    9  A    between atoms: N_19  and  C_20
REMARK                            x       y       z     vdW  Elec       q    Type
REMARK                         _______ _______ _______ _____ _____    ______ ____
ROOT
ATOM      1  C   UNL     1       4.856  -0.022   1.944  0.00  0.00    -0.094 C 
ATOM      2  N   UNL     1       4.480   1.400   2.086  0.00  0.00    +0.391 N 
ATOM      3  H   UNL     1       3.870   1.504   2.905  0.00  0.00    -0.080 HD
ENDROOT
BRANCH   2   5
ATOM      4  C   UNL     1       4.546   1.528  -0.382  0.00  0.00    -0.004 C 
ATOM      5  C   UNL     1       3.749   1.852   0.883  0.00  0.00    +0.016 C 
BRANCH   5   6
ATOM      6  C   UNL     1       2.417   1.149   0.831  0.00  0.00    +0.200 C 
ATOM      7  O   UNL     1       2.120   0.347   1.692  0.00  0.00    -0.278 OA
ATOM      8  N   UNL     1       1.556   1.410  -0.172  0.00  0.00    -0.299 N 
ATOM      9  H   UNL     1       1.793   2.050  -0.861  0.00  0.00    +0.150 HD
BRANCH   8  10
ATOM     10  C   UNL     1       0.261   0.726  -0.222  0.00  0.00    +0.121 C 
ATOM     11  C   UNL     1      -0.536   1.050   1.043  0.00  0.00    +0.041 C 
ATOM     12  C   UNL     1      -1.889   0.336   0.990  0.00  0.00    +0.003 C 
ATOM     13  C   UNL     1      -2.668   0.809  -0.238  0.00  0.00    +0.000 C 
ATOM     14  C   UNL     1      -1.871   0.486  -1.504  0.00  0.00    +0.003 C 
ATOM     15  C   UNL     1      -0.518   1.200  -1.451  0.00  0.00    +0.041 C 
BRANCH  10  16
ATOM     16  C   UNL     1       0.476  -0.727  -0.308  0.00  0.00    +0.088 C 
ATOM     17  N   UNL     1       0.643  -1.849  -0.375  0.00  0.00    -0.194 NA
ENDBRANCH  10  16
ENDBRANCH   8  10
ENDBRANCH   5   6
ENDBRANCH   2   5
BRANCH   2  18
ATOM     18  C   UNL     1       5.691   2.225   2.280  0.00  0.00    +0.020 C 
BRANCH  18  19
ATOM     19  C   UNL     1       6.294   1.894   3.621  0.00  0.00    +0.201 C 
ATOM     20  O   UNL     1       5.780   1.051   4.326  0.00  0.00    -0.278 OA
ATOM     21  N   UNL     1       7.404   2.535   4.037  0.00  0.00    -0.287 N 
ATOM     22  H   UNL     1       7.859   3.152   3.443  0.00  0.00    +0.155 HD
BRANCH  21  23
ATOM     23  C   UNL     1       7.902   2.308   5.326  0.00  0.00    +0.033 A 
ATOM     24  C   UNL     1       7.027   2.049   6.373  0.00  0.00    +0.025 A 
ATOM     25  C   UNL     1       7.521   1.821   7.643  0.00  0.00    +0.022 A 
ATOM     26  C   UNL     1       8.885   1.862   7.874  0.00  0.00    +0.041 A 
ATOM     27  C   UNL     1       9.758   2.126   6.833  0.00  0.00    +0.022 A 
ATOM     28  C   UNL     1       9.270   2.349   5.560  0.00  0.00    +0.025 A 
ATOM     29 CL   UNL     1       9.502   1.581   9.472  0.00  0.00    -0.084 Cl
ENDBRANCH  21  23
ENDBRANCH  18  19
ENDBRANCH   2  18
TORSDOF 7
