REMARK  Name = ZINC64097905
REMARK  8 active torsions:
REMARK  status: ('A' for Active; 'I' for Inactive)
REMARK    1  A    between atoms: C_1  and  O_2
REMARK    2  A    between atoms: O_2  and  C_3
REMARK    3  A    between atoms: C_10  and  C_18
REMARK    4  A    between atoms: C_20  and  O_36
REMARK    5  A    between atoms: C_22  and  O_35
REMARK    6  A    between atoms: N_24  and  C_27
REMARK    7  A    between atoms: C_32  and  O_33
REMARK    8  A    between atoms: O_33  and  C_34
REMARK                            x       y       z     vdW  Elec       q    Type
REMARK                         _______ _______ _______ _____ _____    ______ ____
ROOT
ATOM      1  C   UNL     1      -6.390  -5.153  -0.846  0.00  0.00    +0.179 C 
ATOM      2  C   UNL     1      -6.629  -5.848   0.462  0.00  0.00    +0.200 C 
ATOM      3  N   UNL     1      -6.844  -7.104   0.551  0.00  0.00    -0.204 NA
ATOM      4  C   UNL     1      -6.880  -8.009  -0.586  0.00  0.00    +0.339 C 
ATOM      5  N   UNL     1      -7.117  -7.307  -1.839  0.00  0.00    -0.222 N 
ATOM      6  C   UNL     1      -6.890  -5.999  -1.983  0.00  0.00    +0.237 C 
ATOM      7  O   UNL     1      -7.093  -5.482  -3.061  0.00  0.00    -0.274 OA
ENDROOT
BRANCH   1  14
ATOM      8  C   UNL     1      -1.200  -0.637   0.010  0.00  0.00    +0.121 A 
ATOM      9  C   UNL     1      -2.375   0.136   0.020  0.00  0.00    +0.047 A 
ATOM     10  C   UNL     1      -3.606  -0.417   0.033  0.00  0.00    +0.029 A 
ATOM     11  C   UNL     1      -3.753  -1.875   0.037  0.00  0.00    +0.043 A 
ATOM     12  N   UNL     1      -4.814  -2.649   0.026  0.00  0.00    -0.376 N 
ATOM     13  C   UNL     1      -4.374  -4.036   0.129  0.00  0.00    +0.124 C 
ATOM     14  C   UNL     1      -4.890  -4.905  -1.021  0.00  0.00    +0.101 C 
ATOM     15  N   UNL     1      -4.169  -6.187  -0.992  0.00  0.00    -0.310 NA
ATOM     16  C   UNL     1      -2.743  -6.055  -1.306  0.00  0.00    +0.085 C 
ATOM     17  C   UNL     1      -2.035  -5.237  -0.210  0.00  0.00    +0.048 C 
ATOM     18  C   UNL     1      -2.859  -3.987   0.008  0.00  0.00    -0.036 C 
ATOM     19  C   UNL     1      -2.514  -2.694   0.017  0.00  0.00    +0.003 A 
ATOM     20  C   UNL     1      -1.226  -1.991   0.003  0.00  0.00    +0.055 A 
ATOM     21  H   UNL     1      -4.303  -6.658  -0.110  0.00  0.00    +0.122 HD
ATOM     22  H   UNL     1      -5.734  -2.349  -0.039  0.00  0.00    +0.160 HD
BRANCH   8  24
ATOM     23  C   UNL     1      -0.017   1.425   0.010  0.00  0.00    +0.277 C 
ATOM     24  O   UNL     1       0.002  -0.004   0.002  0.00  0.00    -0.495 OA
ENDBRANCH   8  24
ENDBRANCH   1  14
BRANCH   5  25
ATOM     25  C   UNL     1      -7.602  -8.033  -2.935  0.00  0.00    +0.082 A 
ATOM     26  C   UNL     1      -8.969  -8.156  -3.138  0.00  0.00    +0.027 A 
ATOM     27  C   UNL     1      -9.444  -8.872  -4.221  0.00  0.00    +0.002 A 
ATOM     28  C   UNL     1      -8.560  -9.467  -5.102  0.00  0.00    +0.004 A 
ATOM     29  C   UNL     1      -7.197  -9.349  -4.906  0.00  0.00    +0.047 A 
ATOM     30  C   UNL     1      -6.712  -8.628  -3.826  0.00  0.00    +0.142 A 
BRANCH  30  31
ATOM     31  O   UNL     1      -5.372  -8.506  -3.635  0.00  0.00    -0.493 OA
ATOM     32  C   UNL     1      -4.520  -9.142  -4.590  0.00  0.00    +0.277 C 
ENDBRANCH  30  31
ENDBRANCH   5  25
BRANCH   4  33
ATOM     33  O   UNL     1      -5.630  -8.697  -0.671  0.00  0.00    -0.356 OA
ATOM     34  H   UNL     1      -5.416  -9.223   0.112  0.00  0.00    +0.214 HD
ENDBRANCH   4  33
BRANCH   2  35
ATOM     35  O   UNL     1      -6.617  -5.115   1.594  0.00  0.00    -0.495 OA
ATOM     36  H   UNL     1      -6.778  -5.628   2.397  0.00  0.00    +0.293 HD
ENDBRANCH   2  35
TORSDOF 6
