REMARK  Name = ZINC40153074
REMARK  4 active torsions:
REMARK  status: ('A' for Active; 'I' for Inactive)
REMARK    1  A    between atoms: C_1  and  C_2
REMARK    2  A    between atoms: C_7  and  N_10
REMARK    3  A    between atoms: C_11  and  C_13
REMARK    4  A    between atoms: C_19  and  N_23
REMARK                            x       y       z     vdW  Elec       q    Type
REMARK                         _______ _______ _______ _____ _____    ______ ____
ROOT
ATOM      1  C   UNL     1      -2.253  -4.285   1.743  0.00  0.00    +0.103 A 
ATOM      2  C   UNL     1      -2.641  -5.499   2.214  0.00  0.00    +0.041 A 
ATOM      3  C   UNL     1      -4.043  -5.600   2.042  0.00  0.00    +0.003 A 
ATOM      4  C   UNL     1      -4.978  -6.601   2.336  0.00  0.00    +0.010 A 
ATOM      5  C   UNL     1      -6.297  -6.402   2.047  0.00  0.00    +0.003 A 
ATOM      6  C   UNL     1      -6.723  -5.215   1.463  0.00  0.00    +0.035 A 
ATOM      7  C   UNL     1      -5.823  -4.217   1.165  0.00  0.00    +0.150 A 
ATOM      8  C   UNL     1      -4.472  -4.396   1.451  0.00  0.00    +0.078 A 
ATOM      9  N   UNL     1      -3.362  -3.603   1.282  0.00  0.00    -0.349 N 
ATOM     10  H   UNL     1      -3.357  -2.711   0.899  0.00  0.00    +0.166 HD
ENDROOT
BRANCH   1  12
ATOM     11  N   UNL     1      -0.612  -2.548   1.244  0.00  0.00    -0.307 N 
ATOM     12  C   UNL     1      -0.873  -3.776   1.733  0.00  0.00    +0.261 C 
ATOM     13  O   UNL     1       0.032  -4.464   2.166  0.00  0.00    -0.269 OA
ATOM     14  H   UNL     1      -1.333  -2.000   0.898  0.00  0.00    +0.149 HD
BRANCH  11  20
ATOM     15  C   UNL     1      -0.019   1.526   0.010  0.00  0.00    +0.007 C 
ATOM     16  C   UNL     1       0.002  -0.004   0.002  0.00  0.00    -0.012 C 
ATOM     17  C   UNL     1       0.718  -0.497  -1.257  0.00  0.00    +0.003 C 
ATOM     18  C   UNL     1       0.739  -2.027  -1.265  0.00  0.00    +0.002 C 
ATOM     19  C   UNL     1       1.479  -2.534  -0.026  0.00  0.00    +0.022 C 
ATOM     20  C   UNL     1       0.763  -2.041   1.233  0.00  0.00    +0.074 C 
ATOM     21  C   UNL     1       0.742  -0.511   1.242  0.00  0.00    +0.025 C 
ENDBRANCH  11  20
ENDBRANCH   1  12
BRANCH   7  22
ATOM     22  N   UNL     1      -6.290  -2.958   0.544  0.00  0.00    +0.058 N 
ATOM     23  O   UNL     1      -7.463  -2.804   0.298  0.00  0.00    -0.126 OA
ATOM     24  O   UNL     1      -5.498  -2.082   0.284  0.00  0.00    -0.126 OA
ENDBRANCH   7  22
TORSDOF 3
