REMARK  Name = ZINC35424979
REMARK  11 active torsions:
REMARK  status: ('A' for Active; 'I' for Inactive)
REMARK    1  A    between atoms: C_1  and  C_2
REMARK    2  A    between atoms: C_2  and  O_3
REMARK    3  A    between atoms: O_3  and  C_4
REMARK    4  A    between atoms: C_9  and  N_10
REMARK    5  A    between atoms: C_11  and  C_13
REMARK    6  A    between atoms: C_13  and  N_14
REMARK    7  A    between atoms: C_25  and  O_28
REMARK    8  A    between atoms: O_28  and  C_29
REMARK    9  A    between atoms: C_32  and  C_35
REMARK   10  A    between atoms: C_35  and  C_36
REMARK   11  A    between atoms: C_35  and  C_37
REMARK                            x       y       z     vdW  Elec       q    Type
REMARK                         _______ _______ _______ _____ _____    ______ ____
ROOT
ATOM      1  N   UNL     1       3.612  -1.899   6.679  0.00  0.00    -0.203 N 
ATOM      2  C   UNL     1       4.892  -2.306   6.807  0.00  0.00    +0.352 A 
ATOM      3  O   UNL     1       5.801  -2.073   6.029  0.00  0.00    -0.244 OA
ATOM      4  N   UNL     1       4.986  -3.015   7.946  0.00  0.00    -0.238 N 
ATOM      5  C   UNL     1       6.045  -3.666   8.575  0.00  0.00    +0.079 A 
ATOM      6  C   UNL     1       7.311  -3.651   8.007  0.00  0.00    +0.028 A 
ATOM      7  C   UNL     1       8.358  -4.297   8.634  0.00  0.00    +0.002 A 
ATOM      8  C   UNL     1       8.152  -4.963   9.831  0.00  0.00    +0.002 A 
ATOM      9  C   UNL     1       6.902  -4.989  10.409  0.00  0.00    +0.030 A 
ATOM     10  C   UNL     1       5.831  -4.338   9.787  0.00  0.00    +0.092 A 
ATOM     11  N   UNL     1       4.599  -4.365  10.363  0.00  0.00    -0.208 NA
ATOM     12  C   UNL     1       3.571  -3.768   9.812  0.00  0.00    +0.267 A 
ATOM     13  C   UNL     1       3.734  -3.049   8.541  0.00  0.00    +0.225 A 
ATOM     14  N   UNL     1       2.903  -2.376   7.791  0.00  0.00    -0.143 NA
ENDROOT
BRANCH   1  15
ATOM     15  C   UNL     1       3.064  -1.098   5.582  0.00  0.00    +0.244 C 
BRANCH  15  17
ATOM     16  N   UNL     1       2.013  -1.494   3.378  0.00  0.00    -0.281 N 
ATOM     17  C   UNL     1       2.563  -2.012   4.494  0.00  0.00    +0.239 C 
ATOM     18  O   UNL     1       2.654  -3.215   4.623  0.00  0.00    -0.273 OA
ATOM     19  H   UNL     1       2.013  -0.534   3.238  0.00  0.00    +0.155 HD
BRANCH  16  25
ATOM     20  C   UNL     1       1.338  -1.928   1.094  0.00  0.00    +0.142 A 
ATOM     21  C   UNL     1       0.776  -2.773   0.151  0.00  0.00    +0.047 A 
ATOM     22  C   UNL     1       0.313  -4.020   0.527  0.00  0.00    +0.004 A 
ATOM     23  C   UNL     1       0.409  -4.428   1.845  0.00  0.00    +0.002 A 
ATOM     24  C   UNL     1       0.969  -3.592   2.792  0.00  0.00    +0.027 A 
ATOM     25  C   UNL     1       1.440  -2.341   2.421  0.00  0.00    +0.076 A 
BRANCH  20  26
ATOM     26  O   UNL     1       1.794  -0.701   0.726  0.00  0.00    -0.490 OA
BRANCH  26  28
ATOM     27  C   UNL     1       2.220   1.060  -0.874  0.00  0.00    +0.048 C 
ATOM     28  C   UNL     1       1.656  -0.345  -0.651  0.00  0.00    +0.226 C 
ENDBRANCH  26  28
ENDBRANCH  20  26
ENDBRANCH  16  25
ENDBRANCH  15  17
ENDBRANCH   1  15
BRANCH  12  29
ATOM     29  O   UNL     1       2.360  -3.816  10.413  0.00  0.00    -0.435 OA
BRANCH  29  30
ATOM     30  C   UNL     1       2.276  -4.402  11.636  0.00  0.00    +0.131 A 
ATOM     31  C   UNL     1       1.548  -5.572  11.798  0.00  0.00    +0.046 A 
ATOM     32  C   UNL     1       1.466  -6.166  13.042  0.00  0.00    +0.007 A 
ATOM     33  C   UNL     1       2.107  -5.595  14.126  0.00  0.00    -0.045 A 
ATOM     34  C   UNL     1       2.833  -4.429  13.967  0.00  0.00    +0.007 A 
ATOM     35  C   UNL     1       2.924  -3.834  12.724  0.00  0.00    +0.046 A 
BRANCH  33  36
ATOM     36  C   UNL     1       2.015  -6.245  15.482  0.00  0.00    +0.013 C 
ATOM     37  C   UNL     1       3.418  -6.614  15.968  0.00  0.00    +0.012 C 
ATOM     38  C   UNL     1       1.372  -5.271  16.472  0.00  0.00    +0.012 C 
ENDBRANCH  33  36
ENDBRANCH  29  30
ENDBRANCH  12  29
TORSDOF 8
