REMARK  Name = ZINC36046225
REMARK  9 active torsions:
REMARK  status: ('A' for Active; 'I' for Inactive)
REMARK    1  A    between atoms: C_1  and  C_2
REMARK    2  A    between atoms: C_2  and  O_4
REMARK    3  A    between atoms: O_4  and  N_5
REMARK    4  A    between atoms: N_5  and  C_6
REMARK    5  A    between atoms: N_5  and  C_27
REMARK    6  A    between atoms: C_6  and  C_7
REMARK    7  A    between atoms: C_19  and  C_26
REMARK    8  A    between atoms: C_27  and  C_28
REMARK    9  A    between atoms: C_40  and  C_47
REMARK                            x       y       z     vdW  Elec       q    Type
REMARK                         _______ _______ _______ _____ _____    ______ ____
ROOT
ATOM      1  N   UNL     1      -0.976  -2.311   0.270  0.00  0.00    -0.137 NA
ENDROOT
BRANCH   1   2
ATOM      2  O   UNL     1      -1.250  -0.878   0.150  0.00  0.00    -0.367 OA
BRANCH   2   4
ATOM      3  C   UNL     1      -2.971   0.849  -0.239  0.00  0.00    +0.138 C 
ATOM      4  C   UNL     1      -2.538  -0.587  -0.091  0.00  0.00    +0.323 C 
ATOM      5  O   UNL     1      -3.350  -1.476  -0.190  0.00  0.00    -0.249 OA
ENDBRANCH   2   4
ENDBRANCH   1   2
BRANCH   1   6
ATOM      6  C   UNL     1      -1.715  -2.896   1.396  0.00  0.00    +0.142 C 
BRANCH   6   7
ATOM      7  C   UNL     1      -1.214  -2.285   2.707  0.00  0.00    +0.121 C 
ATOM      8  C   UNL     1       0.252  -2.733   2.995  0.00  0.00    +0.045 C 
ATOM      9  C   UNL     1       0.452  -4.054   2.252  0.00  0.00    +0.016 C 
ATOM     10  C   UNL     1       1.658  -4.818   2.795  0.00  0.00    +0.021 C 
ATOM     11  C   UNL     1       1.761  -6.137   2.052  0.00  0.00    -0.073 C 
ATOM     12  C   UNL     1       2.793  -6.407   1.291  0.00  0.00    +0.008 C 
ATOM     13  C   UNL     1       0.632  -7.131   2.218  0.00  0.00    +0.030 C 
ATOM     14  C   UNL     1       0.379  -7.348   3.713  0.00  0.00    +0.005 C 
ATOM     15  C   UNL     1       0.148  -5.999   4.397  0.00  0.00    +0.007 C 
ATOM     16  C   UNL     1       1.413  -5.128   4.278  0.00  0.00    -0.022 C 
ATOM     17  C   UNL     1       1.272  -3.822   5.048  0.00  0.00    +0.052 C 
ATOM     18  C   UNL     1       0.153  -2.957   4.517  0.00  0.00    +0.181 C 
ATOM     19  O   UNL     1      -1.153  -3.517   4.693  0.00  0.00    -0.461 OA
ATOM     20  C   UNL     1      -1.999  -2.832   3.885  0.00  0.00    +0.312 C 
ATOM     21  O   UNL     1      -3.184  -2.682   4.070  0.00  0.00    -0.250 OA
ATOM     22  C   UNL     1       2.608  -5.902   4.837  0.00  0.00    +0.012 C 
ENDBRANCH   6   7
ENDBRANCH   1   6
BRANCH   1  23
ATOM     23  C   UNL     1      -1.285  -3.012  -0.984  0.00  0.00    +0.142 C 
BRANCH  23  24
ATOM     24  C   UNL     1      -0.182  -2.737  -2.008  0.00  0.00    +0.121 C 
ATOM     25  C   UNL     1      -0.472  -3.491  -3.341  0.00  0.00    +0.045 C 
ATOM     26  C   UNL     1       0.889  -3.861  -3.931  0.00  0.00    +0.016 C 
ATOM     27  C   UNL     1       0.777  -4.195  -5.418  0.00  0.00    +0.021 C 
ATOM     28  C   UNL     1       2.167  -4.497  -5.944  0.00  0.00    -0.073 C 
ATOM     29  C   UNL     1       2.475  -5.686  -6.399  0.00  0.00    +0.008 C 
ATOM     30  C   UNL     1       3.187  -3.380  -5.927  0.00  0.00    +0.030 C 
ATOM     31  C   UNL     1       2.585  -2.148  -6.610  0.00  0.00    +0.005 C 
ATOM     32  C   UNL     1       1.245  -1.801  -5.956  0.00  0.00    +0.007 C 
ATOM     33  C   UNL     1       0.249  -2.958  -6.157  0.00  0.00    -0.022 C 
ATOM     34  C   UNL     1      -1.135  -2.608  -5.628  0.00  0.00    +0.052 C 
ATOM     35  C   UNL     1      -1.135  -2.349  -4.138  0.00  0.00    +0.181 C 
ATOM     36  O   UNL     1      -0.394  -1.188  -3.747  0.00  0.00    -0.461 OA
ATOM     37  C   UNL     1      -0.182  -1.273  -2.411  0.00  0.00    +0.312 C 
ATOM     38  O   UNL     1      -0.020  -0.339  -1.662  0.00  0.00    -0.250 OA
ATOM     39  C   UNL     1       0.139  -3.271  -7.650  0.00  0.00    +0.012 C 
ENDBRANCH  23  24
ENDBRANCH   1  23
TORSDOF 6
