REMARK  Name = ZINC10672266
REMARK  12 active torsions:
REMARK  status: ('A' for Active; 'I' for Inactive)
REMARK    1  A    between atoms: C_1  and  C_2
REMARK    2  A    between atoms: C_2  and  C_3
REMARK    3  A    between atoms: C_3  and  C_5
REMARK    4  A    between atoms: C_3  and  O_6
REMARK    5  A    between atoms: O_6  and  C_7
REMARK    6  A    between atoms: C_11  and  C_13
REMARK    7  A    between atoms: N_15  and  C_16
REMARK    8  A    between atoms: C_16  and  N_18
REMARK    9  A    between atoms: N_18  and  N_19
REMARK   10  A    between atoms: C_20  and  C_22
REMARK   11  A    between atoms: C_22  and  O_23
REMARK   12  A    between atoms: O_23  and  C_24
REMARK                            x       y       z     vdW  Elec       q    Type
REMARK                         _______ _______ _______ _____ _____    ______ ____
ROOT
ATOM      1  C   UNL     1       5.341  -4.049  -0.748  0.00  0.00    +0.153 C 
ATOM      2  S   UNL     1       6.929  -4.639  -0.505  0.00  0.00    -0.017 S 
ENDROOT
BRANCH   1   5
ATOM      3  C   UNL     1       4.502  -6.216  -0.530  0.00  0.00    +0.250 C 
ATOM      4  O   UNL     1       5.629  -6.636  -0.357  0.00  0.00    -0.270 OA
ATOM      5  N   UNL     1       4.296  -4.900  -0.735  0.00  0.00    -0.263 N 
ATOM      6  H   UNL     1       3.396  -4.566  -0.873  0.00  0.00    +0.157 HD
BRANCH   3  11
ATOM      7  C   UNL     1       2.488  -9.382  -0.291  0.00  0.00    +0.122 A 
ATOM      8  C   UNL     1       1.202  -8.896  -0.489  0.00  0.00    +0.046 A 
ATOM      9  C   UNL     1       0.993  -7.546  -0.700  0.00  0.00    +0.004 A 
ATOM     10  C   UNL     1       2.059  -6.671  -0.709  0.00  0.00    +0.013 A 
ATOM     11  C   UNL     1       3.356  -7.150  -0.516  0.00  0.00    +0.041 A 
ATOM     12  C   UNL     1       3.566  -8.513  -0.304  0.00  0.00    +0.058 A 
BRANCH   7  13
ATOM     13  O   UNL     1       2.688 -10.710  -0.086  0.00  0.00    -0.489 OA
BRANCH  13  14
ATOM     14  C   UNL     1       1.525 -11.531   0.032  0.00  0.00    +0.170 C 
ATOM     15  C   UNL     1       1.042 -11.936  -1.362  0.00  0.00    +0.052 C 
BRANCH  14  17
ATOM     16  C   UNL     1       2.228 -12.389   2.271  0.00  0.00    +0.007 C 
ATOM     17  C   UNL     1       1.865 -12.786   0.838  0.00  0.00    +0.041 C 
ENDBRANCH  14  17
ENDBRANCH  13  14
ENDBRANCH   7  13
ENDBRANCH   3  11
ENDBRANCH   1   5
BRANCH   1  18
ATOM     18  N   UNL     1       5.135  -2.733  -0.953  0.00  0.00    -0.245 N 
ATOM     19  H   UNL     1       5.887  -2.120  -0.963  0.00  0.00    +0.172 HD
BRANCH  18  20
ATOM     20  N   UNL     1       3.835  -2.250  -1.153  0.00  0.00    -0.232 N 
ATOM     21  C   UNL     1       3.630  -0.934  -1.357  0.00  0.00    +0.267 C 
ATOM     22  O   UNL     1       4.570  -0.168  -1.369  0.00  0.00    -0.271 OA
ATOM     23  H   UNL     1       3.083  -2.862  -1.143  0.00  0.00    +0.173 HD
BRANCH  21  24
ATOM     24  C   UNL     1       2.231  -0.414  -1.572  0.00  0.00    +0.326 C 
BRANCH  24  25
ATOM     25  O   UNL     1       2.274   1.001  -1.766  0.00  0.00    -0.482 OA
BRANCH  25  26
ATOM     26  C   UNL     1       1.087   1.631  -1.974  0.00  0.00    +0.135 A 
ATOM     27  C   UNL     1      -0.092   0.902  -1.992  0.00  0.00    +0.048 A 
ATOM     28  C   UNL     1      -1.297   1.543  -2.210  0.00  0.00    +0.023 A 
ATOM     29  C   UNL     1      -1.328   2.914  -2.399  0.00  0.00    +0.042 A 
ATOM     30  C   UNL     1      -0.152   3.643  -2.382  0.00  0.00    +0.039 A 
ATOM     31  C   UNL     1       1.055   3.005  -2.170  0.00  0.00    +0.061 A 
ATOM     32 BR   UNL     1       2.662   4.002  -2.147  0.00  0.00    -0.046 Br
ATOM     33 CL   UNL     1      -2.843   3.718  -2.666  0.00  0.00    -0.084 Cl
ENDBRANCH  25  26
ENDBRANCH  24  25
ENDBRANCH  21  24
ENDBRANCH  18  20
ENDBRANCH   1  18
TORSDOF 10
