REMARK  Name = ZINC04998466
REMARK  4 active torsions:
REMARK  status: ('A' for Active; 'I' for Inactive)
REMARK    1  A    between atoms: C_3  and  O_24
REMARK    2  A    between atoms: C_4  and  N_8
REMARK    3  A    between atoms: C_9  and  C_11
REMARK    4  A    between atoms: C_11  and  N_12
REMARK                            x       y       z     vdW  Elec       q    Type
REMARK                         _______ _______ _______ _____ _____    ______ ____
ROOT
ATOM      1  N   UNL     1       2.677   6.690   2.380  0.00  0.00    -0.281 N 
ATOM      2  C   UNL     1       2.619   5.460   1.831  0.00  0.00    +0.235 C 
ATOM      3  O   UNL     1       2.729   4.477   2.532  0.00  0.00    -0.274 OA
ATOM      4  H   UNL     1       2.654   7.476   1.812  0.00  0.00    +0.155 HD
ENDROOT
BRANCH   1   8
ATOM      5  C   UNL     1       2.957   7.114   6.521  0.00  0.00    +0.023 A 
ATOM      6  C   UNL     1       2.241   8.038   5.782  0.00  0.00    +0.049 A 
ATOM      7  C   UNL     1       2.149   7.905   4.406  0.00  0.00    +0.138 A 
ATOM      8  C   UNL     1       2.771   6.832   3.771  0.00  0.00    +0.077 A 
ATOM      9  C   UNL     1       3.487   5.909   4.517  0.00  0.00    +0.047 A 
ATOM     10  C   UNL     1       3.579   6.051   5.890  0.00  0.00    +0.043 A 
ATOM     11 CL   UNL     1       4.476   4.895   6.823  0.00  0.00    -0.083 Cl
BRANCH   7  12
ATOM     12  O   UNL     1       1.450   8.816   3.678  0.00  0.00    -0.505 OA
ATOM     13  H   UNL     1       0.515   8.597   3.567  0.00  0.00    +0.292 HD
ENDBRANCH   7  12
ENDBRANCH   1   8
BRANCH   2  14
ATOM     14  C   UNL     1       2.417   5.307   0.345  0.00  0.00    +0.209 C 
BRANCH  14  15
ATOM     15  N   UNL     1       2.390   3.884  -0.000  0.00  0.00    -0.256 N 
ATOM     16  C   UNL     1       1.180   3.175  -0.004  0.00  0.00    +0.080 A 
ATOM     17  C   UNL     1      -0.032   3.845   0.002  0.00  0.00    +0.047 A 
ATOM     18  C   UNL     1      -1.215   3.126  -0.001  0.00  0.00    +0.043 A 
ATOM     19  C   UNL     1      -1.188   1.743  -0.014  0.00  0.00    +0.024 A 
ATOM     20  C   UNL     1       0.020   1.069  -0.013  0.00  0.00    +0.049 A 
ATOM     21  C   UNL     1       1.206   1.782  -0.011  0.00  0.00    +0.143 A 
ATOM     22  O   UNL     1       2.403   1.135  -0.019  0.00  0.00    -0.481 OA
ATOM     23  C   UNL     1       3.477   1.779  -0.710  0.00  0.00    +0.325 C 
ATOM     24  C   UNL     1       3.530   3.234  -0.321  0.00  0.00    +0.258 C 
ATOM     25  O   UNL     1       4.592   3.819  -0.295  0.00  0.00    -0.271 OA
ATOM     26 CL   UNL     1      -2.736   3.963   0.005  0.00  0.00    -0.083 Cl
ENDBRANCH  14  15
ENDBRANCH   2  14
TORSDOF 4
