REMARK  Name = ZINC12717407
REMARK  9 active torsions:
REMARK  status: ('A' for Active; 'I' for Inactive)
REMARK    1  A    between atoms: C_1  and  C_2
REMARK    2  A    between atoms: C_2  and  C_3
REMARK    3  A    between atoms: C_10  and  C_15
REMARK    4  A    between atoms: C_15  and  N_60
REMARK    5  A    between atoms: C_16  and  C_17
REMARK    6  A    between atoms: C_16  and  N_60
REMARK    7  A    between atoms: C_22  and  C_23
REMARK    8  A    between atoms: C_22  and  N_60
REMARK    9  A    between atoms: N_27  and  C_28
REMARK                            x       y       z     vdW  Elec       q    Type
REMARK                         _______ _______ _______ _____ _____    ______ ____
ROOT
ATOM      1  N   UNL     1       2.519  -0.856  -1.433  0.00  0.00    +0.390 N 
ATOM      2  H   UNL     1       1.780  -0.402  -1.983  0.00  0.00    -0.080 HD
ENDROOT
BRANCH   1   3
ATOM      3  C   UNL     1       2.280  -2.314  -1.420  0.00  0.00    -0.036 C 
BRANCH   3  11
ATOM      4  C   UNL     1      -3.620  -3.344  -2.973  0.00  0.00    -0.047 A 
ATOM      5  C   UNL     1      -4.115  -3.401  -1.676  0.00  0.00    +0.005 A 
ATOM      6  C   UNL     1      -3.276  -3.237  -0.596  0.00  0.00    +0.026 A 
ATOM      7  C   UNL     1      -1.919  -3.011  -0.803  0.00  0.00    +0.049 A 
ATOM      8  C   UNL     1      -1.421  -2.954  -2.119  0.00  0.00    -0.001 A 
ATOM      9  C   UNL     1      -2.292  -3.123  -3.201  0.00  0.00    +0.013 A 
ATOM     10  C   UNL     1       0.009  -2.716  -2.327  0.00  0.00    +0.017 A 
ATOM     11  C   UNL     1       0.804  -2.560  -1.241  0.00  0.00    +0.001 A 
ATOM     12  C   UNL     1       0.256  -2.633   0.058  0.00  0.00    +0.251 A 
ATOM     13  O   UNL     1       0.990  -2.494   1.021  0.00  0.00    -0.268 OA
ATOM     14  N   UNL     1      -1.056  -2.845   0.259  0.00  0.00    -0.322 N 
ATOM     15  H   UNL     1      -1.401  -2.885   1.165  0.00  0.00    +0.169 HD
BRANCH   4  17
ATOM     16  C   UNL     1      -4.635  -5.009  -4.504  0.00  0.00    +0.009 C 
ATOM     17  C   UNL     1      -4.558  -3.526  -4.138  0.00  0.00    +0.032 C 
ENDBRANCH   4  17
ENDBRANCH   3  11
ENDBRANCH   1   3
BRANCH   1  18
ATOM     18  C   UNL     1       3.828  -0.564  -2.053  0.00  0.00    -0.035 C 
BRANCH  18  19
ATOM     19  C   UNL     1       3.720  -0.784  -3.540  0.00  0.00    -0.027 A 
ATOM     20  C   UNL     1       3.264   0.061  -4.497  0.00  0.00    +0.009 A 
ATOM     21  C   UNL     1       3.259  -0.358  -5.814  0.00  0.00    +0.008 A 
ATOM     22  C   UNL     1       3.700  -1.606  -6.109  0.00  0.00    +0.045 A 
ATOM     23  S   UNL     1       4.150  -2.228  -4.497  0.00  0.00    -0.103 S 
ENDBRANCH  18  19
ENDBRANCH   1  18
BRANCH   1  24
ATOM     24  C   UNL     1       2.484  -0.326  -0.053  0.00  0.00    +0.001 C 
BRANCH  24  25
ATOM     25  C   UNL     1       2.509   1.180  -0.110  0.00  0.00    +0.135 A 
ATOM     26  N   UNL     1       3.572   1.946  -0.094  0.00  0.00    -0.115 NA
ATOM     27  N   UNL     1       3.180   3.172  -0.153  0.00  0.00    -0.023 NA
ATOM     28  N   UNL     1       1.894   3.207  -0.211  0.00  0.00    -0.044 NA
ATOM     29  N   UNL     1       1.444   1.998  -0.191  0.00  0.00    -0.228 N 
BRANCH  29  30
ATOM     30  C   UNL     1       0.036   1.593  -0.239  0.00  0.00    +0.111 C 
ATOM     31  C   UNL     1      -0.737   2.228   0.935  0.00  0.00    +0.027 C 
ATOM     32  C   UNL     1      -1.367   3.507   0.327  0.00  0.00    +0.002 C 
ATOM     33  C   UNL     1      -1.767   3.048  -1.097  0.00  0.00    +0.002 C 
ATOM     34  C   UNL     1      -0.618   2.114  -1.531  0.00  0.00    +0.027 C 
ENDBRANCH  29  30
ENDBRANCH  24  25
ENDBRANCH   1  24
TORSDOF 8
