REMARK  Name = ZINC07852729
REMARK  9 active torsions:
REMARK  status: ('A' for Active; 'I' for Inactive)
REMARK    1  A    between atoms: C_1  and  N_59
REMARK    2  A    between atoms: C_2  and  C_22
REMARK    3  A    between atoms: C_7  and  C_9
REMARK    4  A    between atoms: C_9  and  C_10
REMARK    5  A    between atoms: C_10  and  C_16
REMARK    6  A    between atoms: N_11  and  N_12
REMARK    7  A    between atoms: C_22  and  C_23
REMARK    8  A    between atoms: C_23  and  C_25
REMARK    9  A    between atoms: C_23  and  O_31
REMARK                            x       y       z     vdW  Elec       q    Type
REMARK                         _______ _______ _______ _____ _____    ______ ____
ROOT
ATOM      1  C   UNL     1      -2.188   5.240  -0.026  0.00  0.00    -0.095 C 
ATOM      2  C   UNL     1      -0.882   3.493  -1.075  0.00  0.00    -0.066 C 
ATOM      3  C   UNL     1      -0.612   1.986  -1.077  0.00  0.00    -0.015 C 
ATOM      4  C   UNL     1       0.006   1.582   0.265  0.00  0.00    -0.003 C 
ATOM      5  C   UNL     1      -0.943   1.984   1.398  0.00  0.00    -0.015 C 
ATOM      6  C   UNL     1      -1.206   3.490   1.327  0.00  0.00    -0.063 C 
ATOM      7  N   UNL     1      -1.822   3.810   0.022  0.00  0.00    +0.382 N 
ATOM      8  H   UNL     1      -2.671   3.244  -0.093  0.00  0.00    -0.081 HD
ENDROOT
BRANCH   6   9
ATOM      9  C   UNL     1      -2.171   3.892   2.444  0.00  0.00    +0.042 C 
BRANCH   9  10
ATOM     10  C   UNL     1      -2.239   5.395   2.532  0.00  0.00    +0.065 C 
ATOM     11  N   UNL     1      -3.354   6.010   2.287  0.00  0.00    -0.183 NA
BRANCH  11  12
ATOM     12  N   UNL     1      -4.529   5.274   2.084  0.00  0.00    -0.191 N 
ATOM     13  C   UNL     1      -5.665   5.904   1.721  0.00  0.00    +0.317 C 
ATOM     14  O   UNL     1      -6.684   5.265   1.546  0.00  0.00    -0.251 OA
ATOM     15  N   UNL     1      -5.670   7.241   1.554  0.00  0.00    -0.312 N 
ATOM     16  H   UNL     1      -4.526   4.311   2.204  0.00  0.00    +0.179 HD
ATOM     17  H   UNL     1      -4.856   7.750   1.694  0.00  0.00    +0.147 HD
ATOM     18  H   UNL     1      -6.487   7.694   1.293  0.00  0.00    +0.147 HD
ENDBRANCH  11  12
BRANCH  10  19
ATOM     19  C   UNL     1      -1.036   6.168   2.896  0.00  0.00    -0.002 A 
ATOM     20  C   UNL     1       0.166   5.509   3.167  0.00  0.00    +0.010 A 
ATOM     21  C   UNL     1       1.288   6.238   3.502  0.00  0.00    +0.001 A 
ATOM     22  C   UNL     1       1.222   7.618   3.582  0.00  0.00    +0.000 A 
ATOM     23  C   UNL     1       0.033   8.277   3.321  0.00  0.00    +0.001 A 
ATOM     24  C   UNL     1      -1.095   7.561   2.979  0.00  0.00    +0.010 A 
ENDBRANCH  10  19
ENDBRANCH   9  10
ENDBRANCH   6   9
BRANCH   2  25
ATOM     25  C   UNL     1      -1.518   3.898  -2.406  0.00  0.00    +0.021 C 
BRANCH  25  26
ATOM     26  C   UNL     1      -2.809   3.104  -2.618  0.00  0.00    +0.143 C 
BRANCH  26  27
ATOM     27  C   UNL     1      -3.387   3.437  -3.969  0.00  0.00    -0.019 A 
ATOM     28  C   UNL     1      -4.119   4.596  -4.141  0.00  0.00    +0.006 A 
ATOM     29  C   UNL     1      -4.646   4.904  -5.381  0.00  0.00    +0.000 A 
ATOM     30  C   UNL     1      -4.449   4.046  -6.448  0.00  0.00    +0.000 A 
ATOM     31  C   UNL     1      -3.721   2.884  -6.274  0.00  0.00    +0.000 A 
ATOM     32  C   UNL     1      -3.191   2.579  -5.035  0.00  0.00    +0.006 A 
ENDBRANCH  26  27
BRANCH  26  33
ATOM     33  O   UNL     1      -3.751   3.446  -1.599  0.00  0.00    -0.387 OA
ATOM     34  H   UNL     1      -3.991   4.383  -1.584  0.00  0.00    +0.210 HD
ENDBRANCH  26  33
ENDBRANCH  25  26
ENDBRANCH   2  25
TORSDOF 8
