REMARK  Name = ZINC16509217
REMARK  10 active torsions:
REMARK  status: ('A' for Active; 'I' for Inactive)
REMARK    1  A    between atoms: C_1  and  C_2
REMARK    2  A    between atoms: C_5  and  C_8
REMARK    3  A    between atoms: C_18  and  C_20
REMARK    4  A    between atoms: C_20  and  N_21
REMARK    5  A    between atoms: N_21  and  C_22
REMARK    6  A    between atoms: N_21  and  S_25
REMARK    7  A    between atoms: C_22  and  C_23
REMARK    8  A    between atoms: S_25  and  C_28
REMARK    9  A    between atoms: C_31  and  N_34
REMARK   10  A    between atoms: C_35  and  C_37
REMARK                            x       y       z     vdW  Elec       q    Type
REMARK                         _______ _______ _______ _____ _____    ______ ____
ROOT
ATOM      1  C   UNL     1      -5.347   4.762   2.627  0.00  0.00    +0.205 C 
ENDROOT
BRANCH   1  11
ATOM      2  C   UNL     1      -7.659   7.784   3.113  0.00  0.00    +0.137 C 
ATOM      3  C   UNL     1      -7.211   9.152   2.602  0.00  0.00    -0.012 A 
ATOM      4  C   UNL     1      -8.102  10.153   2.217  0.00  0.00    +0.013 A 
ATOM      5  C   UNL     1      -7.634  11.343   1.777  0.00  0.00    +0.046 A 
ATOM      6  S   UNL     1      -5.867  11.106   1.887  0.00  0.00    -0.101 S 
ATOM      7  C   UNL     1      -5.886   9.444   2.506  0.00  0.00    -0.003 A 
ATOM      8  C   UNL     1      -4.725   8.566   2.842  0.00  0.00    +0.062 C 
ATOM      9  C   UNL     1      -5.228   7.394   3.708  0.00  0.00    +0.114 C 
ATOM     10  N   UNL     1      -6.484   6.902   3.124  0.00  0.00    -0.289 N 
ATOM     11  C   UNL     1      -6.559   5.658   2.611  0.00  0.00    +0.232 C 
ATOM     12  O   UNL     1      -7.601   5.259   2.135  0.00  0.00    -0.274 OA
BRANCH   2  17
ATOM     13  C   UNL     1      -9.776   8.289   8.466  0.00  0.00    +0.044 C 
ATOM     14  C   UNL     1      -9.224   8.157   7.070  0.00  0.00    -0.050 A 
ATOM     15  C   UNL     1      -9.981   7.556   6.081  0.00  0.00    +0.004 A 
ATOM     16  C   UNL     1      -9.475   7.436   4.801  0.00  0.00    +0.006 A 
ATOM     17  C   UNL     1      -8.211   7.916   4.509  0.00  0.00    -0.023 A 
ATOM     18  C   UNL     1      -7.453   8.512   5.498  0.00  0.00    +0.006 A 
ATOM     19  C   UNL     1      -7.961   8.637   6.778  0.00  0.00    +0.004 A 
ENDBRANCH   2  17
ENDBRANCH   1  11
BRANCH   1  20
ATOM     20  N   UNL     1      -5.683   3.474   2.017  0.00  0.00    -0.164 NA
BRANCH  20  21
ATOM     21  S   UNL     1      -5.367   3.210   0.413  0.00  0.00    +0.062 S 
ATOM     22  O   UNL     1      -5.321   4.487  -0.208  0.00  0.00    -0.153 OA
ATOM     23  O   UNL     1      -6.256   2.187  -0.014  0.00  0.00    -0.153 OA
BRANCH  21  24
ATOM     24  C   UNL     1      -3.741   2.539   0.306  0.00  0.00    +0.106 A 
ATOM     25  C   UNL     1      -3.554   1.170   0.358  0.00  0.00    +0.030 A 
ATOM     26  C   UNL     1      -2.281   0.641   0.275  0.00  0.00    +0.025 A 
ATOM     27  C   UNL     1      -1.187   1.486   0.140  0.00  0.00    +0.033 A 
ATOM     28  C   UNL     1      -1.377   2.861   0.095  0.00  0.00    +0.025 A 
ATOM     29  C   UNL     1      -2.654   3.383   0.172  0.00  0.00    +0.030 A 
BRANCH  27  30
ATOM     30  N   UNL     1       0.104   0.954   0.055  0.00  0.00    -0.286 N 
ATOM     31  C   UNL     1       1.039   1.570  -0.694  0.00  0.00    +0.214 C 
ATOM     32  O   UNL     1       0.740   2.535  -1.365  0.00  0.00    -0.276 OA
ATOM     33  C   UNL     1       2.458   1.061  -0.698  0.00  0.00    +0.109 C 
ATOM     34  H   UNL     1       0.325   0.139   0.533  0.00  0.00    +0.155 HD
ENDBRANCH  27  30
ENDBRANCH  21  24
ENDBRANCH  20  21
BRANCH  20  35
ATOM     35  C   UNL     1      -6.300   2.419   2.825  0.00  0.00    +0.136 C 
BRANCH  35  36
ATOM     36  C   UNL     1      -5.226   1.638   3.536  0.00  0.00    -0.018 C 
ATOM     37  C   UNL     1      -5.266   1.504   4.838  0.00  0.00    +0.005 C 
ENDBRANCH  35  36
ENDBRANCH  20  35
ENDBRANCH   1  20
TORSDOF 8
