REMARK  Name = ZINC41125315
REMARK  5 active torsions:
REMARK  status: ('A' for Active; 'I' for Inactive)
REMARK    1  A    between atoms: C_4  and  C_20
REMARK    2  A    between atoms: C_6  and  S_7
REMARK    3  A    between atoms: S_7  and  N_10
REMARK    4  A    between atoms: N_10  and  N_11
REMARK    5  A    between atoms: C_12  and  C_14
REMARK                            x       y       z     vdW  Elec       q    Type
REMARK                         _______ _______ _______ _____ _____    ______ ____
ROOT
ATOM      1  S   UNL     1      -1.513  -0.903   0.012  0.00  0.00    +0.074 S 
ATOM      2  O   UNL     1      -1.222  -2.184   0.553  0.00  0.00    -0.152 OA
ATOM      3  O   UNL     1      -2.493  -0.043   0.576  0.00  0.00    -0.152 OA
ENDROOT
BRANCH   1   9
ATOM      4  C   UNL     1      -0.017   1.380   0.010  0.00  0.00    +0.030 A 
ATOM      5  C   UNL     1       1.168   2.095   0.002  0.00  0.00    +0.018 A 
ATOM      6  C   UNL     1       2.378   1.431  -0.013  0.00  0.00    +0.032 A 
ATOM      7  C   UNL     1       2.404   0.033  -0.021  0.00  0.00    +0.079 A 
ATOM      8  C   UNL     1       1.203  -0.681  -0.013  0.00  0.00    +0.044 A 
ATOM      9  C   UNL     1       0.002  -0.004   0.002  0.00  0.00    +0.108 A 
ATOM     10 BR   UNL     1       3.996   2.410  -0.025  0.00  0.00    -0.049 Br
BRANCH   7  11
ATOM     11  C   UNL     1       3.693  -0.684  -0.038  0.00  0.00    +0.388 C 
ATOM     12  O   UNL     1       3.712  -1.907  -0.045  0.00  0.00    -0.241 OA
ATOM     13  O   UNL     1       4.742  -0.056  -0.046  0.00  0.00    -0.241 OA
ENDBRANCH   7  11
ENDBRANCH   1   9
BRANCH   1  14
ATOM     14  N   UNL     1      -1.949  -1.145  -1.568  0.00  0.00    -0.108 NA
ATOM     15  H   UNL     1      -2.792  -0.795  -1.897  0.00  0.00    +0.172 HD
BRANCH  14  16
ATOM     16  N   UNL     1      -1.101  -1.854  -2.428  0.00  0.00    -0.228 N 
ATOM     17  C   UNL     1      -1.565  -2.928  -3.097  0.00  0.00    +0.259 C 
ATOM     18  O   UNL     1      -2.718  -3.281  -2.954  0.00  0.00    -0.269 OA
ATOM     19  H   UNL     1      -0.180  -1.571  -2.542  0.00  0.00    +0.171 HD
BRANCH  17  20
ATOM     20  C   UNL     1      -0.667  -3.678  -4.007  0.00  0.00    +0.041 A 
ATOM     21  C   UNL     1       0.665  -3.291  -4.182  0.00  0.00    +0.033 A 
ATOM     22  C   UNL     1       1.466  -4.019  -5.040  0.00  0.00    +0.111 A 
ATOM     23  N   UNL     1       0.991  -5.063  -5.688  0.00  0.00    -0.263 NA
ATOM     24  C   UNL     1      -0.259  -5.461  -5.553  0.00  0.00    +0.111 A 
ATOM     25  C   UNL     1      -1.128  -4.795  -4.711  0.00  0.00    +0.033 A 
ENDBRANCH  17  20
ENDBRANCH  14  16
ENDBRANCH   1  14
TORSDOF 5
