REMARK  Name = ZINC03430855
REMARK  9 active torsions:
REMARK  status: ('A' for Active; 'I' for Inactive)
REMARK    1  A    between atoms: C_4  and  N_23
REMARK    2  A    between atoms: C_5  and  C_7
REMARK    3  A    between atoms: C_7  and  O_9
REMARK    4  A    between atoms: O_9  and  C_10
REMARK    5  A    between atoms: C_10  and  C_11
REMARK    6  A    between atoms: N_13  and  C_14
REMARK    7  A    between atoms: C_17  and  C_20
REMARK    8  A    between atoms: N_23  and  S_24
REMARK    9  A    between atoms: S_24  and  C_27
REMARK                            x       y       z     vdW  Elec       q    Type
REMARK                         _______ _______ _______ _____ _____    ______ ____
ROOT
ATOM      1  C   UNL     1       4.895   2.201  -4.151  0.00  0.00    +0.001 A 
ATOM      2  C   UNL     1       5.351   2.238  -2.843  0.00  0.00    +0.002 A 
ATOM      3  C   UNL     1       5.156   1.160  -2.004  0.00  0.00    +0.025 A 
ATOM      4  C   UNL     1       4.509   0.022  -2.471  0.00  0.00    +0.062 A 
ATOM      5  C   UNL     1       4.046  -0.018  -3.796  0.00  0.00    +0.081 A 
ATOM      6  C   UNL     1       4.246   1.085  -4.631  0.00  0.00    +0.017 A 
ENDROOT
BRANCH   5   7
ATOM      7  C   UNL     1       3.353  -1.216  -4.302  0.00  0.00    +0.341 C 
ATOM      8  O   UNL     1       3.181  -2.172  -3.573  0.00  0.00    -0.245 OA
BRANCH   7   9
ATOM      9  O   UNL     1       2.910  -1.250  -5.575  0.00  0.00    -0.452 OA
BRANCH   9  10
ATOM     10  C   UNL     1       2.236  -2.462  -6.005  0.00  0.00    +0.328 C 
BRANCH  10  11
ATOM     11  C   UNL     1       1.815  -2.318  -7.445  0.00  0.00    +0.255 C 
ATOM     12  O   UNL     1       2.059  -1.295  -8.049  0.00  0.00    -0.272 OA
ATOM     13  N   UNL     1       1.168  -3.326  -8.062  0.00  0.00    -0.283 N 
ATOM     14  H   UNL     1       0.914  -4.118  -7.562  0.00  0.00    +0.155 HD
BRANCH  13  15
ATOM     15  C   UNL     1       0.863  -3.232  -9.419  0.00  0.00    +0.034 A 
ATOM     16  C   UNL     1       0.519  -2.001  -9.969  0.00  0.00    +0.024 A 
ATOM     17  C   UNL     1       0.221  -1.903 -11.310  0.00  0.00    +0.015 A 
ATOM     18  C   UNL     1       0.255  -3.044 -12.117  0.00  0.00    +0.037 A 
ATOM     19  C   UNL     1       0.596  -4.280 -11.560  0.00  0.00    +0.015 A 
ATOM     20  C   UNL     1       0.897  -4.370 -10.219  0.00  0.00    +0.024 A 
BRANCH  18  21
ATOM     21  C   UNL     1      -0.068  -2.944 -13.553  0.00  0.00    +0.242 C 
ATOM     22  O   UNL     1      -0.038  -3.938 -14.254  0.00  0.00    -0.270 OA
ATOM     23  N   UNL     1      -0.397  -1.752 -14.089  0.00  0.00    -0.325 N 
ATOM     24  H   UNL     1      -0.420  -0.959 -13.530  0.00  0.00    +0.145 HD
ATOM     25  H   UNL     1      -0.609  -1.686 -15.033  0.00  0.00    +0.145 HD
ENDBRANCH  18  21
ENDBRANCH  13  15
ENDBRANCH  10  11
ENDBRANCH   9  10
ENDBRANCH   7   9
ENDBRANCH   5   7
BRANCH   4  26
ATOM     26  N   UNL     1       4.317  -1.066  -1.631  0.00  0.00    -0.215 N 
ATOM     27  H   UNL     1       4.368  -1.967  -1.985  0.00  0.00    +0.174 HD
BRANCH  26  28
ATOM     28  S   UNL     1       4.000  -0.825  -0.023  0.00  0.00    +0.072 S 
ATOM     29  O   UNL     1       5.036   0.012   0.474  0.00  0.00    -0.150 OA
ATOM     30  O   UNL     1       3.721  -2.103   0.532  0.00  0.00    -0.150 OA
BRANCH  28  31
ATOM     31  C   UNL     1       2.508   0.106   0.080  0.00  0.00    +0.112 A 
ATOM     32  C   UNL     1       1.291  -0.547   0.148  0.00  0.00    +0.032 A 
ATOM     33  C   UNL     1       0.118   0.180   0.229  0.00  0.00    +0.051 A 
ATOM     34  C   UNL     1       0.159   1.566   0.241  0.00  0.00    +0.162 A 
ATOM     35  C   UNL     1       1.383   2.222   0.174  0.00  0.00    +0.164 A 
ATOM     36  C   UNL     1       2.556   1.487   0.093  0.00  0.00    +0.078 A 
ATOM     37  O   UNL     1       1.446   3.582   0.193  0.00  0.00    -0.485 OA
ATOM     38  C   UNL     1       0.235   4.287  -0.101  0.00  0.00    +0.270 C 
ATOM     39  C   UNL     1      -0.903   3.643   0.702  0.00  0.00    +0.270 C 
ATOM     40  O   UNL     1      -1.004   2.269   0.312  0.00  0.00    -0.485 OA
ENDBRANCH  28  31
ENDBRANCH  26  28
ENDBRANCH   4  26
TORSDOF 9
