REMARK  Name = ZINC04287787
REMARK  4 active torsions:
REMARK  status: ('A' for Active; 'I' for Inactive)
REMARK    1  A    between atoms: C_1  and  C_2
REMARK    2  A    between atoms: N_10  and  C_14
REMARK    3  A    between atoms: C_14  and  C_15
REMARK    4  A    between atoms: N_17  and  C_18
REMARK                            x       y       z     vdW  Elec       q    Type
REMARK                         _______ _______ _______ _____ _____    ______ ____
ROOT
ATOM      1  C   UNL     1      -3.014  -2.361   0.018  0.00  0.00    +0.213 C 
ENDROOT
BRANCH   1  11
ATOM      2  C   UNL     1      -2.903 -10.343   0.554  0.00  0.00    +0.007 C 
ATOM      3  C   UNL     1      -2.917  -8.904   1.075  0.00  0.00    -0.014 C 
ATOM      4  C   UNL     1      -1.682  -8.163   0.559  0.00  0.00    +0.006 C 
ATOM      5  C   UNL     1      -1.691  -6.728   1.091  0.00  0.00    +0.035 C 
ATOM      6  C   UNL     1      -2.959  -6.019   0.629  0.00  0.00    +0.113 C 
ATOM      7  C   UNL     1      -4.200  -6.761   1.115  0.00  0.00    +0.035 C 
ATOM      8  C   UNL     1      -4.181  -8.196   0.583  0.00  0.00    +0.006 C 
ATOM      9  C   UNL     1      -2.974  -4.590   1.122  0.00  0.00    +0.247 C 
ATOM     10  O   UNL     1      -2.968  -4.211   2.273  0.00  0.00    -0.273 OA
ATOM     11  N   UNL     1      -2.994  -3.826   0.010  0.00  0.00    -0.215 N 
ATOM     12  C   UNL     1      -3.001  -4.572  -1.101  0.00  0.00    +0.310 C 
ATOM     13  O   UNL     1      -3.023  -4.111  -2.225  0.00  0.00    -0.252 OA
ATOM     14  N   UNL     1      -2.975  -5.892  -0.834  0.00  0.00    -0.285 N 
ATOM     15  H   UNL     1      -2.972  -6.616  -1.480  0.00  0.00    +0.151 HD
ENDBRANCH   1  11
BRANCH   1  16
ATOM     16  C   UNL     1      -1.601  -1.839   0.007  0.00  0.00    +0.231 C 
ATOM     17  O   UNL     1      -0.668  -2.615  -0.006  0.00  0.00    -0.274 OA
ATOM     18  N   UNL     1      -1.372  -0.511   0.012  0.00  0.00    -0.308 N 
ATOM     19  H   UNL     1      -2.118   0.109   0.023  0.00  0.00    +0.149 HD
BRANCH  18  20
ATOM     20  C   UNL     1       0.002  -0.004   0.002  0.00  0.00    +0.035 C 
ATOM     21  C   UNL     1      -0.019   1.526   0.010  0.00  0.00    +0.029 C 
ATOM     22  C   UNL     1       1.417   2.055  -0.000  0.00  0.00    -0.008 C 
ATOM     23  C   UNL     1       2.133   1.562  -1.259  0.00  0.00    +0.007 C 
ATOM     24  C   UNL     1       2.154   0.032  -1.268  0.00  0.00    -0.008 C 
ATOM     25  C   UNL     1       0.718  -0.497  -1.257  0.00  0.00    +0.029 C 
ATOM     26  C   UNL     1       2.894  -0.475  -0.028  0.00  0.00    +0.007 C 
ATOM     27  C   UNL     1       2.178   0.019   1.231  0.00  0.00    -0.008 C 
ATOM     28  C   UNL     1       2.157   1.548   1.239  0.00  0.00    +0.007 C 
ATOM     29  C   UNL     1       0.742  -0.511   1.242  0.00  0.00    +0.029 C 
ENDBRANCH  18  20
ENDBRANCH   1  16
TORSDOF 3
