REMARK  Name = ZINC59333937
REMARK  8 active torsions:
REMARK  status: ('A' for Active; 'I' for Inactive)
REMARK    1  A    between atoms: C_1  and  C_2
REMARK    2  A    between atoms: N_10  and  N_14
REMARK    3  A    between atoms: C_15  and  C_17
REMARK    4  A    between atoms: C_17  and  N_18
REMARK    5  A    between atoms: N_18  and  C_19
REMARK    6  A    between atoms: N_18  and  C_22
REMARK    7  A    between atoms: C_22  and  C_24
REMARK    8  A    between atoms: C_22  and  C_25
REMARK                            x       y       z     vdW  Elec       q    Type
REMARK                         _______ _______ _______ _____ _____    ______ ____
ROOT
ATOM      1  N   UNL     1       4.115  -6.137   0.630  0.00  0.00    -0.225 N 
ATOM      2  C   UNL     1       4.331  -6.543  -0.637  0.00  0.00    +0.213 C 
ATOM      3  O   UNL     1       4.090  -5.797  -1.562  0.00  0.00    -0.276 OA
ATOM      4  H   UNL     1       4.308  -6.733   1.370  0.00  0.00    +0.173 HD
ENDROOT
BRANCH   1  14
ATOM      5  C   UNL     1       0.780   0.898   2.151  0.00  0.00    +0.007 C 
ATOM      6  C   UNL     1       0.828  -0.624   2.006  0.00  0.00    -0.014 C 
ATOM      7  C   UNL     1       1.210  -0.988   0.570  0.00  0.00    +0.006 C 
ATOM      8  C   UNL     1       1.247  -2.511   0.423  0.00  0.00    +0.035 C 
ATOM      9  C   UNL     1       2.263  -3.092   1.399  0.00  0.00    +0.114 C 
ATOM     10  C   UNL     1       1.907  -2.720   2.834  0.00  0.00    +0.035 C 
ATOM     11  C   UNL     1       1.868  -1.196   2.973  0.00  0.00    +0.006 C 
ATOM     12  C   UNL     1       2.342  -4.594   1.248  0.00  0.00    +0.263 C 
ATOM     13  O   UNL     1       1.451  -5.397   1.422  0.00  0.00    -0.271 OA
ATOM     14  N   UNL     1       3.613  -4.853   0.878  0.00  0.00    -0.137 N 
ATOM     15  C   UNL     1       4.336  -3.730   0.777  0.00  0.00    +0.326 C 
ATOM     16  O   UNL     1       5.508  -3.707   0.459  0.00  0.00    -0.251 OA
ATOM     17  N   UNL     1       3.617  -2.629   1.069  0.00  0.00    -0.284 N 
ATOM     18  H   UNL     1       3.932  -1.711   1.062  0.00  0.00    +0.151 HD
ENDBRANCH   1  14
BRANCH   2  19
ATOM     19  C   UNL     1       4.871  -7.925  -0.904  0.00  0.00    +0.021 C 
BRANCH  19  20
ATOM     20  N   UNL     1       5.016  -8.123  -2.352  0.00  0.00    +0.392 N 
ATOM     21  H   UNL     1       4.145  -7.899  -2.811  0.00  0.00    -0.080 HD
BRANCH  20  22
ATOM     22  C   UNL     1       6.078  -7.246  -2.863  0.00  0.00    -0.067 C 
ATOM     23  C   UNL     1       5.657  -6.056  -3.727  0.00  0.00    -0.017 C 
ATOM     24  C   UNL     1       6.344  -7.262  -4.369  0.00  0.00    -0.017 C 
ENDBRANCH  20  22
BRANCH  20  25
ATOM     25  C   UNL     1       5.365  -9.524  -2.622  0.00  0.00    -0.038 C 
ATOM     26  C   UNL     1       6.382 -10.005  -1.585  0.00  0.00    -0.008 C 
BRANCH  25  27
ATOM     27  C   UNL     1       4.124 -10.376  -2.541  0.00  0.00    -0.043 A 
ATOM     28  C   UNL     1       2.978  -9.873  -1.954  0.00  0.00    +0.003 A 
ATOM     29  C   UNL     1       1.840 -10.654  -1.880  0.00  0.00    +0.000 A 
ATOM     30  C   UNL     1       1.847 -11.938  -2.393  0.00  0.00    +0.001 A 
ATOM     31  C   UNL     1       2.992 -12.441  -2.981  0.00  0.00    +0.020 A 
ATOM     32  C   UNL     1       4.130 -11.658  -3.060  0.00  0.00    +0.043 A 
ATOM     33 CL   UNL     1       5.567 -12.287  -3.804  0.00  0.00    -0.083 Cl
ENDBRANCH  25  27
ENDBRANCH  20  25
ENDBRANCH  19  20
ENDBRANCH   2  19
TORSDOF 6
