REMARK  Name = ZINC13063679
REMARK  12 active torsions:
REMARK  status: ('A' for Active; 'I' for Inactive)
REMARK    1  A    between atoms: C_1  and  C_2
REMARK    2  A    between atoms: C_2  and  C_3
REMARK    3  A    between atoms: C_10  and  C_15
REMARK    4  A    between atoms: C_15  and  N_69
REMARK    5  A    between atoms: C_16  and  C_17
REMARK    6  A    between atoms: C_16  and  N_69
REMARK    7  A    between atoms: C_23  and  C_25
REMARK    8  A    between atoms: C_23  and  C_27
REMARK    9  A    between atoms: C_23  and  N_69
REMARK   10  A    between atoms: C_25  and  C_26
REMARK   11  A    between atoms: N_31  and  C_32
REMARK   12  A    between atoms: C_32  and  C_33
REMARK                            x       y       z     vdW  Elec       q    Type
REMARK                         _______ _______ _______ _____ _____    ______ ____
ROOT
ATOM      1  N   UNL     1       1.011   6.045  -3.368  0.00  0.00    +0.392 N 
ATOM      2  H   UNL     1       1.477   6.119  -4.280  0.00  0.00    -0.080 HD
ENDROOT
BRANCH   1   3
ATOM      3  C   UNL     1       0.190   7.254  -3.148  0.00  0.00    -0.036 C 
BRANCH   3  11
ATOM      4  C   UNL     1       1.597  11.336  -7.580  0.00  0.00    -0.047 A 
ATOM      5  C   UNL     1       2.535  12.048  -6.844  0.00  0.00    +0.005 A 
ATOM      6  C   UNL     1       2.828  11.691  -5.545  0.00  0.00    +0.026 A 
ATOM      7  C   UNL     1       2.180  10.606  -4.965  0.00  0.00    +0.049 A 
ATOM      8  C   UNL     1       1.230   9.887  -5.714  0.00  0.00    -0.001 A 
ATOM      9  C   UNL     1       0.947  10.268  -7.030  0.00  0.00    +0.013 A 
ATOM     10  C   UNL     1       0.557   8.743  -5.096  0.00  0.00    +0.017 A 
ATOM     11  C   UNL     1       0.868   8.423  -3.815  0.00  0.00    +0.001 A 
ATOM     12  C   UNL     1       1.828   9.177  -3.107  0.00  0.00    +0.251 A 
ATOM     13  O   UNL     1       2.096   8.869  -1.959  0.00  0.00    -0.268 OA
ATOM     14  N   UNL     1       2.455  10.226  -3.668  0.00  0.00    -0.322 N 
ATOM     15  H   UNL     1       3.110  10.723  -3.153  0.00  0.00    +0.169 HD
BRANCH   4  17
ATOM     16  C   UNL     1       0.149  12.763  -9.000  0.00  0.00    +0.009 C 
ATOM     17  C   UNL     1       1.292  11.747  -8.997  0.00  0.00    +0.032 C 
ENDBRANCH   4  17
ENDBRANCH   3  11
ENDBRANCH   1   3
BRANCH   1  18
ATOM     18  C   UNL     1       0.152   4.843  -3.364  0.00  0.00    -0.042 C 
BRANCH  18  19
ATOM     19  C   UNL     1      -0.569   4.760  -4.685  0.00  0.00    -0.064 A 
ATOM     20  C   UNL     1      -1.887   5.163  -4.780  0.00  0.00    +0.002 A 
ATOM     21  C   UNL     1      -2.547   5.092  -5.993  0.00  0.00    +0.000 A 
ATOM     22  C   UNL     1      -1.890   4.608  -7.109  0.00  0.00    +0.000 A 
ATOM     23  C   UNL     1      -0.573   4.199  -7.013  0.00  0.00    +0.000 A 
ATOM     24  C   UNL     1       0.088   4.275  -5.801  0.00  0.00    +0.002 A 
ENDBRANCH  18  19
ENDBRANCH   1  18
BRANCH   1  25
ATOM     25  C   UNL     1       2.040   5.934  -2.312  0.00  0.00    +0.003 C 
BRANCH  25  26
ATOM     26  C   UNL     1       3.206   6.814  -2.682  0.00  0.00    +0.138 A 
ATOM     27  N   UNL     1       3.256   7.673  -3.670  0.00  0.00    -0.115 NA
ATOM     28  N   UNL     1       4.418   8.229  -3.656  0.00  0.00    -0.023 NA
ATOM     29  N   UNL     1       5.109   7.751  -2.681  0.00  0.00    -0.044 NA
ATOM     30  N   UNL     1       4.398   6.871  -2.060  0.00  0.00    -0.226 N 
BRANCH  30  31
ATOM     31  C   UNL     1       4.810   6.087  -0.893  0.00  0.00    +0.182 C 
BRANCH  31  32
ATOM     32  C   UNL     1       5.448   4.801  -1.352  0.00  0.00    -0.026 A 
ATOM     33  C   UNL     1       6.810   4.748  -1.579  0.00  0.00    +0.005 A 
ATOM     34  C   UNL     1       7.395   3.568  -2.000  0.00  0.00    +0.000 A 
ATOM     35  C   UNL     1       6.617   2.443  -2.199  0.00  0.00    +0.000 A 
ATOM     36  C   UNL     1       5.255   2.495  -1.967  0.00  0.00    +0.000 A 
ATOM     37  C   UNL     1       4.670   3.674  -1.545  0.00  0.00    +0.005 A 
ENDBRANCH  31  32
ENDBRANCH  30  31
ENDBRANCH  25  26
BRANCH  25  38
ATOM     38  C   UNL     1       1.472   6.379  -0.963  0.00  0.00    -0.011 C 
ATOM     39  C   UNL     1       0.230   5.548  -0.634  0.00  0.00    +0.002 C 
ENDBRANCH  25  38
ENDBRANCH   1  25
TORSDOF 10
