REMARK  Name = ZINC06547000
REMARK  12 active torsions:
REMARK  status: ('A' for Active; 'I' for Inactive)
REMARK    1  A    between atoms: C_1  and  C_2
REMARK    2  A    between atoms: C_2  and  O_3
REMARK    3  A    between atoms: O_3  and  C_4
REMARK    4  A    between atoms: C_4  and  C_6
REMARK    5  A    between atoms: C_6  and  N_7
REMARK    6  A    between atoms: C_8  and  C_10
REMARK    7  A    between atoms: C_10  and  C_12
REMARK    8  A    between atoms: C_10  and  N_19
REMARK    9  A    between atoms: N_19  and  C_20
REMARK   10  A    between atoms: C_27  and  C_29
REMARK   11  A    between atoms: C_30  and  N_37
REMARK   12  A    between atoms: C_31  and  C_34
REMARK                            x       y       z     vdW  Elec       q    Type
REMARK                         _______ _______ _______ _____ _____    ______ ____
ROOT
ATOM      1  N   UNL     1       3.279   1.716   0.794  0.00  0.00    -0.251 N 
ATOM      2  C   UNL     1       4.291   1.045   1.378  0.00  0.00    +0.262 C 
ATOM      3  O   UNL     1       4.723   0.029   0.867  0.00  0.00    -0.269 OA
ENDROOT
BRANCH   1   4
ATOM      4  C   UNL     1       2.702   2.815   1.441  0.00  0.00    +0.038 A 
ATOM      5  C   UNL     1       3.081   4.105   1.092  0.00  0.00    +0.026 A 
ATOM      6  C   UNL     1       2.507   5.188   1.728  0.00  0.00    +0.040 A 
ATOM      7  C   UNL     1       1.563   4.989   2.721  0.00  0.00    +0.124 A 
ATOM      8  C   UNL     1       1.188   3.703   3.075  0.00  0.00    +0.040 A 
ATOM      9  C   UNL     1       1.755   2.617   2.438  0.00  0.00    +0.026 A 
ATOM     10  F   UNL     1       1.006   6.049   3.346  0.00  0.00    -0.205 F 
ENDBRANCH   1   4
BRANCH   2  11
ATOM     11  C   UNL     1       4.872   1.539   2.628  0.00  0.00    +0.116 A 
ATOM     12  C   UNL     1       5.858   0.966   3.433  0.00  0.00    +0.076 A 
ATOM     13  C   UNL     1       6.151   1.742   4.554  0.00  0.00    +0.155 A 
ATOM     14  N   UNL     1       5.508   2.874   4.738  0.00  0.00    -0.203 NA
ATOM     15  S   UNL     1       4.514   3.035   3.525  0.00  0.00    +0.019 S 
BRANCH  13  16
ATOM     16  C   UNL     1       7.169   1.298   5.523  0.00  0.00    +0.262 C 
ATOM     17  O   UNL     1       7.759   0.249   5.347  0.00  0.00    -0.269 OA
ATOM     18  N   UNL     1       7.446   2.054   6.604  0.00  0.00    -0.324 N 
ATOM     19  H   UNL     1       6.975   2.890   6.745  0.00  0.00    +0.145 HD
ATOM     20  H   UNL     1       8.116   1.761   7.242  0.00  0.00    +0.145 HD
ENDBRANCH  13  16
BRANCH  12  21
ATOM     21  N   UNL     1       6.479  -0.243   3.149  0.00  0.00    -0.355 N 
ATOM     22  H   UNL     1       6.234  -0.740   2.352  0.00  0.00    +0.142 HD
ATOM     23  H   UNL     1       7.159  -0.592   3.747  0.00  0.00    +0.142 HD
ENDBRANCH  12  21
ENDBRANCH   2  11
BRANCH   1  24
ATOM     24  C   UNL     1       2.782   1.295  -0.518  0.00  0.00    +0.197 C 
BRANCH  24  25
ATOM     25  C   UNL     1       1.290   1.093  -0.449  0.00  0.00    -0.018 A 
ATOM     26  C   UNL     1       0.765  -0.185  -0.457  0.00  0.00    +0.009 A 
ATOM     27  C   UNL     1      -0.604  -0.371  -0.399  0.00  0.00    +0.038 A 
ATOM     28  C   UNL     1      -1.448   0.724  -0.324  0.00  0.00    +0.123 A 
ATOM     29  C   UNL     1      -0.921   2.004  -0.316  0.00  0.00    +0.038 A 
ATOM     30  C   UNL     1       0.448   2.188  -0.378  0.00  0.00    +0.009 A 
ATOM     31  F   UNL     1      -2.785   0.543  -0.263  0.00  0.00    -0.205 F 
ENDBRANCH  24  25
BRANCH  24  33
ATOM     32  N   UNL     1       2.733   2.185  -2.825  0.00  0.00    -0.303 N 
ATOM     33  C   UNL     1       3.098   2.357  -1.539  0.00  0.00    +0.239 C 
ATOM     34  O   UNL     1       3.682   3.366  -1.204  0.00  0.00    -0.273 OA
ATOM     35  H   UNL     1       2.266   1.378  -3.093  0.00  0.00    +0.149 HD
BRANCH  32  36
ATOM     36  C   UNL     1       3.041   3.217  -3.818  0.00  0.00    +0.225 C 
BRANCH  36  37
ATOM     37  C   UNL     1       2.530   2.784  -5.168  0.00  0.00    +0.324 C 
ATOM     38  O   UNL     1       1.966   1.722  -5.288  0.00  0.00    -0.249 OA
BRANCH  37  39
ATOM     39  O   UNL     1       2.700   3.578  -6.237  0.00  0.00    -0.464 OA
BRANCH  39  41
ATOM     40  C   UNL     1       2.468   4.129  -8.598  0.00  0.00    +0.048 C 
ATOM     41  C   UNL     1       2.182   3.097  -7.505  0.00  0.00    +0.229 C 
ENDBRANCH  39  41
ENDBRANCH  37  39
ENDBRANCH  36  37
ENDBRANCH  32  36
ENDBRANCH  24  33
ENDBRANCH   1  24
TORSDOF 11
