REMARK  Name = ZINC39632060
REMARK  13 active torsions:
REMARK  status: ('A' for Active; 'I' for Inactive)
REMARK    1  A    between atoms: C_1  and  C_2
REMARK    2  A    between atoms: C_3  and  C_13
REMARK    3  A    between atoms: C_4  and  C_7
REMARK    4  A    between atoms: C_17  and  C_26
REMARK    5  A    between atoms: N_28  and  C_29
REMARK    6  A    between atoms: C_29  and  C_31
REMARK    7  A    between atoms: C_29  and  C_32
REMARK    8  A    between atoms: C_32  and  C_33
REMARK    9  A    between atoms: C_33  and  C_34
REMARK   10  A    between atoms: C_34  and  C_35
REMARK   11  A    between atoms: C_35  and  C_36
REMARK   12  A    between atoms: C_35  and  C_37
REMARK   13  A    between atoms: C_35  and  O_38
REMARK                            x       y       z     vdW  Elec       q    Type
REMARK                         _______ _______ _______ _____ _____    ______ ____
ROOT
ATOM      1  C   UNL     1      -2.651  -0.383  -0.020  0.00  0.00    +0.252 C 
ATOM      2  O   UNL     1      -3.247  -0.147  -1.054  0.00  0.00    -0.270 OA
ATOM      3  N   UNL     1      -3.253  -0.172   1.167  0.00  0.00    -0.296 N 
ATOM      4  C   UNL     1      -2.693  -0.392   2.521  0.00  0.00    +0.121 C 
ATOM      5  C   UNL     1      -3.210   0.801   3.356  0.00  0.00    +0.100 C 
ATOM      6  C   UNL     1      -4.480   1.270   2.625  0.00  0.00    -0.004 C 
ATOM      7  C   UNL     1      -4.624   0.338   1.413  0.00  0.00    +0.115 C 
ATOM      8  C   UNL     1      -5.694   1.141   3.539  0.00  0.00    -0.010 C 
ATOM      9  C   UNL     1      -6.934   1.668   2.811  0.00  0.00    -0.082 C 
ATOM     10  N   UNL     1      -6.724   3.072   2.437  0.00  0.00    +0.379 N 
ATOM     11  C   UNL     1      -5.612   3.176   1.485  0.00  0.00    -0.082 C 
ATOM     12  C   UNL     1      -4.317   2.713   2.157  0.00  0.00    -0.010 C 
ATOM     13  H   UNL     1      -7.565   3.434   2.012  0.00  0.00    -0.086 HD
ATOM     14  H   UNL     1      -6.510   3.610   3.263  0.00  0.00    -0.086 HD
ENDROOT
BRANCH   1  17
ATOM     15  C   UNL     1      -0.048   1.346  -0.046  0.00  0.00    +0.090 C 
ATOM     16  C   UNL     1      -0.127  -0.159  -0.078  0.00  0.00    +0.147 A 
ATOM     17  C   UNL     1      -1.273  -0.899  -0.066  0.00  0.00    +0.106 A 
ATOM     18  C   UNL     1      -0.866  -2.311  -0.107  0.00  0.00    +0.126 A 
ATOM     19  N   UNL     1       0.443  -2.329  -0.140  0.00  0.00    -0.077 NA
ATOM     20  O   UNL     1       0.912  -0.996  -0.128  0.00  0.00    -0.359 OA
BRANCH  18  21
ATOM     21  C   UNL     1      -1.766  -3.490  -0.111  0.00  0.00    +0.004 A 
ATOM     22  C   UNL     1      -2.960  -3.461   0.606  0.00  0.00    +0.010 A 
ATOM     23  C   UNL     1      -3.794  -4.561   0.599  0.00  0.00    +0.001 A 
ATOM     24  C   UNL     1      -3.446  -5.691  -0.118  0.00  0.00    +0.000 A 
ATOM     25  C   UNL     1      -2.261  -5.726  -0.832  0.00  0.00    +0.001 A 
ATOM     26  C   UNL     1      -1.422  -4.630  -0.836  0.00  0.00    +0.010 A 
ENDBRANCH  18  21
ENDBRANCH   1  17
BRANCH   5  27
ATOM     27  C   UNL     1      -3.543   0.356   4.757  0.00  0.00    +0.218 C 
ATOM     28  O   UNL     1      -3.934  -0.774   4.957  0.00  0.00    -0.275 OA
ATOM     29  N   UNL     1      -3.406   1.214   5.787  0.00  0.00    -0.312 N 
ATOM     30  H   UNL     1      -3.093   2.118   5.627  0.00  0.00    +0.149 HD
BRANCH  29  31
ATOM     31  C   UNL     1      -3.729   0.782   7.149  0.00  0.00    +0.070 C 
ATOM     32  C   UNL     1      -5.229   0.954   7.396  0.00  0.00    +0.028 C 
BRANCH  31  33
ATOM     33  C   UNL     1      -2.946   1.630   8.153  0.00  0.00    +0.022 C 
BRANCH  33  34
ATOM     34  C   UNL     1      -1.448   1.362   7.988  0.00  0.00    +0.005 C 
BRANCH  34  35
ATOM     35  C   UNL     1      -0.665   2.210   8.992  0.00  0.00    +0.034 C 
BRANCH  35  36
ATOM     36  C   UNL     1       0.833   1.943   8.827  0.00  0.00    +0.061 C 
ATOM     37  C   UNL     1       1.607   2.695   9.911  0.00  0.00    +0.041 C 
ATOM     38  C   UNL     1       1.100   0.442   8.956  0.00  0.00    +0.041 C 
BRANCH  36  39
ATOM     39  O   UNL     1       1.258   2.393   7.539  0.00  0.00    -0.389 OA
ATOM     40  H   UNL     1       1.118   3.337   7.386  0.00  0.00    +0.210 HD
ENDBRANCH  36  39
ENDBRANCH  35  36
ENDBRANCH  34  35
ENDBRANCH  33  34
ENDBRANCH  31  33
ENDBRANCH  29  31
ENDBRANCH   5  27
TORSDOF 9
