REMARK  Name = ZINC05125500
REMARK  10 active torsions:
REMARK  status: ('A' for Active; 'I' for Inactive)
REMARK    1  A    between atoms: C_1  and  C_2
REMARK    2  A    between atoms: C_4  and  N_12
REMARK    3  A    between atoms: C_5  and  N_9
REMARK    4  A    between atoms: C_7  and  C_8
REMARK    5  A    between atoms: N_12  and  C_13
REMARK    6  A    between atoms: C_15  and  O_28
REMARK    7  A    between atoms: C_17  and  O_27
REMARK    8  A    between atoms: C_19  and  O_26
REMARK    9  A    between atoms: C_21  and  C_24
REMARK   10  A    between atoms: C_24  and  O_25
REMARK                            x       y       z     vdW  Elec       q    Type
REMARK                         _______ _______ _______ _____ _____    ______ ____
ROOT
ATOM      1  C   UNL     1       3.407   1.913  -1.291  0.00  0.00    +0.235 C 
ATOM      2  C   UNL     1       2.039   1.226  -1.254  0.00  0.00    +0.192 C 
ATOM      3  C   UNL     1       1.295   1.655   0.014  0.00  0.00    +0.178 C 
ATOM      4  C   UNL     1       1.181   3.182   0.036  0.00  0.00    +0.177 C 
ATOM      5  C   UNL     1       2.583   3.792  -0.049  0.00  0.00    +0.177 C 
ATOM      6  O   UNL     1       3.231   3.330  -1.236  0.00  0.00    -0.348 OA
ENDROOT
BRANCH   1   7
ATOM      7  N   UNL     1       4.202   1.474  -0.141  0.00  0.00    -0.315 N 
ATOM      8  H   UNL     1       3.769   1.294   0.708  0.00  0.00    +0.149 HD
BRANCH   7  12
ATOM      9  C   UNL     1       8.221   1.490  -2.970  0.00  0.00    +0.044 C 
ATOM     10  C   UNL     1       7.560   1.317  -1.627  0.00  0.00    -0.046 A 
ATOM     11  C   UNL     1       6.192   1.469  -1.506  0.00  0.00    +0.029 A 
ATOM     12  C   UNL     1       5.584   1.316  -0.267  0.00  0.00    +0.060 A 
ATOM     13  C   UNL     1       6.353   1.000   0.846  0.00  0.00    +0.147 A 
ATOM     14  C   UNL     1       7.719   0.844   0.718  0.00  0.00    +0.038 A 
ATOM     15  C   UNL     1       8.322   1.003  -0.517  0.00  0.00    -0.045 A 
ATOM     16  C   UNL     1       9.813   0.832  -0.653  0.00  0.00    +0.044 C 
BRANCH  13  17
ATOM     17  N   UNL     1       5.709   0.831   2.168  0.00  0.00    +0.058 N 
ATOM     18  O   UNL     1       6.393   0.663   3.162  0.00  0.00    -0.126 OA
ATOM     19  O   UNL     1       4.495   0.858   2.262  0.00  0.00    -0.126 OA
ENDBRANCH  13  17
ENDBRANCH   7  12
ENDBRANCH   1   7
BRANCH   4  20
ATOM     20  O   UNL     1       0.402   3.620  -1.079  0.00  0.00    -0.386 OA
ATOM     21  H   UNL     1      -0.498   3.267  -1.092  0.00  0.00    +0.210 HD
ENDBRANCH   4  20
BRANCH   3  22
ATOM     22  O   UNL     1      -0.013   1.079   0.019  0.00  0.00    -0.386 OA
ATOM     23  H   UNL     1      -0.016   0.112   0.003  0.00  0.00    +0.210 HD
ENDBRANCH   3  22
BRANCH   2  24
ATOM     24  O   UNL     1       2.215  -0.192  -1.248  0.00  0.00    -0.385 OA
ATOM     25  H   UNL     1       2.680  -0.534  -2.024  0.00  0.00    +0.210 HD
ENDBRANCH   2  24
BRANCH   5  26
ATOM     26  C   UNL     1       2.475   5.317  -0.088  0.00  0.00    +0.190 C 
BRANCH  26  27
ATOM     27  O   UNL     1       3.784   5.889  -0.050  0.00  0.00    -0.392 OA
ATOM     28  H   UNL     1       3.792   6.856  -0.071  0.00  0.00    +0.210 HD
ENDBRANCH  26  27
ENDBRANCH   5  26
TORSDOF 8
