REMARK  Name = ZINC16978521
REMARK  6 active torsions:
REMARK  status: ('A' for Active; 'I' for Inactive)
REMARK    1  A    between atoms: C_1  and  C_2
REMARK    2  A    between atoms: C_3  and  C_10
REMARK    3  A    between atoms: C_4  and  N_9
REMARK    4  A    between atoms: C_13  and  C_16
REMARK    5  A    between atoms: C_17  and  C_18
REMARK    6  A    between atoms: C_19  and  C_20
REMARK                            x       y       z     vdW  Elec       q    Type
REMARK                         _______ _______ _______ _____ _____    ______ ____
ROOT
ATOM      1  C   UNL     1      -0.921  -4.706  -1.814  0.00  0.00    -0.013 A 
ATOM      2  C   UNL     1      -2.143  -4.128  -1.467  0.00  0.00    +0.009 A 
ATOM      3  C   UNL     1      -2.194  -2.821  -1.073  0.00  0.00    +0.008 A 
ATOM      4  C   UNL     1      -1.020  -2.061  -1.017  0.00  0.00    -0.025 A 
ATOM      5  C   UNL     1       0.204  -2.642  -1.371  0.00  0.00    +0.008 A 
ATOM      6  C   UNL     1       0.252  -3.951  -1.760  0.00  0.00    +0.009 A 
ENDROOT
BRANCH   1   9
ATOM      7  C   UNL     1       0.508  -6.678  -0.207  0.00  0.00    +0.066 C 
ATOM      8  C   UNL     1      -0.189  -7.075  -1.482  0.00  0.00    +0.053 A 
ATOM      9  C   UNL     1      -0.868  -6.123  -2.242  0.00  0.00    +0.043 A 
ATOM     10  C   UNL     1      -1.498  -6.544  -3.429  0.00  0.00    +0.129 A 
ATOM     11  N   UNL     1      -1.426  -7.824  -3.774  0.00  0.00    -0.199 NA
ATOM     12  C   UNL     1      -0.773  -8.694  -3.017  0.00  0.00    +0.214 A 
ATOM     13  N   UNL     1      -0.169  -8.332  -1.894  0.00  0.00    -0.219 NA
ATOM     14  N   UNL     1      -0.720 -10.019  -3.411  0.00  0.00    -0.327 N 
ATOM     15  H   UNL     1      -1.157 -10.299  -4.230  0.00  0.00    +0.145 HD
ATOM     16  H   UNL     1      -0.246 -10.668  -2.867  0.00  0.00    +0.145 HD
BRANCH  10  17
ATOM     17  N   UNL     1      -2.181  -5.640  -4.221  0.00  0.00    -0.343 N 
ATOM     18  H   UNL     1      -2.229  -4.707  -3.961  0.00  0.00    +0.144 HD
ATOM     19  H   UNL     1      -2.612  -5.939  -5.038  0.00  0.00    +0.144 HD
ENDBRANCH  10  17
ENDBRANCH   1   9
BRANCH   4  20
ATOM     20  C   UNL     1      -1.072  -0.655  -0.594  0.00  0.00    +0.008 C 
ATOM     21  C   UNL     1       0.062   0.077  -0.541  0.00  0.00    +0.001 C 
BRANCH  21  22
ATOM     22  C   UNL     1       0.012   1.432  -0.133  0.00  0.00    +0.001 C 
ATOM     23  C   UNL     1       1.155   2.131   0.030  0.00  0.00    +0.008 C 
BRANCH  23  24
ATOM     24  C   UNL     1       2.454   1.444  -0.048  0.00  0.00    -0.025 A 
ATOM     25  C   UNL     1       2.578   0.122   0.389  0.00  0.00    +0.008 A 
ATOM     26  C   UNL     1       3.798  -0.517   0.306  0.00  0.00    +0.001 A 
ATOM     27  C   UNL     1       4.900   0.152  -0.196  0.00  0.00    +0.000 A 
ATOM     28  C   UNL     1       4.787   1.463  -0.625  0.00  0.00    +0.001 A 
ATOM     29  C   UNL     1       3.573   2.113  -0.555  0.00  0.00    +0.008 A 
ENDBRANCH  23  24
ENDBRANCH  21  22
ENDBRANCH   4  20
TORSDOF 5
