REMARK  Name = ZINC36316163
REMARK  17 active torsions:
REMARK  status: ('A' for Active; 'I' for Inactive)
REMARK    1  A    between atoms: C_1  and  C_2
REMARK    2  A    between atoms: C_2  and  C_3
REMARK    3  A    between atoms: C_2  and  C_4
REMARK    4  A    between atoms: C_4  and  O_5
REMARK    5  A    between atoms: O_5  and  C_6
REMARK    6  A    between atoms: C_6  and  C_7
REMARK    7  A    between atoms: C_7  and  C_9
REMARK    8  A    between atoms: C_7  and  O_37
REMARK    9  A    between atoms: C_9  and  N_10
REMARK   10  A    between atoms: N_10  and  C_11
REMARK   11  A    between atoms: N_10  and  C_33
REMARK   12  A    between atoms: C_11  and  C_12
REMARK   13  A    between atoms: C_13  and  C_27
REMARK   14  A    between atoms: N_15  and  C_26
REMARK   15  A    between atoms: C_16  and  O_17
REMARK   16  A    between atoms: O_17  and  C_18
REMARK   17  A    between atoms: C_33  and  C_34
REMARK                            x       y       z     vdW  Elec       q    Type
REMARK                         _______ _______ _______ _____ _____    ______ ____
ROOT
ATOM      1  C   UNL     1       5.145   0.459  -5.195  0.00  0.00    +0.025 A 
ATOM      2  C   UNL     1       5.627   1.770  -5.371  0.00  0.00    +0.098 A 
ATOM      3  N   UNL     1       4.644   2.508  -5.841  0.00  0.00    -0.168 NA
ATOM      4  N   UNL     1       3.511   1.695  -5.979  0.00  0.00    -0.235 N 
ATOM      5  C   UNL     1       3.844   0.440  -5.582  0.00  0.00    +0.221 A 
ATOM      6  C   UNL     1       2.200   2.123  -6.472  0.00  0.00    +0.176 C 
ENDROOT
BRANCH   2   7
ATOM      7  C   UNL     1       7.004   2.239  -5.076  0.00  0.00    +0.002 A 
ATOM      8  C   UNL     1       7.654   1.815  -3.920  0.00  0.00    +0.010 A 
ATOM      9  C   UNL     1       8.935   2.254  -3.651  0.00  0.00    +0.001 A 
ATOM     10  C   UNL     1       9.572   3.114  -4.527  0.00  0.00    +0.000 A 
ATOM     11  C   UNL     1       8.931   3.539  -5.677  0.00  0.00    +0.001 A 
ATOM     12  C   UNL     1       7.653   3.100  -5.959  0.00  0.00    +0.010 A 
ENDBRANCH   2   7
BRANCH   1  13
ATOM     13  C   UNL     1       5.935  -0.715  -4.676  0.00  0.00    -0.035 C 
BRANCH  13  14
ATOM     14  N   UNL     1       5.714  -0.853  -3.231  0.00  0.00    +0.384 N 
ATOM     15  H   UNL     1       5.919   0.023  -2.774  0.00  0.00    -0.081 HD
BRANCH  14  16
ATOM     16  C   UNL     1       4.313  -1.219  -2.982  0.00  0.00    -0.044 C 
BRANCH  16  17
ATOM     17  C   UNL     1       4.035  -1.181  -1.478  0.00  0.00    +0.124 C 
BRANCH  17  18
ATOM     18  O   UNL     1       4.757  -2.232  -0.833  0.00  0.00    -0.391 OA
ATOM     19  H   UNL     1       4.524  -3.117  -1.144  0.00  0.00    +0.210 HD
ENDBRANCH  17  18
BRANCH  17  20
ATOM     20  C   UNL     1       2.536  -1.365  -1.232  0.00  0.00    +0.189 C 
BRANCH  20  21
ATOM     21  O   UNL     1       2.261  -1.213   0.162  0.00  0.00    -0.377 OA
BRANCH  21  22
ATOM     22  C   UNL     1       0.881  -1.368   0.502  0.00  0.00    +0.163 C 
BRANCH  22  24
ATOM     23  C   UNL     1       1.057   0.253   2.396  0.00  0.00    +0.009 C 
ATOM     24  C   UNL     1       0.704  -1.186   2.011  0.00  0.00    +0.009 C 
ATOM     25  C   UNL     1      -0.749  -1.473   2.392  0.00  0.00    +0.009 C 
ENDBRANCH  22  24
ENDBRANCH  21  22
ENDBRANCH  20  21
ENDBRANCH  17  20
ENDBRANCH  16  17
ENDBRANCH  14  16
BRANCH  14  26
ATOM     26  C   UNL     1       6.596  -1.901  -2.699  0.00  0.00    -0.075 C 
BRANCH  26  27
ATOM     27  C   UNL     1       8.055  -1.493  -2.908  0.00  0.00    -0.028 C 
ATOM     28  C   UNL     1       8.903  -2.358  -3.844  0.00  0.00    +0.002 C 
ATOM     29  C   UNL     1       9.135  -2.413  -2.332  0.00  0.00    +0.002 C 
ENDBRANCH  26  27
ENDBRANCH  14  26
ENDBRANCH  13  14
ENDBRANCH   1  13
BRANCH   5  30
ATOM     30  O   UNL     1       3.022  -0.640  -5.571  0.00  0.00    -0.435 OA
BRANCH  30  31
ATOM     31  C   UNL     1       2.978  -1.421  -6.683  0.00  0.00    +0.166 A 
ATOM     32  C   UNL     1       3.834  -1.165  -7.745  0.00  0.00    +0.052 A 
ATOM     33  C   UNL     1       3.789  -1.959  -8.875  0.00  0.00    +0.042 A 
ATOM     34  C   UNL     1       2.891  -3.010  -8.949  0.00  0.00    +0.126 A 
ATOM     35  C   UNL     1       2.036  -3.269  -7.891  0.00  0.00    +0.080 A 
ATOM     36  C   UNL     1       2.082  -2.479  -6.756  0.00  0.00    +0.168 A 
ATOM     37  F   UNL     1       1.252  -2.734  -5.721  0.00  0.00    -0.202 F 
ATOM     38  F   UNL     1       2.849  -3.785 -10.055  0.00  0.00    -0.205 F 
ENDBRANCH  30  31
ENDBRANCH   5  30
TORSDOF 14
