REMARK  Name = ZINC65466955
REMARK  6 active torsions:
REMARK  status: ('A' for Active; 'I' for Inactive)
REMARK    1  A    between atoms: C_1  and  C_2
REMARK    2  A    between atoms: C_3  and  C_21
REMARK    3  A    between atoms: C_7  and  N_8
REMARK    4  A    between atoms: N_11  and  C_12
REMARK    5  A    between atoms: C_12  and  C_13
REMARK    6  A    between atoms: C_12  and  C_14
REMARK                            x       y       z     vdW  Elec       q    Type
REMARK                         _______ _______ _______ _____ _____    ______ ____
ROOT
ATOM      1  C   UNL     1      -0.562   1.231  -0.386  0.00  0.00    +0.046 C 
ATOM      2  C   UNL     1      -0.171  -0.217  -0.236  0.00  0.00    -0.017 A 
ATOM      3  C   UNL     1      -0.496  -1.136  -1.234  0.00  0.00    +0.042 A 
ATOM      4  C   UNL     1      -0.130  -2.475  -1.088  0.00  0.00    +0.013 A 
ATOM      5  C   UNL     1       0.551  -2.886   0.040  0.00  0.00    +0.003 A 
ATOM      6  C   UNL     1       0.873  -1.974   1.028  0.00  0.00    +0.023 A 
ATOM      7  C   UNL     1       0.518  -0.638   0.890  0.00  0.00    +0.038 A 
ENDROOT
BRANCH   3   8
ATOM      8  C   UNL     1      -1.226  -0.694  -2.441  0.00  0.00    +0.247 C 
ATOM      9  O   UNL     1      -0.854   0.291  -3.049  0.00  0.00    -0.270 OA
ATOM     10  N   UNL     1      -2.302  -1.383  -2.868  0.00  0.00    -0.293 N 
ATOM     11  C   UNL     1      -2.843  -2.505  -2.084  0.00  0.00    +0.136 C 
ATOM     12  C   UNL     1      -4.351  -2.291  -1.912  0.00  0.00    +0.179 C 
ATOM     13  O   UNL     1      -4.944  -2.068  -3.194  0.00  0.00    -0.377 OA
ATOM     14  C   UNL     1      -4.474  -0.894  -3.860  0.00  0.00    +0.179 C 
ATOM     15  C   UNL     1      -2.975  -1.032  -4.129  0.00  0.00    +0.136 C 
ENDBRANCH   3   8
BRANCH   7  16
ATOM     16  N   UNL     1       0.852   0.282   1.891  0.00  0.00    -0.269 N 
ATOM     17  C   UNL     1       1.107  -0.147   3.143  0.00  0.00    +0.304 C 
ATOM     18  O   UNL     1       0.937  -1.316   3.431  0.00  0.00    -0.253 OA
ATOM     19  N   UNL     1       1.550   0.720   4.075  0.00  0.00    -0.296 N 
ATOM     20  H   UNL     1       0.900   1.228   1.683  0.00  0.00    +0.156 HD
ATOM     21  H   UNL     1       1.686   1.652   3.845  0.00  0.00    +0.151 HD
BRANCH  19  22
ATOM     22  C   UNL     1       1.827   0.253   5.436  0.00  0.00    +0.075 C 
ATOM     23  C   UNL     1       3.246  -0.316   5.501  0.00  0.00    +0.028 C 
BRANCH  22  24
ATOM     24  C   UNL     1       1.702   1.425   6.412  0.00  0.00    +0.012 C 
ATOM     25  C   UNL     1       0.222   1.844   6.563  0.00  0.00    +0.009 C 
ATOM     26  C   UNL     1      -0.099   1.621   8.073  0.00  0.00    -0.010 C 
ATOM     27  C   UNL     1      -0.108   0.071   8.245  0.00  0.00    +0.004 C 
ATOM     28  C   UNL     1       1.372  -0.348   8.093  0.00  0.00    +0.004 C 
ATOM     29  C   UNL     1       2.136   0.988   7.844  0.00  0.00    -0.006 C 
ATOM     30  C   UNL     1       1.287   1.976   8.719  0.00  0.00    +0.007 C 
ENDBRANCH  22  24
ENDBRANCH  19  22
ENDBRANCH   7  16
TORSDOF 4
