REMARK  Name = ZINC39024734
REMARK  9 active torsions:
REMARK  status: ('A' for Active; 'I' for Inactive)
REMARK    1  A    between atoms: C_1  and  C_2
REMARK    2  A    between atoms: C_2  and  C_3
REMARK    3  A    between atoms: C_2  and  C_4
REMARK    4  A    between atoms: C_4  and  C_6
REMARK    5  A    between atoms: C_4  and  N_15
REMARK    6  A    between atoms: C_16  and  C_18
REMARK    7  A    between atoms: C_18  and  S_19
REMARK    8  A    between atoms: S_19  and  C_20
REMARK    9  A    between atoms: N_25  and  C_26
REMARK                            x       y       z     vdW  Elec       q    Type
REMARK                         _______ _______ _______ _____ _____    ______ ____
ROOT
ATOM      1  N   UNL     1      -2.142  -0.048  -1.174  0.00  0.00    -0.305 N 
ATOM      2  C   UNL     1      -2.727   1.166  -1.160  0.00  0.00    +0.224 C 
ATOM      3  O   UNL     1      -2.667   1.857  -0.165  0.00  0.00    -0.275 OA
ATOM      4  H   UNL     1      -2.190  -0.601  -1.970  0.00  0.00    +0.149 HD
ENDROOT
BRANCH   1   5
ATOM      5  C   UNL     1      -1.433  -0.534   0.013  0.00  0.00    +0.141 C 
BRANCH   5   6
ATOM      6  C   UNL     1      -1.413  -2.041   0.005  0.00  0.00    +0.129 A 
ATOM      7  N   UNL     1      -0.799  -2.773  -0.879  0.00  0.00    -0.231 NA
ATOM      8  C   UNL     1      -0.984  -4.087  -0.591  0.00  0.00    +0.089 A 
ATOM      9  C   UNL     1      -0.559  -5.274  -1.192  0.00  0.00    +0.030 A 
ATOM     10  C   UNL     1      -0.918  -6.477  -0.651  0.00  0.00    +0.002 A 
ATOM     11  C   UNL     1      -1.702  -6.534   0.491  0.00  0.00    +0.002 A 
ATOM     12  C   UNL     1      -2.134  -5.375   1.101  0.00  0.00    +0.028 A 
ATOM     13  C   UNL     1      -1.779  -4.144   0.567  0.00  0.00    +0.066 A 
ATOM     14  N   UNL     1      -2.029  -2.833   0.923  0.00  0.00    -0.340 N 
ATOM     15  H   UNL     1      -2.549  -2.533   1.685  0.00  0.00    +0.167 HD
ENDBRANCH   5   6
BRANCH   5  17
ATOM     16  C   UNL     1      -0.019   1.526   0.010  0.00  0.00    +0.009 C 
ATOM     17  C   UNL     1       0.002  -0.004   0.002  0.00  0.00    +0.011 C 
ATOM     18  C   UNL     1       0.742  -0.511   1.242  0.00  0.00    +0.009 C 
ENDBRANCH   5  17
ENDBRANCH   1   5
BRANCH   2  19
ATOM     19  C   UNL     1      -3.456   1.665  -2.381  0.00  0.00    +0.168 C 
BRANCH  19  20
ATOM     20  S   UNL     1      -4.128   3.317  -2.050  0.00  0.00    -0.103 S 
BRANCH  20  21
ATOM     21  C   UNL     1      -4.963   3.768  -3.596  0.00  0.00    +0.294 C 
ATOM     22  N   UNL     1      -4.021   3.715  -4.721  0.00  0.00    -0.135 NA
ATOM     23  N   UNL     1      -4.403   2.881  -5.542  0.00  0.00    -0.066 NA
ATOM     24  N   UNL     1      -5.590   2.251  -5.167  0.00  0.00    -0.164 N 
ATOM     25  N   UNL     1      -6.003   2.777  -3.927  0.00  0.00    -0.199 N 
ATOM     26  H   UNL     1      -6.054   1.566  -5.675  0.00  0.00    +0.195 HD
BRANCH  25  27
ATOM     27  C   UNL     1      -7.136   2.438  -3.180  0.00  0.00    +0.087 A 
ATOM     28  C   UNL     1      -8.037   3.422  -2.797  0.00  0.00    +0.028 A 
ATOM     29  C   UNL     1      -9.155   3.083  -2.059  0.00  0.00    +0.002 A 
ATOM     30  C   UNL     1      -9.378   1.766  -1.702  0.00  0.00    +0.003 A 
ATOM     31  C   UNL     1      -8.483   0.782  -2.081  0.00  0.00    +0.040 A 
ATOM     32  C   UNL     1      -7.365   1.113  -2.824  0.00  0.00    +0.146 A 
ATOM     33  F   UNL     1      -6.494   0.151  -3.200  0.00  0.00    -0.203 F 
ENDBRANCH  25  27
ENDBRANCH  20  21
ENDBRANCH  19  20
ENDBRANCH   2  19
TORSDOF 7
