REMARK  Name = ZINC36608535
REMARK  9 active torsions:
REMARK  status: ('A' for Active; 'I' for Inactive)
REMARK    1  A    between atoms: C_4  and  N_7
REMARK    2  A    between atoms: N_7  and  C_8
REMARK    3  A    between atoms: C_8  and  C_10
REMARK    4  A    between atoms: C_8  and  C_19
REMARK    5  A    between atoms: C_11  and  O_18
REMARK    6  A    between atoms: C_13  and  O_17
REMARK    7  A    between atoms: C_15  and  O_16
REMARK    8  A    between atoms: N_21  and  C_22
REMARK    9  A    between atoms: C_28  and  C_30
REMARK                            x       y       z     vdW  Elec       q    Type
REMARK                         _______ _______ _______ _____ _____    ______ ____
ROOT
ATOM      1  C   UNL     1       4.015  -2.195  -0.479  0.00  0.00    +0.205 C 
ENDROOT
BRANCH   1   2
ATOM      2  C   UNL     1       5.098  -2.192   0.570  0.00  0.00    +0.065 A 
ATOM      3  C   UNL     1       6.310  -2.815   0.317  0.00  0.00    +0.129 A 
ATOM      4  C   UNL     1       7.306  -2.812   1.282  0.00  0.00    +0.091 A 
ATOM      5  C   UNL     1       7.090  -2.185   2.499  0.00  0.00    +0.124 A 
ATOM      6  C   UNL     1       5.878  -1.560   2.752  0.00  0.00    +0.091 A 
ATOM      7  C   UNL     1       4.883  -1.560   1.786  0.00  0.00    +0.129 A 
BRANCH   7   8
ATOM      8  O   UNL     1       3.697  -0.944   2.031  0.00  0.00    -0.506 OA
ATOM      9  H   UNL     1       3.033  -1.518   2.437  0.00  0.00    +0.292 HD
ENDBRANCH   7   8
BRANCH   5  10
ATOM     10  O   UNL     1       8.066  -2.183   3.445  0.00  0.00    -0.507 OA
ATOM     11  H   UNL     1       8.668  -1.428   3.388  0.00  0.00    +0.292 HD
ENDBRANCH   5  10
BRANCH   3  12
ATOM     12  O   UNL     1       6.522  -3.430  -0.877  0.00  0.00    -0.506 OA
ATOM     13  H   UNL     1       6.981  -2.880  -1.526  0.00  0.00    +0.292 HD
ENDBRANCH   3  12
ENDBRANCH   1   2
BRANCH   1  14
ATOM     14  C   UNL     1       4.601  -2.607  -1.804  0.00  0.00    +0.239 C 
ATOM     15  O   UNL     1       4.986  -1.763  -2.586  0.00  0.00    -0.273 OA
ATOM     16  N   UNL     1       4.699  -3.913  -2.122  0.00  0.00    -0.311 N 
ATOM     17  H   UNL     1       4.329  -4.585  -1.528  0.00  0.00    +0.149 HD
BRANCH  16  18
ATOM     18  C   UNL     1       5.362  -4.319  -3.363  0.00  0.00    +0.073 C 
ATOM     19  C   UNL     1       4.360  -4.263  -4.518  0.00  0.00    +0.022 C 
ATOM     20  C   UNL     1       5.053  -4.686  -5.815  0.00  0.00    +0.002 C 
ATOM     21  C   UNL     1       5.583  -6.114  -5.668  0.00  0.00    +0.000 C 
ATOM     22  C   UNL     1       6.585  -6.169  -4.513  0.00  0.00    +0.002 C 
ATOM     23  C   UNL     1       5.892  -5.746  -3.216  0.00  0.00    +0.022 C 
ENDBRANCH  16  18
ENDBRANCH   1  14
BRANCH   1  24
ATOM     24  N   UNL     1       3.443  -0.851  -0.594  0.00  0.00    -0.249 N 
ATOM     25  C   UNL     1       2.132  -0.654  -0.352  0.00  0.00    +0.287 C 
ATOM     26  O   UNL     1       1.631   0.435  -0.563  0.00  0.00    -0.266 OA
BRANCH  24  30
ATOM     27  C   UNL     1       5.868   2.359  -1.672  0.00  0.00    +0.000 A 
ATOM     28  C   UNL     1       4.500   2.533  -1.565  0.00  0.00    +0.002 A 
ATOM     29  C   UNL     1       3.693   1.470  -1.209  0.00  0.00    +0.023 A 
ATOM     30  C   UNL     1       4.257   0.226  -0.956  0.00  0.00    +0.038 A 
ATOM     31  C   UNL     1       5.631   0.055  -1.064  0.00  0.00    +0.023 A 
ATOM     32  C   UNL     1       6.433   1.122  -1.421  0.00  0.00    +0.002 A 
ENDBRANCH  24  30
BRANCH  25  33
ATOM     33  C   UNL     1       1.309  -1.751   0.167  0.00  0.00    +0.190 A 
ATOM     34  C   UNL     1      -0.050  -1.743   0.296  0.00  0.00    +0.054 A 
ATOM     35  C   UNL     1      -0.412  -2.990   0.829  0.00  0.00    +0.042 A 
ATOM     36  C   UNL     1       0.727  -3.696   0.999  0.00  0.00    +0.196 A 
ATOM     37  O   UNL     1       1.762  -2.948   0.594  0.00  0.00    -0.458 OA
ENDBRANCH  25  33
ENDBRANCH   1  24
TORSDOF 9
