REMARK  Name = ZINC35778058
REMARK  17 active torsions:
REMARK  status: ('A' for Active; 'I' for Inactive)
REMARK    1  A    between atoms: C_1  and  C_2
REMARK    2  A    between atoms: C_2  and  C_3
REMARK    3  A    between atoms: C_3  and  N_4
REMARK    4  A    between atoms: N_4  and  C_5
REMARK    5  A    between atoms: N_4  and  C_26
REMARK    6  A    between atoms: C_5  and  C_6
REMARK    7  A    between atoms: C_7  and  C_25
REMARK    8  A    between atoms: N_9  and  C_19
REMARK    9  A    between atoms: C_10  and  O_11
REMARK   10  A    between atoms: O_11  and  C_12
REMARK   11  A    between atoms: C_16  and  C_18
REMARK   12  A    between atoms: C_26  and  C_27
REMARK   13  A    between atoms: C_27  and  C_29
REMARK   14  A    between atoms: C_27  and  O_38
REMARK   15  A    between atoms: C_29  and  O_30
REMARK   16  A    between atoms: O_30  and  C_31
REMARK   17  A    between atoms: C_36  and  C_37
REMARK                            x       y       z     vdW  Elec       q    Type
REMARK                         _______ _______ _______ _____ _____    ______ ____
ROOT
ATOM      1  C   UNL     1      -3.345  -1.809  -1.412  0.00  0.00    +0.021 A 
ATOM      2  C   UNL     1      -3.704  -0.460  -1.490  0.00  0.00    +0.065 A 
ATOM      3  N   UNL     1      -3.757  -0.118  -2.752  0.00  0.00    -0.168 NA
ATOM      4  N   UNL     1      -3.433  -1.238  -3.528  0.00  0.00    -0.200 N 
ATOM      5  C   UNL     1      -3.177  -2.270  -2.680  0.00  0.00    +0.225 A 
ATOM      6  C   UNL     1      -3.983   0.447  -0.319  0.00  0.00    +0.068 C 
ENDROOT
BRANCH   4   7
ATOM      7  C   UNL     1      -3.377  -1.286  -4.928  0.00  0.00    +0.069 A 
ATOM      8  C   UNL     1      -2.369  -2.002  -5.560  0.00  0.00    +0.028 A 
ATOM      9  C   UNL     1      -2.317  -2.047  -6.939  0.00  0.00    +0.002 A 
ATOM     10  C   UNL     1      -3.267  -1.380  -7.691  0.00  0.00    +0.000 A 
ATOM     11  C   UNL     1      -4.271  -0.666  -7.064  0.00  0.00    +0.002 A 
ATOM     12  C   UNL     1      -4.332  -0.622  -5.685  0.00  0.00    +0.028 A 
ENDBRANCH   4   7
BRANCH   1  13
ATOM     13  C   UNL     1      -3.169  -2.608  -0.146  0.00  0.00    -0.036 C 
BRANCH  13  14
ATOM     14  N   UNL     1      -1.742  -2.674   0.197  0.00  0.00    +0.384 N 
ATOM     15  H   UNL     1      -1.223  -3.034  -0.590  0.00  0.00    -0.081 HD
BRANCH  14  16
ATOM     16  C   UNL     1      -1.256  -1.328   0.529  0.00  0.00    -0.079 C 
BRANCH  16  18
ATOM     17  C   UNL     1      -1.510   0.600   2.098  0.00  0.00    +0.002 C 
ATOM     18  C   UNL     1      -1.940  -0.840   1.808  0.00  0.00    -0.022 C 
ENDBRANCH  16  18
ENDBRANCH  14  16
BRANCH  14  19
ATOM     19  C   UNL     1      -1.557  -3.561   1.353  0.00  0.00    -0.043 C 
BRANCH  19  20
ATOM     20  C   UNL     1      -0.062  -3.717   1.641  0.00  0.00    +0.135 C 
BRANCH  20  21
ATOM     21  O   UNL     1       0.586  -4.286   0.502  0.00  0.00    -0.390 OA
ATOM     22  H   UNL     1       0.250  -5.159   0.254  0.00  0.00    +0.210 HD
ENDBRANCH  20  21
BRANCH  20  23
ATOM     23  C   UNL     1       0.130  -4.636   2.849  0.00  0.00    +0.258 C 
BRANCH  23  24
ATOM     24  O   UNL     1       1.517  -4.689   3.191  0.00  0.00    -0.489 OA
BRANCH  24  25
ATOM     25  C   UNL     1       1.862  -5.468   4.250  0.00  0.00    +0.124 A 
ATOM     26  C   UNL     1       0.886  -6.170   4.943  0.00  0.00    +0.046 A 
ATOM     27  C   UNL     1       1.240  -6.961   6.019  0.00  0.00    +0.004 A 
ATOM     28  C   UNL     1       2.564  -7.053   6.406  0.00  0.00    +0.000 A 
ATOM     29  C   UNL     1       3.538  -6.354   5.717  0.00  0.00    +0.007 A 
ATOM     30  C   UNL     1       3.191  -5.566   4.637  0.00  0.00    -0.009 A 
ATOM     31  C   UNL     1       4.253  -4.809   3.882  0.00  0.00    +0.047 C 
ENDBRANCH  24  25
ENDBRANCH  23  24
ENDBRANCH  20  23
ENDBRANCH  19  20
ENDBRANCH  14  19
ENDBRANCH  13  14
ENDBRANCH   1  13
BRANCH   5  32
ATOM     32  O   UNL     1      -2.822  -3.531  -3.035  0.00  0.00    -0.438 OA
BRANCH  32  33
ATOM     33  C   UNL     1      -3.812  -4.413  -3.333  0.00  0.00    +0.131 A 
ATOM     34  C   UNL     1      -5.131  -3.986  -3.379  0.00  0.00    +0.046 A 
ATOM     35  C   UNL     1      -6.136  -4.885  -3.682  0.00  0.00    +0.004 A 
ATOM     36  C   UNL     1      -5.827  -6.208  -3.940  0.00  0.00    +0.003 A 
ATOM     37  C   UNL     1      -4.513  -6.635  -3.895  0.00  0.00    -0.047 A 
ATOM     38  C   UNL     1      -3.504  -5.740  -3.598  0.00  0.00    +0.049 A 
ATOM     39  C   UNL     1      -4.181  -8.078  -4.177  0.00  0.00    +0.044 C 
ENDBRANCH  32  33
ENDBRANCH   5  32
TORSDOF 13
