REMARK  Name = ZINC09358722
REMARK  3 active torsions:
REMARK  status: ('A' for Active; 'I' for Inactive)
REMARK    1  A    between atoms: C_1  and  C_2
REMARK    2  A    between atoms: N_20  and  C_23
REMARK    3  A    between atoms: C_26  and  N_30
REMARK                            x       y       z     vdW  Elec       q    Type
REMARK                         _______ _______ _______ _____ _____    ______ ____
ROOT
ATOM      1  C   UNL     1      -1.506  -0.528   0.324  0.00  0.00    +0.044 C 
ATOM      2  C   UNL     1      -0.223   0.253   0.201  0.00  0.00    -0.050 A 
ATOM      3  C   UNL     1       0.957  -0.398  -0.108  0.00  0.00    +0.005 A 
ATOM      4  C   UNL     1       2.134   0.312  -0.223  0.00  0.00    +0.024 A 
ATOM      5  C   UNL     1       2.143   1.691  -0.028  0.00  0.00    +0.036 A 
ATOM      6  C   UNL     1       0.949   2.335   0.283  0.00  0.00    -0.027 A 
ATOM      7  C   UNL     1      -0.224   1.623   0.397  0.00  0.00    +0.008 A 
ATOM      8  C   UNL     1       1.293   3.791   0.429  0.00  0.00    +0.053 C 
ATOM      9  C   UNL     1       0.948   4.311   1.830  0.00  0.00    +0.089 C 
ATOM     10  C   UNL     1      -0.417   5.032   1.657  0.00  0.00    +0.074 C 
ATOM     11  C   UNL     1      -0.769   4.876   0.166  0.00  0.00    -0.054 C 
ATOM     12  C   UNL     1       1.165   5.961  -0.630  0.00  0.00    -0.076 C 
ATOM     13  C   UNL     1       0.004   6.933  -0.924  0.00  0.00    -0.020 C 
ATOM     14  C   UNL     1      -1.281   6.222  -0.380  0.00  0.00    -0.016 C 
ATOM     15  C   UNL     1      -1.359   4.171   2.496  0.00  0.00    +0.228 C 
ATOM     16  O   UNL     1      -2.545   4.373   2.642  0.00  0.00    -0.275 OA
ATOM     17  N   UNL     1      -0.671   3.165   3.049  0.00  0.00    -0.209 N 
ATOM     18  C   UNL     1       0.631   3.147   2.742  0.00  0.00    +0.229 C 
ATOM     19  O   UNL     1       1.432   2.326   3.134  0.00  0.00    -0.275 OA
ATOM     20  C   UNL     1       2.773   3.870   0.167  0.00  0.00    +0.212 C 
ATOM     21  O   UNL     1       3.459   4.870   0.184  0.00  0.00    -0.277 OA
ATOM     22  N   UNL     1       3.189   2.615  -0.089  0.00  0.00    -0.286 N 
ATOM     23  H   UNL     1       4.107   2.379  -0.292  0.00  0.00    +0.155 HD
ATOM     24  N   UNL     1       0.510   4.652  -0.469  0.00  0.00    +0.395 N 
ATOM     25  H   UNL     1       0.391   4.200  -1.383  0.00  0.00    -0.079 HD
ENDROOT
BRANCH  17  26
ATOM     26  C   UNL     1      -1.267   2.207   3.882  0.00  0.00    +0.062 A 
ATOM     27  C   UNL     1      -1.683   0.991   3.357  0.00  0.00    +0.027 A 
ATOM     28  C   UNL     1      -2.265   0.048   4.182  0.00  0.00    +0.034 A 
ATOM     29  C   UNL     1      -2.443   0.317   5.526  0.00  0.00    +0.128 A 
ATOM     30  C   UNL     1      -2.035   1.529   6.051  0.00  0.00    +0.054 A 
ATOM     31  C   UNL     1      -1.448   2.476   5.233  0.00  0.00    +0.065 A 
ATOM     32 CL   UNL     1      -0.935   3.998   5.893  0.00  0.00    -0.082 Cl
BRANCH  29  33
ATOM     33  N   UNL     1      -3.072  -0.694   6.405  0.00  0.00    +0.056 N 
ATOM     34  O   UNL     1      -3.230  -0.458   7.590  0.00  0.00    -0.126 OA
ATOM     35  O   UNL     1      -3.432  -1.762   5.944  0.00  0.00    -0.126 OA
ENDBRANCH  29  33
ENDBRANCH  17  26
TORSDOF 2
