REMARK  Name = ZINC15066789
REMARK  11 active torsions:
REMARK  status: ('A' for Active; 'I' for Inactive)
REMARK    1  A    between atoms: C_1  and  C_2
REMARK    2  A    between atoms: C_2  and  C_3
REMARK    3  A    between atoms: C_3  and  C_5
REMARK    4  A    between atoms: C_3  and  C_6
REMARK    5  A    between atoms: N_8  and  C_9
REMARK    6  A    between atoms: C_9  and  C_10
REMARK    7  A    between atoms: C_19  and  C_20
REMARK    8  A    between atoms: C_19  and  N_67
REMARK    9  A    between atoms: C_23  and  N_26
REMARK   10  A    between atoms: N_26  and  C_27
REMARK   11  A    between atoms: N_26  and  C_28
REMARK                            x       y       z     vdW  Elec       q    Type
REMARK                         _______ _______ _______ _____ _____    ______ ____
ROOT
ATOM      1  C   UNL     1      -9.615  -1.650   5.070  0.00  0.00    +0.151 A 
ATOM      2  N   UNL     1      -9.215  -2.505   5.974  0.00  0.00    -0.133 NA
ATOM      3  N   UNL     1      -8.076  -2.999   5.632  0.00  0.00    -0.134 NA
ATOM      4  C   UNL     1      -7.704  -2.488   4.495  0.00  0.00    +0.132 A 
ATOM      5  N   UNL     1      -8.661  -1.605   4.116  0.00  0.00    -0.315 N 
ATOM      6  C   UNL     1      -8.631  -0.766   2.918  0.00  0.00    +0.106 C 
ATOM      7  C   UNL     1      -7.798  -1.461   1.837  0.00  0.00    -0.056 C 
ATOM      8  C   UNL     1      -5.821  -1.476   3.256  0.00  0.00    -0.071 C 
ATOM      9  C   UNL     1      -6.455  -2.794   3.710  0.00  0.00    +0.058 C 
ATOM     10  N   UNL     1      -6.369  -1.084   1.939  0.00  0.00    +0.384 N 
ATOM     11  H   UNL     1      -5.845  -1.573   1.204  0.00  0.00    -0.081 HD
ENDROOT
BRANCH   1  12
ATOM     12  C   UNL     1     -10.899  -0.862   5.090  0.00  0.00    +0.180 C 
BRANCH  12  15
ATOM     13  C   UNL     1     -11.696   1.287   5.918  0.00  0.00    +0.216 C 
ATOM     14  O   UNL     1     -12.791   1.019   5.473  0.00  0.00    -0.276 OA
ATOM     15  N   UNL     1     -10.680   0.412   5.779  0.00  0.00    -0.308 N 
ATOM     16  H   UNL     1      -9.803   0.626   6.136  0.00  0.00    +0.149 HD
BRANCH  13  17
ATOM     17  C   UNL     1     -11.470   2.597   6.627  0.00  0.00    +0.072 C 
ATOM     18  C   UNL     1     -11.015   2.328   8.063  0.00  0.00    +0.017 C 
BRANCH  17  20
ATOM     19  C   UNL     1     -12.516   4.778   7.255  0.00  0.00    +0.004 C 
ATOM     20  C   UNL     1     -12.774   3.397   6.647  0.00  0.00    +0.009 C 
ENDBRANCH  17  20
ENDBRANCH  13  17
ENDBRANCH  12  15
ENDBRANCH   1  12
BRANCH  10  21
ATOM     21  C   UNL     1      -6.218   0.370   1.746  0.00  0.00    -0.043 C 
BRANCH  21  22
ATOM     22  C   UNL     1      -4.751   0.685   1.604  0.00  0.00    -0.064 A 
ATOM     23  C   UNL     1      -4.157   0.656   0.356  0.00  0.00    +0.003 A 
ATOM     24  C   UNL     1      -2.813   0.945   0.223  0.00  0.00    +0.023 A 
ATOM     25  C   UNL     1      -2.058   1.265   1.345  0.00  0.00    +0.034 A 
ATOM     26  C   UNL     1      -2.657   1.288   2.598  0.00  0.00    +0.023 A 
ATOM     27  C   UNL     1      -4.003   1.004   2.723  0.00  0.00    +0.003 A 
BRANCH  25  28
ATOM     28  N   UNL     1      -0.698   1.558   1.213  0.00  0.00    -0.303 N 
ATOM     29  C   UNL     1      -0.093   1.647  -0.118  0.00  0.00    +0.135 C 
BRANCH  28  30
ATOM     30  C   UNL     1       0.084   1.766   2.352  0.00  0.00    +0.034 A 
ATOM     31  C   UNL     1       0.231   3.047   2.871  0.00  0.00    +0.023 A 
ATOM     32  C   UNL     1       1.001   3.248   4.000  0.00  0.00    +0.002 A 
ATOM     33  C   UNL     1       1.634   2.179   4.607  0.00  0.00    +0.000 A 
ATOM     34  C   UNL     1       1.495   0.904   4.089  0.00  0.00    +0.002 A 
ATOM     35  C   UNL     1       0.722   0.695   2.964  0.00  0.00    +0.023 A 
ENDBRANCH  28  30
ENDBRANCH  25  28
ENDBRANCH  21  22
ENDBRANCH  10  21
TORSDOF 8
