REMARK  Name = ZINC65751847
REMARK  4 active torsions:
REMARK  status: ('A' for Active; 'I' for Inactive)
REMARK    1  A    between atoms: C_1  and  C_2
REMARK    2  A    between atoms: C_2  and  C_3
REMARK    3  A    between atoms: C_2  and  N_11
REMARK    4  A    between atoms: N_14  and  C_15
REMARK                            x       y       z     vdW  Elec       q    Type
REMARK                         _______ _______ _______ _____ _____    ______ ____
ROOT
ATOM      1  N   UNL     1      -1.374  -0.506   0.012  0.00  0.00    -0.293 N 
ATOM      2  C   UNL     1      -2.027  -0.658   1.181  0.00  0.00    +0.304 C 
ATOM      3  O   UNL     1      -1.475  -0.377   2.227  0.00  0.00    -0.252 OA
ATOM      4  N   UNL     1      -3.293  -1.122   1.190  0.00  0.00    -0.269 N 
ATOM      5  H   UNL     1      -1.815  -0.730  -0.823  0.00  0.00    +0.151 HD
ATOM      6  H   UNL     1      -3.757  -1.283   0.354  0.00  0.00    +0.156 HD
ENDROOT
BRANCH   4   7
ATOM      7  C   UNL     1      -3.936  -1.369   2.403  0.00  0.00    +0.036 A 
ATOM      8  C   UNL     1      -3.691  -0.547   3.496  0.00  0.00    +0.024 A 
ATOM      9  C   UNL     1      -4.322  -0.782   4.703  0.00  0.00    +0.015 A 
ATOM     10  C   UNL     1      -5.206  -1.846   4.825  0.00  0.00    +0.049 A 
ATOM     11  C   UNL     1      -5.457  -2.683   3.717  0.00  0.00    +0.051 A 
ATOM     12  C   UNL     1      -4.825  -2.438   2.511  0.00  0.00    +0.037 A 
ATOM     13  C   UNL     1      -6.427  -3.695   4.187  0.00  0.00    +0.251 C 
ATOM     14  O   UNL     1      -6.891  -4.597   3.519  0.00  0.00    -0.270 OA
ATOM     15  N   UNL     1      -6.709  -3.448   5.479  0.00  0.00    -0.248 N 
ATOM     16  C   UNL     1      -6.031  -2.377   5.927  0.00  0.00    +0.251 C 
ATOM     17  O   UNL     1      -6.087  -1.922   7.052  0.00  0.00    -0.270 OA
ATOM     18  H   UNL     1      -7.322  -3.974   6.017  0.00  0.00    +0.158 HD
ENDBRANCH   4   7
BRANCH   1  20
ATOM     19  C   UNL     1      -0.016   1.527   0.022  0.00  0.00    +0.033 C 
ATOM     20  C   UNL     1       0.001  -0.002   0.001  0.00  0.00    +0.102 C 
BRANCH  20  21
ATOM     21  C   UNL     1       0.702  -0.480  -1.245  0.00  0.00    -0.026 A 
ATOM     22  C   UNL     1       0.028  -0.500  -2.452  0.00  0.00    +0.007 A 
ATOM     23  C   UNL     1       0.668  -0.938  -3.595  0.00  0.00    +0.022 A 
ATOM     24  C   UNL     1       1.986  -1.357  -3.532  0.00  0.00    +0.059 A 
ATOM     25  C   UNL     1       2.661  -1.336  -2.324  0.00  0.00    +0.060 A 
ATOM     26  C   UNL     1       2.019  -0.892  -1.181  0.00  0.00    +0.027 A 
ATOM     27 CL   UNL     1       4.313  -1.862  -2.243  0.00  0.00    -0.082 Cl
ATOM     28 CL   UNL     1       2.791  -1.907  -4.968  0.00  0.00    -0.082 Cl
ENDBRANCH  20  21
ENDBRANCH   1  20
TORSDOF 3
