REMARK  Name = ZINC18940841
REMARK  6 active torsions:
REMARK  status: ('A' for Active; 'I' for Inactive)
REMARK    1  A    between atoms: C_1  and  C_2
REMARK    2  A    between atoms: C_2  and  C_3
REMARK    3  A    between atoms: C_3  and  N_4
REMARK    4  A    between atoms: C_5  and  C_7
REMARK    5  A    between atoms: N_10  and  S_18
REMARK    6  A    between atoms: S_18  and  C_21
REMARK                            x       y       z     vdW  Elec       q    Type
REMARK                         _______ _______ _______ _____ _____    ______ ____
ROOT
ATOM      1  C   UNL     1      -1.683   1.062   3.494  0.00  0.00    +0.277 C 
ATOM      2  C   UNL     1      -1.857   0.967   1.971  0.00  0.00    +0.186 C 
ATOM      3  N   UNL     1      -0.872   1.871   1.353  0.00  0.00    -0.195 N 
ATOM      4  C   UNL     1      -0.678   3.129   1.946  0.00  0.00    +0.093 A 
ATOM      5  C   UNL     1       0.007   4.121   1.260  0.00  0.00    +0.028 A 
ATOM      6  C   UNL     1       0.194   5.359   1.846  0.00  0.00    +0.002 A 
ATOM      7  C   UNL     1      -0.306   5.610   3.111  0.00  0.00    +0.004 A 
ATOM      8  C   UNL     1      -0.996   4.626   3.795  0.00  0.00    +0.047 A 
ATOM      9  C   UNL     1      -1.189   3.382   3.215  0.00  0.00    +0.144 A 
ATOM     10  O   UNL     1      -1.871   2.422   3.895  0.00  0.00    -0.476 OA
ENDROOT
BRANCH   1  12
ATOM     11  N   UNL     1      -2.665  -1.148   4.013  0.00  0.00    -0.312 N 
ATOM     12  C   UNL     1      -2.706   0.189   4.175  0.00  0.00    +0.255 C 
ATOM     13  O   UNL     1      -3.565   0.690   4.868  0.00  0.00    -0.272 OA
ATOM     14  H   UNL     1      -1.977  -1.549   3.458  0.00  0.00    +0.149 HD
BRANCH  11  15
ATOM     15  C   UNL     1      -3.659  -1.997   4.674  0.00  0.00    +0.104 C 
BRANCH  15  17
ATOM     16  C   UNL     1      -4.427  -4.349   5.019  0.00  0.00    +0.005 C 
ATOM     17  C   UNL     1      -3.389  -3.463   4.328  0.00  0.00    +0.015 C 
ENDBRANCH  15  17
ENDBRANCH  11  15
ENDBRANCH   1  12
BRANCH   3  18
ATOM     18  S   UNL     1      -0.017   1.417   0.010  0.00  0.00    +0.075 S 
ATOM     19  O   UNL     1       0.002  -0.004   0.002  0.00  0.00    -0.150 OA
ATOM     20  O   UNL     1       1.172   2.195   0.003  0.00  0.00    -0.150 OA
BRANCH  18  21
ATOM     21  C   UNL     1      -0.954   1.915  -1.397  0.00  0.00    +0.110 A 
ATOM     22  C   UNL     1      -0.759   3.168  -1.948  0.00  0.00    +0.029 A 
ATOM     23  C   UNL     1      -1.493   3.560  -3.052  0.00  0.00    +0.003 A 
ATOM     24  C   UNL     1      -2.422   2.699  -3.605  0.00  0.00    +0.015 A 
ATOM     25  C   UNL     1      -2.618   1.446  -3.054  0.00  0.00    +0.020 A 
ATOM     26  C   UNL     1      -1.879   1.052  -1.952  0.00  0.00    +0.044 A 
ATOM     27 BR   UNL     1      -3.889   0.268  -3.810  0.00  0.00    -0.050 Br
ENDBRANCH  18  21
ENDBRANCH   3  18
TORSDOF 5
