REMARK  Name = ZINC39666489
REMARK  7 active torsions:
REMARK  status: ('A' for Active; 'I' for Inactive)
REMARK    1  A    between atoms: C_1  and  C_2
REMARK    2  A    between atoms: C_2  and  C_4
REMARK    3  A    between atoms: C_2  and  O_29
REMARK    4  A    between atoms: C_4  and  N_5
REMARK    5  A    between atoms: C_6  and  C_8
REMARK    6  A    between atoms: C_19  and  C_21
REMARK    7  A    between atoms: O_29  and  C_30
REMARK                            x       y       z     vdW  Elec       q    Type
REMARK                         _______ _______ _______ _____ _____    ______ ____
ROOT
ATOM      1  C   UNL     1       2.111  -4.663   2.768  0.00  0.00    +0.100 C 
ATOM      2  C   UNL     1       0.730  -5.215   2.350  0.00  0.00    +0.121 C 
ATOM      3  N   UNL     1       0.555  -6.443   3.161  0.00  0.00    -0.296 N 
ATOM      4  C   UNL     1       1.110  -6.089   4.489  0.00  0.00    +0.115 C 
ATOM      5  C   UNL     1       2.357  -5.239   4.173  0.00  0.00    -0.004 C 
ATOM      6  C   UNL     1       3.607  -6.114   4.174  0.00  0.00    -0.010 C 
ATOM      7  C   UNL     1       3.862  -6.628   5.594  0.00  0.00    -0.082 C 
ATOM      8  N   UNL     1       4.036  -5.490   6.505  0.00  0.00    +0.379 N 
ATOM      9  C   UNL     1       2.797  -4.706   6.569  0.00  0.00    -0.082 C 
ATOM     10  C   UNL     1       2.496  -4.110   5.190  0.00  0.00    -0.010 C 
ATOM     11  C   UNL     1       0.015  -7.616   2.777  0.00  0.00    +0.248 C 
ATOM     12  O   UNL     1      -0.139  -8.509   3.588  0.00  0.00    -0.270 OA
ATOM     13  H   UNL     1       4.265  -5.831   7.427  0.00  0.00    -0.086 HD
ATOM     14  H   UNL     1       4.787  -4.905   6.170  0.00  0.00    -0.086 HD
ENDROOT
BRANCH  11  15
ATOM     15  C   UNL     1      -0.392  -7.818   1.371  0.00  0.00    +0.057 A 
ATOM     16  C   UNL     1      -1.035  -6.794   0.673  0.00  0.00    +0.014 A 
ATOM     17  C   UNL     1      -1.412  -6.988  -0.639  0.00  0.00    +0.002 A 
ATOM     18  C   UNL     1      -1.154  -8.195  -1.266  0.00  0.00    +0.021 A 
ATOM     19  C   UNL     1      -0.518  -9.215  -0.582  0.00  0.00    +0.060 A 
ATOM     20  C   UNL     1      -0.129  -9.032   0.732  0.00  0.00    +0.071 A 
ATOM     21 CL   UNL     1       0.677 -10.310   1.588  0.00  0.00    -0.081 Cl
ATOM     22 CL   UNL     1      -0.201 -10.726  -1.377  0.00  0.00    -0.082 Cl
ENDBRANCH  11  15
BRANCH   1  24
ATOM     23  N   UNL     1       3.204  -2.453   2.566  0.00  0.00    -0.312 N 
ATOM     24  C   UNL     1       2.082  -3.157   2.816  0.00  0.00    +0.218 C 
ATOM     25  O   UNL     1       1.049  -2.579   3.079  0.00  0.00    -0.275 OA
ATOM     26  H   UNL     1       4.030  -2.916   2.356  0.00  0.00    +0.149 HD
BRANCH  23  27
ATOM     27  C   UNL     1       3.175  -0.989   2.613  0.00  0.00    +0.148 C 
BRANCH  27  29
ATOM     28  C   UNL     1       4.570   1.079   2.464  0.00  0.00    +0.053 C 
ATOM     29  C   UNL     1       4.568  -0.442   2.294  0.00  0.00    +0.187 C 
BRANCH  29  30
ATOM     30  O   UNL     1       4.912  -0.771   0.946  0.00  0.00    -0.486 OA
BRANCH  30  31
ATOM     31  C   UNL     1       6.236  -0.826   0.643  0.00  0.00    +0.139 A 
ATOM     32  C   UNL     1       7.184  -0.614   1.633  0.00  0.00    +0.047 A 
ATOM     33  C   UNL     1       8.530  -0.671   1.323  0.00  0.00    +0.004 A 
ATOM     34  C   UNL     1       8.931  -0.939   0.027  0.00  0.00    +0.002 A 
ATOM     35  C   UNL     1       7.988  -1.151  -0.962  0.00  0.00    +0.023 A 
ATOM     36  C   UNL     1       6.641  -1.101  -0.656  0.00  0.00    +0.083 A 
ATOM     37 CL   UNL     1       5.457  -1.373  -1.896  0.00  0.00    -0.080 Cl
ENDBRANCH  30  31
ENDBRANCH  29  30
ENDBRANCH  27  29
ENDBRANCH  23  27
ENDBRANCH   1  24
TORSDOF 6
