REMARK  Name = ZINC39631802
REMARK  14 active torsions:
REMARK  status: ('A' for Active; 'I' for Inactive)
REMARK    1  A    between atoms: C_1  and  C_2
REMARK    2  A    between atoms: C_2  and  C_4
REMARK    3  A    between atoms: C_2  and  N_11
REMARK    4  A    between atoms: C_4  and  C_5
REMARK    5  A    between atoms: C_5  and  C_6
REMARK    6  A    between atoms: C_6  and  C_7
REMARK    7  A    between atoms: C_7  and  C_8
REMARK    8  A    between atoms: C_7  and  C_9
REMARK    9  A    between atoms: C_7  and  O_10
REMARK   10  A    between atoms: C_12  and  C_14
REMARK   11  A    between atoms: C_25  and  C_27
REMARK   12  A    between atoms: C_30  and  O_37
REMARK   13  A    between atoms: C_31  and  C_33
REMARK   14  A    between atoms: O_37  and  C_38
REMARK                            x       y       z     vdW  Elec       q    Type
REMARK                         _______ _______ _______ _____ _____    ______ ____
ROOT
ATOM      1  C   UNL     1       2.652  -1.501  -1.916  0.00  0.00    +0.100 C 
ATOM      2  C   UNL     1       2.325  -2.886  -2.518  0.00  0.00    +0.121 C 
ATOM      3  N   UNL     1       3.616  -3.375  -3.057  0.00  0.00    -0.296 N 
ATOM      4  C   UNL     1       4.619  -2.954  -2.049  0.00  0.00    +0.115 C 
ATOM      5  C   UNL     1       4.158  -1.550  -1.609  0.00  0.00    -0.004 C 
ATOM      6  C   UNL     1       4.399  -1.362  -0.114  0.00  0.00    -0.010 C 
ATOM      7  C   UNL     1       5.906  -1.356   0.159  0.00  0.00    -0.082 C 
ATOM      8  N   UNL     1       6.538  -0.270  -0.600  0.00  0.00    +0.379 N 
ATOM      9  C   UNL     1       6.382  -0.508  -2.040  0.00  0.00    -0.082 C 
ATOM     10  C   UNL     1       4.896  -0.479  -2.406  0.00  0.00    -0.010 C 
ATOM     11  C   UNL     1       3.830  -4.049  -4.204  0.00  0.00    +0.247 C 
ATOM     12  O   UNL     1       2.920  -4.210  -4.994  0.00  0.00    -0.270 OA
ATOM     13  H   UNL     1       6.103   0.607  -0.356  0.00  0.00    -0.086 HD
ATOM     14  H   UNL     1       7.520  -0.229  -0.372  0.00  0.00    -0.086 HD
ENDROOT
BRANCH  11  15
ATOM     15  C   UNL     1       5.170  -4.592  -4.501  0.00  0.00    +0.038 A 
ATOM     16  C   UNL     1       6.085  -4.806  -3.467  0.00  0.00    +0.016 A 
ATOM     17  C   UNL     1       7.334  -5.313  -3.748  0.00  0.00    +0.047 A 
ATOM     18  C   UNL     1       7.685  -5.613  -5.060  0.00  0.00    +0.132 A 
ATOM     19  C   UNL     1       6.778  -5.402  -6.091  0.00  0.00    +0.097 A 
ATOM     20  C   UNL     1       5.525  -4.900  -5.817  0.00  0.00    +0.029 A 
BRANCH  19  21
ATOM     21  C   UNL     1       7.164  -5.728  -7.511  0.00  0.00    +0.421 C 
ATOM     22  F   UNL     1       6.095  -5.434  -8.364  0.00  0.00    -0.166 F 
ATOM     23  F   UNL     1       8.277  -4.966  -7.878  0.00  0.00    -0.166 F 
ATOM     24  F   UNL     1       7.477  -7.088  -7.608  0.00  0.00    -0.166 F 
ENDBRANCH  19  21
BRANCH  18  25
ATOM     25  O   UNL     1       8.917  -6.112  -5.333  0.00  0.00    -0.495 OA
ATOM     26  C   UNL     1       9.800  -6.304  -4.226  0.00  0.00    +0.277 C 
ENDBRANCH  18  25
ENDBRANCH  11  15
BRANCH   1  28
ATOM     27  N   UNL     1       1.502  -0.033  -0.291  0.00  0.00    -0.312 N 
ATOM     28  C   UNL     1       1.865  -1.280  -0.650  0.00  0.00    +0.218 C 
ATOM     29  O   UNL     1       1.559  -2.225   0.046  0.00  0.00    -0.275 OA
ATOM     30  H   UNL     1       1.748   0.723  -0.848  0.00  0.00    +0.149 HD
BRANCH  27  32
ATOM     31  C   UNL     1       1.698   0.278   2.127  0.00  0.00    +0.028 C 
ATOM     32  C   UNL     1       0.737   0.182   0.940  0.00  0.00    +0.070 C 
BRANCH  32  33
ATOM     33  C   UNL     1      -0.061   1.482   0.824  0.00  0.00    +0.022 C 
BRANCH  33  34
ATOM     34  C   UNL     1      -1.107   1.340  -0.284  0.00  0.00    +0.005 C 
BRANCH  34  35
ATOM     35  C   UNL     1      -1.906   2.640  -0.400  0.00  0.00    +0.034 C 
BRANCH  35  36
ATOM     36  C   UNL     1      -2.952   2.499  -1.508  0.00  0.00    +0.061 C 
ATOM     37  C   UNL     1      -3.666   3.837  -1.709  0.00  0.00    +0.041 C 
ATOM     38  C   UNL     1      -2.263   2.088  -2.810  0.00  0.00    +0.041 C 
BRANCH  36  39
ATOM     39  O   UNL     1      -3.906   1.501  -1.137  0.00  0.00    -0.389 OA
ATOM     40  H   UNL     1      -4.601   1.358  -1.794  0.00  0.00    +0.210 HD
ENDBRANCH  36  39
ENDBRANCH  35  36
ENDBRANCH  34  35
ENDBRANCH  33  34
ENDBRANCH  32  33
ENDBRANCH  27  32
ENDBRANCH   1  28
TORSDOF 10
