REMARK  Name = ZINC39942312
REMARK  6 active torsions:
REMARK  status: ('A' for Active; 'I' for Inactive)
REMARK    1  A    between atoms: C_4  and  N_7
REMARK    2  A    between atoms: C_13  and  C_15
REMARK    3  A    between atoms: C_15  and  S_16
REMARK    4  A    between atoms: S_16  and  C_17
REMARK    5  A    between atoms: C_21  and  C_26
REMARK    6  A    between atoms: N_22  and  C_23
REMARK                            x       y       z     vdW  Elec       q    Type
REMARK                         _______ _______ _______ _____ _____    ______ ____
ROOT
ATOM      1  C   UNL     1       8.701  -6.507   1.363  0.00  0.00    +0.237 C 
ATOM      2  N   UNL     1       7.868  -6.828   2.534  0.00  0.00    -0.237 N 
ATOM      3  N   UNL     1       6.634  -7.264   2.037  0.00  0.00    -0.169 NA
ATOM      4  C   UNL     1       6.616  -7.247   0.730  0.00  0.00    +0.147 C 
ATOM      5  N   UNL     1       7.836  -6.800   0.208  0.00  0.00    -0.282 N 
ATOM      6  H   UNL     1       8.124  -6.752   3.466  0.00  0.00    +0.171 HD
ENDROOT
BRANCH   4   7
ATOM      7  C   UNL     1       5.516  -7.631  -0.051  0.00  0.00    +0.022 C 
ATOM      8  C   UNL     1       4.241  -7.976   0.400  0.00  0.00    +0.006 A 
ATOM      9  C   UNL     1       3.673  -8.049   1.689  0.00  0.00    +0.010 A 
ATOM     10  C   UNL     1       2.376  -8.423   1.834  0.00  0.00    +0.001 A 
ATOM     11  C   UNL     1       1.579  -8.740   0.732  0.00  0.00    +0.002 A 
ATOM     12  C   UNL     1       2.058  -8.691  -0.535  0.00  0.00    +0.026 A 
ATOM     13  C   UNL     1       3.405  -8.309  -0.766  0.00  0.00    +0.043 A 
ATOM     14  N   UNL     1       4.098  -8.185  -1.881  0.00  0.00    -0.380 N 
ATOM     15  C   UNL     1       5.461  -7.751  -1.558  0.00  0.00    +0.152 C 
ATOM     16  H   UNL     1       3.759  -8.351  -2.774  0.00  0.00    +0.160 HD
ENDBRANCH   4   7
BRANCH   5  17
ATOM     17  C   UNL     1       8.185  -6.652  -1.207  0.00  0.00    +0.078 C 
ATOM     18  C   UNL     1       9.609  -6.202  -1.540  0.00  0.00    +0.024 C 
ATOM     19  C   UNL     1       8.438  -5.236  -1.728  0.00  0.00    +0.024 C 
ENDBRANCH   5  17
BRANCH   1  20
ATOM     20  S   UNL     1       9.168  -4.755   1.377  0.00  0.00    -0.109 S 
BRANCH  20  21
ATOM     21  C   UNL     1       7.581  -3.878   1.431  0.00  0.00    +0.168 C 
BRANCH  21  28
ATOM     22  N   UNL     1       4.861   0.044   0.363  0.00  0.00    -0.327 N 
ATOM     23  C   UNL     1       6.242   0.546   0.336  0.00  0.00    +0.124 C 
ATOM     24  C   UNL     1       7.015  -0.083   1.502  0.00  0.00    +0.126 C 
ATOM     25  N   UNL     1       6.788  -1.535   1.486  0.00  0.00    -0.298 N 
ATOM     26  C   UNL     1       5.407  -2.037   1.513  0.00  0.00    +0.126 C 
ATOM     27  C   UNL     1       4.634  -1.408   0.353  0.00  0.00    +0.124 C 
ATOM     28  C   UNL     1       7.829  -2.391   1.447  0.00  0.00    +0.226 C 
ATOM     29  O   UNL     1       8.964  -1.965   1.424  0.00  0.00    -0.275 OA
BRANCH  22  33
ATOM     30  C   UNL     1       1.647   2.689   0.485  0.00  0.00    +0.000 A 
ATOM     31  C   UNL     1       1.419   1.332   0.351  0.00  0.00    +0.002 A 
ATOM     32  C   UNL     1       2.482   0.452   0.310  0.00  0.00    +0.023 A 
ATOM     33  C   UNL     1       3.783   0.931   0.404  0.00  0.00    +0.030 A 
ATOM     34  C   UNL     1       4.008   2.295   0.539  0.00  0.00    +0.023 A 
ATOM     35  C   UNL     1       2.940   3.170   0.580  0.00  0.00    +0.002 A 
ENDBRANCH  22  33
ENDBRANCH  21  28
ENDBRANCH  20  21
ENDBRANCH   1  20
TORSDOF 6
