REMARK  Name = ZINC13464920
REMARK  7 active torsions:
REMARK  status: ('A' for Active; 'I' for Inactive)
REMARK    1  A    between atoms: C_1  and  C_2
REMARK    2  A    between atoms: C_14  and  C_24
REMARK    3  A    between atoms: N_16  and  C_17
REMARK    4  A    between atoms: C_17  and  C_18
REMARK    5  A    between atoms: N_26  and  C_27
REMARK    6  A    between atoms: C_27  and  C_29
REMARK    7  A    between atoms: C_27  and  C_30
REMARK                            x       y       z     vdW  Elec       q    Type
REMARK                         _______ _______ _______ _____ _____    ______ ____
ROOT
ATOM      1  C   UNL     1      -1.234   3.905  -0.033  0.00  0.00    +0.047 C 
ATOM      2  C   UNL     1      -0.627   2.526  -0.069  0.00  0.00    -0.007 A 
ATOM      3  C   UNL     1       0.727   2.372  -0.102  0.00  0.00    +0.008 A 
ATOM      4  C   UNL     1       1.276   1.083  -0.134  0.00  0.00    +0.019 A 
ATOM      5  C   UNL     1       0.466   0.001  -0.133  0.00  0.00    +0.096 A 
ATOM      6  N   UNL     1      -0.889   0.144  -0.101  0.00  0.00    -0.267 N 
ATOM      7  C   UNL     1      -1.455   1.388  -0.064  0.00  0.00    +0.145 A 
ATOM      8  N   UNL     1      -2.778   1.551  -0.026  0.00  0.00    -0.211 NA
ATOM      9  C   UNL     1      -3.608   0.515  -0.019  0.00  0.00    +0.150 A 
ATOM     10  C   UNL     1      -3.079  -0.795  -0.052  0.00  0.00    +0.083 A 
ATOM     11  C   UNL     1      -1.670  -0.959  -0.101  0.00  0.00    +0.268 A 
ATOM     12  O   UNL     1      -1.174  -2.072  -0.129  0.00  0.00    -0.267 OA
ATOM     13  C   UNL     1      -3.927  -1.911  -0.046  0.00  0.00    +0.033 A 
ATOM     14  C   UNL     1      -5.302  -1.722  -0.007  0.00  0.00    +0.078 A 
ATOM     15  C   UNL     1      -5.834  -0.351   0.027  0.00  0.00    +0.119 A 
ATOM     16  N   UNL     1      -4.965   0.719   0.019  0.00  0.00    -0.307 N 
ATOM     17  H   UNL     1      -7.814  -0.835   0.146  0.00  0.00    +0.157 HD
ATOM     18  N   UNL     1      -7.136  -0.078   0.059  0.00  0.00    -0.384 N 
ATOM     19  H   UNL     1      -7.459   0.895  -0.005  0.00  0.00    +0.157 HD
ENDROOT
BRANCH  14  20
ATOM     20  C   UNL     1      -6.212  -2.874   0.001  0.00  0.00    +0.248 C 
ATOM     21  O   UNL     1      -7.408  -2.703   0.140  0.00  0.00    -0.270 OA
ATOM     22  N   UNL     1      -5.721  -4.120  -0.147  0.00  0.00    -0.305 N 
ATOM     23  H   UNL     1      -4.767  -4.257  -0.258  0.00  0.00    +0.150 HD
BRANCH  22  24
ATOM     24  C   UNL     1      -6.629  -5.270  -0.139  0.00  0.00    +0.100 C 
ATOM     25  C   UNL     1      -7.193  -5.484  -1.545  0.00  0.00    +0.033 C 
BRANCH  24  26
ATOM     26  C   UNL     1      -5.876  -6.502   0.293  0.00  0.00    -0.027 A 
ATOM     27  C   UNL     1      -4.588  -6.719  -0.160  0.00  0.00    +0.005 A 
ATOM     28  C   UNL     1      -3.896  -7.847   0.240  0.00  0.00    +0.000 A 
ATOM     29  C   UNL     1      -4.495  -8.763   1.084  0.00  0.00    +0.000 A 
ATOM     30  C   UNL     1      -5.785  -8.548   1.532  0.00  0.00    +0.000 A 
ATOM     31  C   UNL     1      -6.476  -7.418   1.136  0.00  0.00    +0.005 A 
ENDBRANCH  24  26
ENDBRANCH  22  24
ENDBRANCH  14  20
BRANCH  16  32
ATOM     32  C   UNL     1      -5.494   2.085   0.051  0.00  0.00    +0.161 C 
BRANCH  32  33
ATOM     33  C   UNL     1      -5.713   2.573  -1.358  0.00  0.00    -0.010 A 
ATOM     34  C   UNL     1      -6.929   2.368  -1.991  0.00  0.00    +0.008 A 
ATOM     35  C   UNL     1      -7.085   2.833  -3.288  0.00  0.00    +0.020 A 
ATOM     36  C   UNL     1      -6.030   3.483  -3.901  0.00  0.00    +0.111 A 
ATOM     37  N   UNL     1      -4.887   3.660  -3.268  0.00  0.00    -0.263 NA
ATOM     38  C   UNL     1      -4.705   3.235  -2.033  0.00  0.00    +0.116 A 
ENDBRANCH  32  33
ENDBRANCH  16  32
TORSDOF 5
