REMARK  Name = ZINC20108237
REMARK  12 active torsions:
REMARK  status: ('A' for Active; 'I' for Inactive)
REMARK    1  A    between atoms: C_1  and  C_2
REMARK    2  A    between atoms: C_2  and  O_3
REMARK    3  A    between atoms: O_3  and  C_4
REMARK    4  A    between atoms: C_4  and  C_6
REMARK    5  A    between atoms: N_9  and  C_12
REMARK    6  A    between atoms: C_12  and  C_14
REMARK    7  A    between atoms: C_12  and  C_26
REMARK    8  A    between atoms: C_19  and  N_20
REMARK    9  A    between atoms: N_28  and  C_29
REMARK   10  A    between atoms: C_32  and  C_35
REMARK   11  A    between atoms: C_35  and  C_36
REMARK   12  A    between atoms: C_35  and  C_37
REMARK                            x       y       z     vdW  Elec       q    Type
REMARK                         _______ _______ _______ _____ _____    ______ ____
ROOT
ATOM      1  C   UNL     1       0.037   1.968   2.860  0.00  0.00    +0.053 C 
ENDROOT
BRANCH   1   2
ATOM      2  C   UNL     1      -0.524   2.257   4.229  0.00  0.00    -0.018 A 
ATOM      3  C   UNL     1      -1.464   3.257   4.392  0.00  0.00    +0.054 A 
ATOM      4  C   UNL     1      -1.984   3.522   5.649  0.00  0.00    +0.167 A 
ATOM      5  C   UNL     1      -1.548   2.784   6.748  0.00  0.00    +0.168 A 
ATOM      6  C   UNL     1      -0.603   1.787   6.577  0.00  0.00    +0.082 A 
ATOM      7  C   UNL     1      -0.092   1.525   5.319  0.00  0.00    +0.132 A 
ATOM      8  O   UNL     1      -2.199   3.234   7.860  0.00  0.00    -0.453 OA
ATOM      9  C   UNL     1      -3.332   3.974   7.370  0.00  0.00    +0.466 C 
ATOM     10  O   UNL     1      -2.906   4.434   6.073  0.00  0.00    -0.453 OA
BRANCH   7  11
ATOM     11  N   UNL     1       0.919   0.459   5.140  0.00  0.00    +0.057 N 
ATOM     12  O   UNL     1       1.389  -0.104   6.112  0.00  0.00    -0.126 OA
ATOM     13  O   UNL     1       1.280   0.144   4.020  0.00  0.00    -0.126 OA
ENDBRANCH   7  11
ENDBRANCH   1   2
BRANCH   1  17
ATOM     14  C   UNL     1      -2.829   1.427  -0.267  0.00  0.00    +0.094 C 
ATOM     15  C   UNL     1      -1.569   2.255  -0.534  0.00  0.00    -0.004 C 
ATOM     16  C   UNL     1      -0.500   1.896   0.500  0.00  0.00    -0.077 C 
ATOM     17  N   UNL     1      -1.011   2.169   1.850  0.00  0.00    +0.390 N 
ATOM     18  C   UNL     1      -2.192   1.350   2.146  0.00  0.00    -0.077 C 
ATOM     19  C   UNL     1      -3.312   1.693   1.161  0.00  0.00    -0.004 C 
ATOM     20  H   UNL     1      -1.318   3.225   1.885  0.00  0.00    -0.080 HD
BRANCH  14  21
ATOM     21  C   UNL     1      -3.906   1.818  -1.246  0.00  0.00    +0.310 C 
ATOM     22  O   UNL     1      -3.689   2.672  -2.072  0.00  0.00    -0.251 OA
BRANCH  21  23
ATOM     23  O   UNL     1      -5.105   1.217  -1.199  0.00  0.00    -0.465 OA
BRANCH  23  25
ATOM     24  C   UNL     1      -7.388   0.854  -1.965  0.00  0.00    +0.048 C 
ATOM     25  C   UNL     1      -6.095   1.644  -2.172  0.00  0.00    +0.229 C 
ENDBRANCH  23  25
ENDBRANCH  21  23
ENDBRANCH  14  21
ENDBRANCH   1  17
BRANCH   1  26
ATOM     26  C   UNL     1       1.189   2.898   2.582  0.00  0.00    +0.208 C 
ATOM     27  O   UNL     1       1.049   3.823   1.810  0.00  0.00    -0.277 OA
ATOM     28  N   UNL     1       2.375   2.703   3.192  0.00  0.00    -0.287 N 
ATOM     29  H   UNL     1       2.526   1.820   3.830  0.00  0.00    +0.155 HD
BRANCH  28  30
ATOM     30  C   UNL     1       3.413   3.623   3.013  0.00  0.00    +0.033 A 
ATOM     31  C   UNL     1       3.592   4.241   1.782  0.00  0.00    +0.023 A 
ATOM     32  C   UNL     1       4.614   5.154   1.610  0.00  0.00    +0.006 A 
ATOM     33  C   UNL     1       5.467   5.444   2.659  0.00  0.00    -0.045 A 
ATOM     34  C   UNL     1       5.295   4.827   3.885  0.00  0.00    +0.006 A 
ATOM     35  C   UNL     1       4.271   3.918   4.064  0.00  0.00    +0.023 A 
BRANCH  33  36
ATOM     36  C   UNL     1       6.585   6.436   2.466  0.00  0.00    +0.013 C 
ATOM     37  C   UNL     1       7.517   5.945   1.357  0.00  0.00    +0.012 C 
ATOM     38  C   UNL     1       6.000   7.795   2.077  0.00  0.00    +0.012 C 
ENDBRANCH  33  36
ENDBRANCH  28  30
ENDBRANCH   1  26
TORSDOF 9
