REMARK  Name = ZINC35641359
REMARK  14 active torsions:
REMARK  status: ('A' for Active; 'I' for Inactive)
REMARK    1  A    between atoms: C_1  and  C_2
REMARK    2  A    between atoms: C_2  and  O_3
REMARK    3  A    between atoms: O_3  and  C_4
REMARK    4  A    between atoms: C_4  and  C_6
REMARK    5  A    between atoms: C_7  and  C_24
REMARK    6  A    between atoms: N_8  and  C_23
REMARK    7  A    between atoms: C_12  and  C_14
REMARK    8  A    between atoms: C_17  and  C_20
REMARK    9  A    between atoms: C_20  and  C_21
REMARK   10  A    between atoms: C_20  and  C_22
REMARK   11  A    between atoms: C_24  and  N_25
REMARK   12  A    between atoms: N_25  and  C_26
REMARK   13  A    between atoms: N_25  and  C_27
REMARK   14  A    between atoms: N_30  and  C_33
REMARK                            x       y       z     vdW  Elec       q    Type
REMARK                         _______ _______ _______ _____ _____    ______ ____
ROOT
ATOM      1  C   UNL     1      -2.309  -2.884   0.294  0.00  0.00    +0.080 C 
ATOM      2  C   UNL     1      -2.732  -4.134   0.008  0.00  0.00    +0.041 C 
ATOM      3  N   UNL     1      -4.012  -4.367  -0.406  0.00  0.00    -0.260 N 
ATOM      4  C   UNL     1      -4.930  -3.404  -0.558  0.00  0.00    +0.307 C 
ATOM      5  O   UNL     1      -6.046  -3.710  -0.932  0.00  0.00    -0.252 OA
ATOM      6  N   UNL     1      -4.658  -2.108  -0.311  0.00  0.00    -0.288 N 
ATOM      7  C   UNL     1      -3.304  -1.751   0.147  0.00  0.00    +0.144 C 
ATOM      8  C   UNL     1      -4.403  -5.748  -0.700  0.00  0.00    +0.139 C 
ATOM      9  H   UNL     1      -5.338  -1.426  -0.428  0.00  0.00    +0.151 HD
ENDROOT
BRANCH   7  10
ATOM     10  C   UNL     1      -3.427  -1.063   1.482  0.00  0.00    -0.022 A 
ATOM     11  C   UNL     1      -4.216  -1.615   2.474  0.00  0.00    +0.006 A 
ATOM     12  C   UNL     1      -4.328  -0.984   3.699  0.00  0.00    +0.004 A 
ATOM     13  C   UNL     1      -3.651   0.198   3.932  0.00  0.00    -0.045 A 
ATOM     14  C   UNL     1      -2.861   0.749   2.941  0.00  0.00    +0.004 A 
ATOM     15  C   UNL     1      -2.745   0.116   1.718  0.00  0.00    +0.006 A 
BRANCH  13  16
ATOM     16  C   UNL     1      -3.774   0.886   5.267  0.00  0.00    +0.013 C 
ATOM     17  C   UNL     1      -2.392   0.995   5.915  0.00  0.00    +0.012 C 
ATOM     18  C   UNL     1      -4.355   2.287   5.067  0.00  0.00    +0.012 C 
ENDBRANCH  13  16
ENDBRANCH   7  10
BRANCH   1  19
ATOM     19  C   UNL     1      -0.983  -2.641   0.723  0.00  0.00    +0.339 C 
ATOM     20  O   UNL     1      -0.240  -3.574   0.962  0.00  0.00    -0.245 OA
BRANCH  19  21
ATOM     21  O   UNL     1      -0.542  -1.374   0.867  0.00  0.00    -0.462 OA
BRANCH  21  23
ATOM     22  C   UNL     1       1.125   0.291   1.408  0.00  0.00    +0.048 C 
ATOM     23  C   UNL     1       0.808  -1.202   1.304  0.00  0.00    +0.229 C 
ENDBRANCH  21  23
ENDBRANCH  19  21
ENDBRANCH   1  19
BRANCH   2  24
ATOM     24  C   UNL     1      -1.775  -5.290   0.146  0.00  0.00    +0.136 C 
BRANCH  24  25
ATOM     25  N   UNL     1      -1.730  -5.723   1.549  0.00  0.00    -0.297 NA
ATOM     26  C   UNL     1      -3.018  -6.293   1.965  0.00  0.00    +0.105 C 
BRANCH  25  27
ATOM     27  C   UNL     1      -0.636  -6.678   1.770  0.00  0.00    +0.053 C 
ATOM     28  C   UNL     1      -0.912  -7.964   0.986  0.00  0.00    +0.000 C 
ATOM     29  C   UNL     1       0.190  -8.983   1.284  0.00  0.00    -0.078 C 
ATOM     30  N   UNL     1       0.213  -9.279   2.721  0.00  0.00    +0.378 N 
ATOM     31  C   UNL     1       0.548  -8.065   3.475  0.00  0.00    -0.078 C 
ATOM     32  C   UNL     1      -0.540  -7.011   3.262  0.00  0.00    +0.000 C 
ATOM     33  C   UNL     1       1.220 -10.315   2.991  0.00  0.00    -0.096 C 
ATOM     34  H   UNL     1      -0.695  -9.613   3.009  0.00  0.00    -0.082 HD
ENDBRANCH  25  27
ENDBRANCH  24  25
ENDBRANCH   2  24
TORSDOF 8
