REMARK  Name = ZINC57991765
REMARK  8 active torsions:
REMARK  status: ('A' for Active; 'I' for Inactive)
REMARK    1  A    between atoms: C_1  and  C_2
REMARK    2  A    between atoms: C_3  and  C_24
REMARK    3  A    between atoms: C_5  and  C_7
REMARK    4  A    between atoms: C_7  and  N_8
REMARK    5  A    between atoms: N_8  and  C_9
REMARK    6  A    between atoms: C_10  and  C_12
REMARK    7  A    between atoms: C_24  and  O_26
REMARK    8  A    between atoms: O_26  and  C_27
REMARK                            x       y       z     vdW  Elec       q    Type
REMARK                         _______ _______ _______ _____ _____    ______ ____
ROOT
ATOM      1  N   UNL     1       2.000  -3.610  -1.519  0.00  0.00    -0.292 N 
ATOM      2  C   UNL     1       3.099  -2.925  -2.204  0.00  0.00    +0.133 C 
ATOM      3  C   UNL     1       1.460  -4.722  -2.057  0.00  0.00    +0.263 C 
ATOM      4  O   UNL     1       0.475  -5.226  -1.550  0.00  0.00    -0.268 OA
ENDROOT
BRANCH   3   5
ATOM      5  C   UNL     1       2.061  -5.326  -3.254  0.00  0.00    +0.103 A 
ATOM      6  C   UNL     1       1.522  -6.341  -3.980  0.00  0.00    +0.043 A 
ATOM      7  C   UNL     1       2.407  -6.626  -5.046  0.00  0.00    +0.036 A 
ATOM      8  C   UNL     1       3.495  -5.739  -4.927  0.00  0.00    +0.051 A 
ATOM      9  N   UNL     1       3.261  -4.948  -3.827  0.00  0.00    -0.350 N 
ATOM     10  H   UNL     1       3.843  -4.242  -3.504  0.00  0.00    +0.166 HD
ATOM     11  C   UNL     1       4.531  -5.795  -5.854  0.00  0.00    +0.041 A 
ATOM     12  C   UNL     1       4.488  -6.713  -6.881  0.00  0.00    +0.023 A 
ATOM     13  C   UNL     1       3.417  -7.590  -7.003  0.00  0.00    +0.054 A 
ATOM     14  C   UNL     1       2.380  -7.555  -6.098  0.00  0.00    +0.134 A 
ATOM     15  F   UNL     1       1.342  -8.411  -6.221  0.00  0.00    -0.205 F 
ATOM     16 BR   UNL     1       5.901  -6.781  -8.136  0.00  0.00    -0.050 Br
ENDBRANCH   3   5
BRANCH   1  17
ATOM     17  C   UNL     1       1.488  -3.087  -0.251  0.00  0.00    +0.182 C 
BRANCH  17  22
ATOM     18  C   UNL     1      -0.870   1.272  -1.179  0.00  0.00    +0.087 C 
ATOM     19  C   UNL     1      -0.653  -0.199  -0.930  0.00  0.00    +0.116 A 
ATOM     20  C   UNL     1      -1.626  -1.155  -0.892  0.00  0.00    +0.100 A 
ATOM     21  C   UNL     1      -0.928  -2.420  -0.622  0.00  0.00    +0.061 A 
ATOM     22  C   UNL     1       0.374  -2.109  -0.524  0.00  0.00    +0.123 A 
ATOM     23  O   UNL     1       0.526  -0.789  -0.713  0.00  0.00    -0.462 OA
BRANCH  20  24
ATOM     24  C   UNL     1      -3.073  -0.960  -1.083  0.00  0.00    +0.342 C 
ATOM     25  O   UNL     1      -3.513   0.152  -1.301  0.00  0.00    -0.245 OA
BRANCH  24  26
ATOM     26  O   UNL     1      -3.910  -2.014  -1.015  0.00  0.00    -0.464 OA
ATOM     27  C   UNL     1      -5.301  -1.752  -1.210  0.00  0.00    +0.280 C 
ENDBRANCH  24  26
ENDBRANCH  20  24
ENDBRANCH  17  22
ENDBRANCH   1  17
TORSDOF 5
