REMARK  Name = ZINC40341193
REMARK  14 active torsions:
REMARK  status: ('A' for Active; 'I' for Inactive)
REMARK    1  A    between atoms: C_1  and  C_2
REMARK    2  A    between atoms: C_2  and  O_3
REMARK    3  A    between atoms: O_3  and  C_4
REMARK    4  A    between atoms: C_7  and  C_13
REMARK    5  A    between atoms: C_9  and  O_10
REMARK    6  A    between atoms: O_10  and  C_11
REMARK    7  A    between atoms: C_11  and  C_12
REMARK    8  A    between atoms: C_16  and  C_34
REMARK    9  A    between atoms: N_23  and  C_24
REMARK   10  A    between atoms: C_24  and  C_25
REMARK   11  A    between atoms: C_25  and  C_26
REMARK   12  A    between atoms: C_29  and  O_32
REMARK   13  A    between atoms: O_32  and  C_33
REMARK   14  A    between atoms: C_37  and  C_40
REMARK                            x       y       z     vdW  Elec       q    Type
REMARK                         _______ _______ _______ _____ _____    ______ ____
ROOT
ATOM      1  C   UNL     1       1.107  -6.044  -1.844  0.00  0.00    +0.141 C 
ATOM      2  C   UNL     1      -0.199  -6.611  -2.329  0.00  0.00    +0.035 A 
ATOM      3  C   UNL     1      -1.177  -6.630  -3.329  0.00  0.00    +0.099 A 
ATOM      4  N   UNL     1      -2.106  -7.489  -2.956  0.00  0.00    -0.173 NA
ATOM      5  N   UNL     1      -1.811  -8.013  -1.820  0.00  0.00    -0.272 N 
ATOM      6  H   UNL     1      -2.350  -8.671  -1.353  0.00  0.00    +0.189 HD
ATOM      7  C   UNL     1      -0.625  -7.507  -1.368  0.00  0.00    +0.126 A 
ATOM      8  C   UNL     1       0.363  -7.534  -0.284  0.00  0.00    +0.265 C 
ATOM      9  O   UNL     1       0.280  -8.224   0.714  0.00  0.00    -0.268 OA
ATOM     10  N   UNL     1       1.375  -6.687  -0.551  0.00  0.00    -0.285 N 
ENDROOT
BRANCH   3  11
ATOM     11  C   UNL     1      -1.171  -5.830  -4.579  0.00  0.00    +0.002 A 
ATOM     12  C   UNL     1      -0.644  -4.541  -4.582  0.00  0.00    +0.010 A 
ATOM     13  C   UNL     1      -0.641  -3.802  -5.748  0.00  0.00    +0.004 A 
ATOM     14  C   UNL     1      -1.160  -4.340  -6.912  0.00  0.00    -0.050 A 
ATOM     15  C   UNL     1      -1.685  -5.619  -6.915  0.00  0.00    +0.004 A 
ATOM     16  C   UNL     1      -1.688  -6.369  -5.756  0.00  0.00    +0.010 A 
ATOM     17  C   UNL     1      -1.153  -3.528  -8.182  0.00  0.00    +0.044 C 
ENDBRANCH   3  11
BRANCH   1  21
ATOM     18  C   UNL     1       0.777  -1.811  -1.336  0.00  0.00    +0.162 A 
ATOM     19  C   UNL     1       0.243  -2.669  -0.388  0.00  0.00    +0.050 A 
ATOM     20  C   UNL     1       0.352  -4.037  -0.555  0.00  0.00    +0.009 A 
ATOM     21  C   UNL     1       0.992  -4.552  -1.667  0.00  0.00    -0.019 A 
ATOM     22  C   UNL     1       1.526  -3.702  -2.616  0.00  0.00    +0.055 A 
ATOM     23  C   UNL     1       1.416  -2.330  -2.458  0.00  0.00    +0.162 A 
BRANCH  18  24
ATOM     24  O   UNL     1       0.671  -0.465  -1.174  0.00  0.00    -0.489 OA
BRANCH  24  26
ATOM     25  C   UNL     1      -0.019   1.526   0.010  0.00  0.00    +0.048 C 
ATOM     26  C   UNL     1       0.002  -0.004   0.002  0.00  0.00    +0.226 C 
ENDBRANCH  24  26
ENDBRANCH  18  24
BRANCH  23  27
ATOM     27  O   UNL     1       1.936  -1.492  -3.394  0.00  0.00    -0.489 OA
BRANCH  27  28
ATOM     28  C   UNL     1       2.578  -2.095  -4.520  0.00  0.00    +0.226 C 
ATOM     29  C   UNL     1       3.096  -1.002  -5.457  0.00  0.00    +0.048 C 
ENDBRANCH  27  28
ENDBRANCH  23  27
ENDBRANCH   1  21
BRANCH  10  30
ATOM     30  C   UNL     1       2.543  -6.448   0.301  0.00  0.00    +0.114 C 
BRANCH  30  31
ATOM     31  C   UNL     1       2.241  -5.305   1.272  0.00  0.00    +0.054 C 
BRANCH  31  32
ATOM     32  C   UNL     1       3.442  -5.058   2.147  0.00  0.00    -0.046 A 
ATOM     33  C   UNL     1       3.575  -5.739   3.344  0.00  0.00    +0.007 A 
ATOM     34  C   UNL     1       4.675  -5.514   4.149  0.00  0.00    +0.046 A 
ATOM     35  C   UNL     1       5.647  -4.606   3.756  0.00  0.00    +0.120 A 
ATOM     36  C   UNL     1       5.512  -3.925   2.554  0.00  0.00    +0.046 A 
ATOM     37  C   UNL     1       4.412  -4.157   1.751  0.00  0.00    +0.007 A 
BRANCH  35  38
ATOM     38  O   UNL     1       6.730  -4.383   4.546  0.00  0.00    -0.495 OA
ATOM     39  C   UNL     1       7.691  -3.434   4.078  0.00  0.00    +0.277 C 
ENDBRANCH  35  38
ENDBRANCH  31  32
ENDBRANCH  30  31
ENDBRANCH  10  30
TORSDOF 10
