REMARK  Name = ZINC35471509
REMARK  8 active torsions:
REMARK  status: ('A' for Active; 'I' for Inactive)
REMARK    1  A    between atoms: C_1  and  O_2
REMARK    2  A    between atoms: O_2  and  C_3
REMARK    3  A    between atoms: C_3  and  C_4
REMARK    4  A    between atoms: C_4  and  N_5
REMARK    5  A    between atoms: N_5  and  C_6
REMARK    6  A    between atoms: C_6  and  C_7
REMARK    7  A    between atoms: C_17  and  C_19
REMARK    8  A    between atoms: N_28  and  C_29
REMARK                            x       y       z     vdW  Elec       q    Type
REMARK                         _______ _______ _______ _____ _____    ______ ____
ROOT
ATOM      1  N   UNL     1      -0.347  -2.973   0.796  0.00  0.00    -0.275 N 
ATOM      2  C   UNL     1       0.982  -3.197   0.784  0.00  0.00    +0.303 C 
ATOM      3  O   UNL     1       1.551  -3.532   1.804  0.00  0.00    -0.253 OA
ATOM      4  N   UNL     1       1.679  -3.050  -0.360  0.00  0.00    -0.294 N 
ATOM      5  H   UNL     1       1.224  -2.783  -1.174  0.00  0.00    +0.151 HD
ENDROOT
BRANCH   4   6
ATOM      6  C   UNL     1       3.123  -3.295  -0.374  0.00  0.00    +0.037 C 
ATOM      7  C   UNL     1       3.811  -2.339   0.604  0.00  0.00    +0.029 C 
ATOM      8  C   UNL     1       5.320  -2.594   0.589  0.00  0.00    -0.008 C 
ATOM      9  C   UNL     1       5.863  -2.359  -0.822  0.00  0.00    +0.007 C 
ATOM     10  C   UNL     1       5.176  -3.314  -1.799  0.00  0.00    -0.008 C 
ATOM     11  C   UNL     1       3.667  -3.059  -1.785  0.00  0.00    +0.029 C 
ATOM     12  C   UNL     1       5.452  -4.759  -1.380  0.00  0.00    +0.007 C 
ATOM     13  C   UNL     1       4.909  -4.995   0.030  0.00  0.00    -0.008 C 
ATOM     14  C   UNL     1       5.597  -4.040   1.008  0.00  0.00    +0.007 C 
ATOM     15  C   UNL     1       3.400  -4.740   0.045  0.00  0.00    +0.029 C 
ENDBRANCH   4   6
BRANCH   1  16
ATOM     16  C   UNL     1      -1.034  -2.569  -0.433  0.00  0.00    +0.138 C 
BRANCH  16  17
ATOM     17  C   UNL     1      -1.036  -1.043  -0.539  0.00  0.00    +0.178 C 
BRANCH  17  19
ATOM     18  C   UNL     1       0.417   0.847  -0.791  0.00  0.00    +0.194 C 
ATOM     19  O   UNL     1       0.307  -0.574  -0.684  0.00  0.00    -0.381 OA
ENDBRANCH  17  19
ENDBRANCH  16  17
ENDBRANCH   1  16
BRANCH   1  20
ATOM     20  C   UNL     1      -1.105  -3.132   2.040  0.00  0.00    +0.205 C 
BRANCH  20  21
ATOM     21  C   UNL     1      -1.599  -4.552   2.148  0.00  0.00    +0.234 C 
ATOM     22  O   UNL     1      -1.343  -5.352   1.273  0.00  0.00    -0.274 OA
ATOM     23  N   UNL     1      -2.325  -4.933   3.218  0.00  0.00    -0.286 N 
ATOM     24  C   UNL     1      -2.654  -3.980   4.288  0.00  0.00    +0.130 C 
ATOM     25  C   UNL     1      -4.172  -3.780   4.340  0.00  0.00    +0.140 C 
ATOM     26  N   UNL     1      -4.834  -5.088   4.281  0.00  0.00    -0.347 N 
ATOM     27  C   UNL     1      -6.112  -5.374   4.648  0.00  0.00    +0.086 A 
ATOM     28  C   UNL     1      -6.331  -6.688   4.428  0.00  0.00    +0.019 A 
ATOM     29  C   UNL     1      -5.140  -7.234   3.908  0.00  0.00    +0.025 A 
ATOM     30  C   UNL     1      -4.244  -6.238   3.832  0.00  0.00    +0.044 A 
ATOM     31  C   UNL     1      -2.819  -6.317   3.346  0.00  0.00    +0.153 C 
BRANCH  31  32
ATOM     32  C   UNL     1      -1.981  -7.071   4.346  0.00  0.00    -0.021 A 
ATOM     33  C   UNL     1      -1.237  -8.164   3.939  0.00  0.00    +0.008 A 
ATOM     34  C   UNL     1      -0.468  -8.856   4.854  0.00  0.00    +0.038 A 
ATOM     35  C   UNL     1      -0.441  -8.456   6.179  0.00  0.00    +0.123 A 
ATOM     36  C   UNL     1      -1.187  -7.362   6.586  0.00  0.00    +0.038 A 
ATOM     37  C   UNL     1      -1.951  -6.668   5.668  0.00  0.00    +0.008 A 
ATOM     38  F   UNL     1       0.310  -9.132   7.075  0.00  0.00    -0.205 F 
ENDBRANCH  31  32
ENDBRANCH  20  21
ENDBRANCH   1  20
TORSDOF 7
