REMARK  Name = ZINC48705017
REMARK  9 active torsions:
REMARK  status: ('A' for Active; 'I' for Inactive)
REMARK    1  A    between atoms: C_1  and  C_2
REMARK    2  A    between atoms: C_2  and  N_3
REMARK    3  A    between atoms: N_3  and  C_4
REMARK    4  A    between atoms: C_10  and  C_12
REMARK    5  A    between atoms: C_12  and  C_14
REMARK    6  A    between atoms: C_12  and  S_15
REMARK    7  A    between atoms: S_15  and  C_18
REMARK    8  A    between atoms: C_18  and  C_19
REMARK    9  A    between atoms: C_21  and  C_24
REMARK                            x       y       z     vdW  Elec       q    Type
REMARK                         _______ _______ _______ _____ _____    ______ ____
ROOT
ATOM      1  S   UNL     1      -2.386  -1.608   3.788  0.00  0.00    -0.011 S 
ATOM      2  O   UNL     1      -3.782  -1.341   3.775  0.00  0.00    -0.173 OA
ATOM      3  O   UNL     1      -1.937  -2.944   3.607  0.00  0.00    -0.173 OA
ENDROOT
BRANCH   1   4
ATOM      4  C   UNL     1      -1.589  -0.561   2.540  0.00  0.00    +0.213 C 
ATOM      5  C   UNL     1      -1.850   0.911   2.868  0.00  0.00    +0.042 C 
BRANCH   4   7
ATOM      6  N   UNL     1      -1.470  -0.545   0.069  0.00  0.00    -0.297 N 
ATOM      7  C   UNL     1      -2.155  -0.880   1.180  0.00  0.00    +0.240 C 
ATOM      8  O   UNL     1      -3.228  -1.439   1.086  0.00  0.00    -0.274 OA
BRANCH   6   9
ATOM      9  C   UNL     1      -0.130   0.036   0.183  0.00  0.00    +0.076 C 
ATOM     10  C   UNL     1      -0.120   1.425  -0.459  0.00  0.00    +0.022 C 
ATOM     11  C   UNL     1       1.280   2.031  -0.340  0.00  0.00    +0.002 C 
ATOM     12  C   UNL     1       2.288   1.131  -1.058  0.00  0.00    +0.000 C 
ATOM     13  C   UNL     1       2.278  -0.258  -0.416  0.00  0.00    +0.002 C 
ATOM     14  C   UNL     1       0.878  -0.864  -0.535  0.00  0.00    +0.022 C 
ENDBRANCH   6   9
BRANCH   6  16
ATOM     15  C   UNL     1      -1.815  -2.203  -1.695  0.00  0.00    +0.024 C 
ATOM     16  C   UNL     1      -2.066  -0.760  -1.252  0.00  0.00    +0.105 C 
ENDBRANCH   6  16
ENDBRANCH   4   7
ENDBRANCH   1   4
BRANCH   1  17
ATOM     17  C   UNL     1      -1.696  -0.976   5.342  0.00  0.00    +0.265 C 
BRANCH  17  18
ATOM     18  C   UNL     1      -2.267  -1.755   6.499  0.00  0.00    +0.249 A 
ATOM     19  N   UNL     1      -1.756  -2.836   7.013  0.00  0.00    -0.187 NA
ATOM     20  C   UNL     1      -2.523  -3.268   8.033  0.00  0.00    +0.237 A 
ATOM     21  N   UNL     1      -3.538  -2.447   8.169  0.00  0.00    -0.053 NA
ATOM     22  O   UNL     1      -3.382  -1.447   7.174  0.00  0.00    -0.336 OA
BRANCH  20  23
ATOM     23  C   UNL     1      -2.265  -4.465   8.860  0.00  0.00    +0.175 A 
ATOM     24  C   UNL     1      -3.038  -4.908   9.886  0.00  0.00    +0.053 A 
ATOM     25  C   UNL     1      -2.422  -6.072  10.386  0.00  0.00    +0.042 A 
ATOM     26  C   UNL     1      -1.314  -6.280   9.647  0.00  0.00    +0.196 A 
ATOM     27  O   UNL     1      -1.225  -5.311   8.723  0.00  0.00    -0.460 OA
ENDBRANCH  20  23
ENDBRANCH  17  18
ENDBRANCH   1  17
TORSDOF 7
