REMARK  Name = ZINC03354513
REMARK  4 active torsions:
REMARK  status: ('A' for Active; 'I' for Inactive)
REMARK    1  A    between atoms: C_3  and  C_23
REMARK    2  A    between atoms: C_5  and  C_11
REMARK    3  A    between atoms: C_14  and  C_16
REMARK    4  A    between atoms: N_25  and  C_26
REMARK                            x       y       z     vdW  Elec       q    Type
REMARK                         _______ _______ _______ _____ _____    ______ ____
ROOT
ATOM      1  C   UNL     1      -2.460   0.944  -0.226  0.00  0.00    +0.029 C 
ATOM      2  C   UNL     1      -1.310   1.523   0.061  0.00  0.00    +0.019 C 
ATOM      3  C   UNL     1      -1.230   2.997   0.415  0.00  0.00    +0.146 C 
ATOM      4  C   UNL     1      -0.107   3.612  -0.430  0.00  0.00    +0.158 C 
ATOM      5  N   UNL     1       1.098   2.792  -0.311  0.00  0.00    -0.288 N 
ATOM      6  C   UNL     1       1.049   1.467  -0.119  0.00  0.00    +0.304 C 
ATOM      7  O   UNL     1       2.091   0.840  -0.101  0.00  0.00    -0.252 OA
ATOM      8  N   UNL     1      -0.109   0.805   0.055  0.00  0.00    -0.273 N 
ATOM      9  H   UNL     1       1.964   3.224  -0.373  0.00  0.00    +0.151 HD
ATOM     10  H   UNL     1      -0.112  -0.158   0.170  0.00  0.00    +0.156 HD
ENDROOT
BRANCH   4  11
ATOM     11  C   UNL     1      -0.537   3.667  -1.873  0.00  0.00    +0.127 A 
ATOM     12  C   UNL     1      -1.010   4.755  -2.511  0.00  0.00    +0.047 A 
ATOM     13  C   UNL     1      -1.288   4.368  -3.838  0.00  0.00    +0.050 A 
ATOM     14  C   UNL     1      -0.966   3.051  -3.937  0.00  0.00    +0.135 A 
ATOM     15  O   UNL     1      -0.506   2.641  -2.739  0.00  0.00    -0.458 OA
BRANCH  14  16
ATOM     16  C   UNL     1      -1.091   2.217  -5.150  0.00  0.00    +0.017 A 
ATOM     17  C   UNL     1      -1.584   2.770  -6.333  0.00  0.00    +0.014 A 
ATOM     18  C   UNL     1      -1.694   1.988  -7.464  0.00  0.00    +0.039 A 
ATOM     19  C   UNL     1      -1.327   0.652  -7.424  0.00  0.00    +0.123 A 
ATOM     20  C   UNL     1      -0.842   0.096  -6.251  0.00  0.00    +0.039 A 
ATOM     21  C   UNL     1      -0.722   0.871  -5.116  0.00  0.00    +0.014 A 
ATOM     22  F   UNL     1      -1.442  -0.111  -8.533  0.00  0.00    -0.205 F 
ENDBRANCH  14  16
ENDBRANCH   4  11
BRANCH   3  23
ATOM     23  C   UNL     1      -2.539   3.671   0.095  0.00  0.00    +0.228 C 
ATOM     24  O   UNL     1      -2.578   4.560  -0.730  0.00  0.00    -0.275 OA
ATOM     25  N   UNL     1      -3.667   3.286   0.724  0.00  0.00    -0.285 N 
ATOM     26  H   UNL     1      -3.651   2.526   1.327  0.00  0.00    +0.155 HD
BRANCH  25  27
ATOM     27  C   UNL     1      -4.861   3.983   0.508  0.00  0.00    +0.033 A 
ATOM     28  C   UNL     1      -4.836   5.352   0.276  0.00  0.00    +0.023 A 
ATOM     29  C   UNL     1      -6.016   6.036   0.058  0.00  0.00    +0.002 A 
ATOM     30  C   UNL     1      -7.223   5.361   0.082  0.00  0.00    +0.000 A 
ATOM     31  C   UNL     1      -7.252   3.999   0.318  0.00  0.00    +0.002 A 
ATOM     32  C   UNL     1      -6.075   3.308   0.531  0.00  0.00    +0.023 A 
ENDBRANCH  25  27
ENDBRANCH   3  23
TORSDOF 4
