REMARK  Name = ZINC06282218
REMARK  10 active torsions:
REMARK  status: ('A' for Active; 'I' for Inactive)
REMARK    1  A    between atoms: C_1  and  C_2
REMARK    2  A    between atoms: C_7  and  C_14
REMARK    3  A    between atoms: C_14  and  C_16
REMARK    4  A    between atoms: C_14  and  N_67
REMARK    5  A    between atoms: N_20  and  C_21
REMARK    6  A    between atoms: C_21  and  C_22
REMARK    7  A    between atoms: C_21  and  C_23
REMARK    8  A    between atoms: C_21  and  C_24
REMARK    9  A    between atoms: N_27  and  C_30
REMARK   10  A    between atoms: C_33  and  N_36
REMARK                            x       y       z     vdW  Elec       q    Type
REMARK                         _______ _______ _______ _____ _____    ______ ____
ROOT
ATOM      1  C   UNL     1      -5.070   1.004   0.088  0.00  0.00    +0.039 C 
ENDROOT
BRANCH   1   8
ATOM      2  C   UNL     1       1.807   4.955   0.938  0.00  0.00    +0.044 C 
ATOM      3  C   UNL     1       0.641   4.017   0.763  0.00  0.00    -0.048 A 
ATOM      4  C   UNL     1       0.870   2.656   0.619  0.00  0.00    +0.004 A 
ATOM      5  C   UNL     1      -0.173   1.788   0.459  0.00  0.00    +0.010 A 
ATOM      6  C   UNL     1      -1.484   2.277   0.436  0.00  0.00    -0.001 A 
ATOM      7  C   UNL     1      -2.625   1.375   0.271  0.00  0.00    +0.017 A 
ATOM      8  C   UNL     1      -3.873   1.905   0.260  0.00  0.00    +0.011 A 
ATOM      9  C   UNL     1      -4.056   3.296   0.410  0.00  0.00    +0.251 A 
ATOM     10  O   UNL     1      -5.186   3.752   0.398  0.00  0.00    -0.268 OA
ATOM     11  N   UNL     1      -3.014   4.131   0.567  0.00  0.00    -0.322 N 
ATOM     12  H   UNL     1      -3.175   5.083   0.668  0.00  0.00    +0.169 HD
ATOM     13  C   UNL     1      -1.720   3.656   0.586  0.00  0.00    +0.049 A 
ATOM     14  C   UNL     1      -0.642   4.520   0.748  0.00  0.00    +0.029 A 
ENDBRANCH   1   8
BRANCH   1  20
ATOM     15  C   UNL     1      -5.339   0.993   2.495  0.00  0.00    -0.058 C 
ATOM     16  C   UNL     1      -6.321   1.296   3.628  0.00  0.00    +0.086 C 
ATOM     17  N   UNL     1      -7.503   0.433   3.494  0.00  0.00    -0.333 N 
ATOM     18  C   UNL     1      -8.167   0.653   2.201  0.00  0.00    +0.086 C 
ATOM     19  C   UNL     1      -7.185   0.349   1.068  0.00  0.00    -0.058 C 
ATOM     20  N   UNL     1      -6.013   1.239   1.202  0.00  0.00    +0.391 N 
ATOM     21  H   UNL     1      -6.329   2.216   1.172  0.00  0.00    -0.080 HD
BRANCH  17  22
ATOM     22  C   UNL     1      -8.391   0.631   4.553  0.00  0.00    +0.030 A 
ATOM     23  C   UNL     1      -9.708   0.993   4.300  0.00  0.00    +0.025 A 
ATOM     24  C   UNL     1     -10.585   1.183   5.350  0.00  0.00    +0.034 A 
ATOM     25  C   UNL     1     -10.150   1.023   6.653  0.00  0.00    +0.126 A 
ATOM     26  C   UNL     1      -8.838   0.668   6.909  0.00  0.00    +0.034 A 
ATOM     27  C   UNL     1      -7.958   0.471   5.864  0.00  0.00    +0.025 A 
BRANCH  25  28
ATOM     28  N   UNL     1     -11.091   1.232   7.776  0.00  0.00    +0.056 N 
ATOM     29  O   UNL     1     -10.710   1.092   8.924  0.00  0.00    -0.126 OA
ATOM     30  O   UNL     1     -12.247   1.545   7.551  0.00  0.00    -0.126 OA
ENDBRANCH  25  28
ENDBRANCH  17  22
ENDBRANCH   1  20
BRANCH   1  31
ATOM     31  C   UNL     1      -5.759   1.329  -1.212  0.00  0.00    +0.143 A 
ATOM     32  N   UNL     1      -6.426   2.421  -1.493  0.00  0.00    -0.115 NA
ATOM     33  N   UNL     1      -6.863   2.321  -2.701  0.00  0.00    -0.023 NA
ATOM     34  N   UNL     1      -6.491   1.194  -3.198  0.00  0.00    -0.043 NA
ATOM     35  N   UNL     1      -5.804   0.555  -2.313  0.00  0.00    -0.225 N 
BRANCH  35  36
ATOM     36  C   UNL     1      -5.191  -0.766  -2.474  0.00  0.00    +0.059 C 
ATOM     37  C   UNL     1      -5.819  -1.744  -1.479  0.00  0.00    +0.036 C 
ATOM     38  C   UNL     1      -5.426  -1.267  -3.900  0.00  0.00    +0.036 C 
ATOM     39  C   UNL     1      -3.687  -0.666  -2.210  0.00  0.00    +0.036 C 
ENDBRANCH  35  36
ENDBRANCH   1  31
TORSDOF 6
