REMARK  Name = ZINC29999453
REMARK  5 active torsions:
REMARK  status: ('A' for Active; 'I' for Inactive)
REMARK    1  A    between atoms: C_1  and  C_2
REMARK    2  A    between atoms: C_2  and  C_4
REMARK    3  A    between atoms: C_2  and  N_15
REMARK    4  A    between atoms: C_16  and  C_18
REMARK    5  A    between atoms: C_20  and  C_24
REMARK                            x       y       z     vdW  Elec       q    Type
REMARK                         _______ _______ _______ _____ _____    ______ ____
ROOT
ATOM      1  N   UNL     1      -3.033   3.872   0.052  0.00  0.00    -0.303 N 
ATOM      2  C   UNL     1      -1.706   4.103   0.040  0.00  0.00    +0.265 C 
ATOM      3  O   UNL     1      -1.287   5.244   0.043  0.00  0.00    -0.268 OA
ATOM      4  H   UNL     1      -3.412   2.839   0.050  0.00  0.00    +0.150 HD
ENDROOT
BRANCH   2   5
ATOM      5  C   UNL     1      -0.759   2.969   0.025  0.00  0.00    +0.147 A 
ATOM      6  C   UNL     1       0.650   3.056   0.012  0.00  0.00    +0.062 A 
ATOM      7  C   UNL     1       1.095   1.763   0.001  0.00  0.00    +0.066 A 
ATOM      8  N   UNL     1      -0.011   0.966   0.007  0.00  0.00    -0.276 N 
ATOM      9  H   UNL     1       0.100  -0.129   0.005  0.00  0.00    +0.189 HD
ATOM     10  N   UNL     1      -1.073   1.688   0.016  0.00  0.00    -0.169 NA
BRANCH   7  11
ATOM     11  C   UNL     1       2.506   1.315  -0.015  0.00  0.00    -0.000 A 
ATOM     12  C   UNL     1       3.538   2.254  -0.025  0.00  0.00    +0.013 A 
ATOM     13  C   UNL     1       4.851   1.831  -0.034  0.00  0.00    +0.039 A 
ATOM     14  C   UNL     1       5.145   0.477  -0.045  0.00  0.00    +0.123 A 
ATOM     15  C   UNL     1       4.124  -0.459  -0.040  0.00  0.00    +0.039 A 
ATOM     16  C   UNL     1       2.807  -0.046  -0.025  0.00  0.00    +0.013 A 
ATOM     17  F   UNL     1       6.433   0.069  -0.060  0.00  0.00    -0.205 F 
ENDBRANCH   7  11
ENDBRANCH   2   5
BRANCH   1  19
ATOM     18  C   UNL     1      -4.216   5.476  -1.365  0.00  0.00    +0.033 C 
ATOM     19  C   UNL     1      -3.972   4.996   0.067  0.00  0.00    +0.100 C 
BRANCH  19  20
ATOM     20  C   UNL     1      -5.277   4.553   0.677  0.00  0.00    -0.025 A 
ATOM     21  C   UNL     1      -5.787   3.302   0.381  0.00  0.00    +0.009 A 
ATOM     22  C   UNL     1      -6.983   2.887   0.938  0.00  0.00    +0.048 A 
ATOM     23  C   UNL     1      -7.672   3.727   1.795  0.00  0.00    +0.142 A 
ATOM     24  C   UNL     1      -7.159   4.989   2.093  0.00  0.00    +0.076 A 
ATOM     25  C   UNL     1      -5.957   5.396   1.537  0.00  0.00    +0.032 A 
ATOM     26  N   UNL     1      -7.868   5.830   2.962  0.00  0.00    -0.280 N 
ATOM     27  C   UNL     1      -8.847   5.303   3.730  0.00  0.00    +0.255 C 
ATOM     28  O   UNL     1      -9.493   6.017   4.467  0.00  0.00    -0.272 OA
ATOM     29  C   UNL     1      -9.131   3.824   3.668  0.00  0.00    +0.325 C 
ATOM     30  O   UNL     1      -8.849   3.335   2.354  0.00  0.00    -0.481 OA
ATOM     31  H   UNL     1      -7.624   6.902   3.010  0.00  0.00    +0.155 HD
ENDBRANCH  19  20
ENDBRANCH   1  19
TORSDOF 4
