REMARK  Name = ZINC51579339
REMARK  5 active torsions:
REMARK  status: ('A' for Active; 'I' for Inactive)
REMARK    1  A    between atoms: C_1  and  C_2
REMARK    2  A    between atoms: C_5  and  C_16
REMARK    3  A    between atoms: C_6  and  N_8
REMARK    4  A    between atoms: C_12  and  O_15
REMARK    5  A    between atoms: N_17  and  O_18
REMARK                            x       y       z     vdW  Elec       q    Type
REMARK                         _______ _______ _______ _____ _____    ______ ____
ROOT
ATOM      1  C   UNL     1      -0.083   1.478  -0.376  0.00  0.00    +0.044 C 
ATOM      2  C   UNL     1      -0.029  -0.016  -0.182  0.00  0.00    -0.049 A 
ATOM      3  C   UNL     1       0.011  -0.852  -1.286  0.00  0.00    +0.004 A 
ATOM      4  C   UNL     1       0.059  -2.220  -1.121  0.00  0.00    +0.013 A 
ATOM      5  C   UNL     1       0.070  -2.767   0.162  0.00  0.00    +0.039 A 
ATOM      6  C   UNL     1       0.031  -1.918   1.277  0.00  0.00    +0.041 A 
ATOM      7  C   UNL     1      -0.013  -0.542   1.094  0.00  0.00    +0.027 A 
ENDROOT
BRANCH   6   8
ATOM      8  N   UNL     1       0.041  -2.452   2.563  0.00  0.00    -0.327 N 
ATOM      9  C   UNL     1      -1.209  -2.876   3.208  0.00  0.00    +0.105 C 
ATOM     10  C   UNL     1      -1.321  -2.184   4.570  0.00  0.00    +0.021 C 
ATOM     11  C   UNL     1      -0.061  -2.474   5.390  0.00  0.00    +0.034 C 
ATOM     12  C   UNL     1       1.163  -1.914   4.662  0.00  0.00    +0.132 C 
ATOM     13  C   UNL     1       1.304  -2.608   3.299  0.00  0.00    +0.136 C 
BRANCH  12  14
ATOM     14  O   UNL     1       2.335  -2.158   5.443  0.00  0.00    -0.390 OA
ATOM     15  H   UNL     1       2.314  -1.752   6.321  0.00  0.00    +0.210 HD
ENDBRANCH  12  14
ENDBRANCH   6   8
BRANCH   5  16
ATOM     16  C   UNL     1       0.122  -4.232   0.345  0.00  0.00    +0.164 C 
ATOM     17  N   UNL     1       0.244  -4.735   1.540  0.00  0.00    -0.071 NA
ATOM     18  N   UNL     1       0.042  -5.071  -0.754  0.00  0.00    -0.340 N 
ATOM     19  H   UNL     1      -0.049  -4.696  -1.644  0.00  0.00    +0.144 HD
ATOM     20  H   UNL     1       0.076  -6.033  -0.634  0.00  0.00    +0.144 HD
BRANCH  17  21
ATOM     21  O   UNL     1       0.294  -6.140   1.715  0.00  0.00    -0.408 OA
ATOM     22  H   UNL     1       0.385  -6.418   2.637  0.00  0.00    +0.328 HD
ENDBRANCH  17  21
ENDBRANCH   5  16
TORSDOF 4
