REMARK  Name = ZINC39773015
REMARK  14 active torsions:
REMARK  status: ('A' for Active; 'I' for Inactive)
REMARK    1  A    between atoms: C_1  and  C_2
REMARK    2  A    between atoms: C_2  and  C_4
REMARK    3  A    between atoms: C_2  and  N_31
REMARK    4  A    between atoms: C_7  and  S_10
REMARK    5  A    between atoms: N_8  and  C_9
REMARK    6  A    between atoms: S_10  and  C_11
REMARK    7  A    between atoms: C_11  and  C_12
REMARK    8  A    between atoms: N_14  and  C_15
REMARK    9  A    between atoms: C_16  and  C_29
REMARK   10  A    between atoms: C_21  and  C_25
REMARK   11  A    between atoms: C_25  and  C_26
REMARK   12  A    between atoms: C_25  and  C_27
REMARK   13  A    between atoms: C_25  and  C_28
REMARK   14  A    between atoms: C_32  and  C_34
REMARK                            x       y       z     vdW  Elec       q    Type
REMARK                         _______ _______ _______ _____ _____    ______ ____
ROOT
ATOM      1  C   UNL     1       3.364  -2.203   4.995  0.00  0.00    +0.173 C 
ENDROOT
BRANCH   1   2
ATOM      2  C   UNL     1       4.561  -2.803   5.686  0.00  0.00    +0.228 C 
ATOM      3  O   UNL     1       5.548  -3.094   5.045  0.00  0.00    -0.275 OA
ATOM      4  N   UNL     1       4.534  -3.017   7.016  0.00  0.00    -0.278 N 
ATOM      5  H   UNL     1       3.744  -2.784   7.529  0.00  0.00    +0.155 HD
BRANCH   4   6
ATOM      6  C   UNL     1       5.637  -3.570   7.653  0.00  0.00    +0.090 A 
ATOM      7  C   UNL     1       5.785  -3.863   8.998  0.00  0.00    +0.084 A 
ATOM      8  C   UNL     1       7.048  -4.443   9.417  0.00  0.00    -0.018 A 
ATOM      9  C   UNL     1       7.933  -4.624   8.412  0.00  0.00    -0.004 A 
ATOM     10  S   UNL     1       7.094  -4.044   6.967  0.00  0.00    -0.077 S 
ATOM     11  C   UNL     1       9.312  -5.198   8.520  0.00  0.00    +0.047 C 
ATOM     12  C   UNL     1       9.436  -5.901   9.880  0.00  0.00    -0.000 C 
ATOM     13  C   UNL     1       8.909  -4.965  10.971  0.00  0.00    +0.009 C 
ATOM     14  C   UNL     1       7.389  -4.827  10.849  0.00  0.00    +0.037 C 
BRANCH  12  15
ATOM     15  C   UNL     1      10.905  -6.233  10.152  0.00  0.00    -0.035 C 
ATOM     16  C   UNL     1      11.725  -4.942  10.170  0.00  0.00    +0.011 C 
ATOM     17  C   UNL     1      11.026  -6.933  11.508  0.00  0.00    +0.011 C 
ATOM     18  C   UNL     1      11.431  -7.157   9.053  0.00  0.00    +0.011 C 
ENDBRANCH  12  15
BRANCH   7  19
ATOM     19  C   UNL     1       4.736  -3.604   9.938  0.00  0.00    +0.102 C 
ATOM     20  N   UNL     1       3.903  -3.398  10.683  0.00  0.00    -0.191 NA
ENDBRANCH   7  19
ENDBRANCH   4   6
ENDBRANCH   1   2
BRANCH   1  21
ATOM     21  S   UNL     1       3.707  -2.043   3.221  0.00  0.00    -0.077 S 
BRANCH  21  25
ATOM     22  C   UNL     1       0.731  -0.503   1.223  0.00  0.00    +0.154 A 
ATOM     23  N   UNL     1       0.272  -0.523   2.442  0.00  0.00    -0.132 NA
ATOM     24  N   UNL     1       1.154  -1.013   3.238  0.00  0.00    -0.122 NA
ATOM     25  C   UNL     1       2.233  -1.336   2.563  0.00  0.00    +0.192 A 
ATOM     26  N   UNL     1       1.994  -1.025   1.255  0.00  0.00    -0.308 N 
ATOM     27  C   UNL     1       2.905  -1.210   0.122  0.00  0.00    +0.152 C 
BRANCH  22  29
ATOM     28  C   UNL     1      -0.019   1.526   0.010  0.00  0.00    +0.036 C 
ATOM     29  C   UNL     1       0.002  -0.004   0.002  0.00  0.00    +0.138 C 
BRANCH  29  30
ATOM     30  N   UNL     1      -1.372  -0.511   0.012  0.00  0.00    -0.299 N 
ATOM     31  C   UNL     1      -2.051  -0.643  -1.145  0.00  0.00    +0.280 C 
ATOM     32  O   UNL     1      -1.522  -0.340  -2.198  0.00  0.00    -0.267 OA
ATOM     33  H   UNL     1      -1.794  -0.752   0.852  0.00  0.00    +0.150 HD
BRANCH  31  34
ATOM     34  C   UNL     1      -3.427  -1.150  -1.134  0.00  0.00    +0.189 A 
ATOM     35  C   UNL     1      -4.221  -1.337  -2.229  0.00  0.00    +0.054 A 
ATOM     36  C   UNL     1      -5.447  -1.835  -1.758  0.00  0.00    +0.042 A 
ATOM     37  C   UNL     1      -5.347  -1.929  -0.414  0.00  0.00    +0.196 A 
ATOM     38  O   UNL     1      -4.127  -1.520  -0.042  0.00  0.00    -0.458 OA
ENDBRANCH  31  34
ENDBRANCH  29  30
ENDBRANCH  22  29
ENDBRANCH  21  25
ENDBRANCH   1  21
TORSDOF 9
