REMARK  Name = ZINC02940008
REMARK  3 active torsions:
REMARK  status: ('A' for Active; 'I' for Inactive)
REMARK    1  A    between atoms: C_4  and  C_7
REMARK    2  A    between atoms: C_17  and  C_18
REMARK    3  A    between atoms: N_20  and  C_21
REMARK                            x       y       z     vdW  Elec       q    Type
REMARK                         _______ _______ _______ _____ _____    ______ ____
ROOT
ATOM      1  C   UNL     1       7.058  -3.020   4.153  0.00  0.00    +0.038 A 
ATOM      2  C   UNL     1       8.368  -3.088   4.824  0.00  0.00    +0.000 A 
ATOM      3  C   UNL     1       8.803  -4.238   5.477  0.00  0.00    +0.009 A 
ATOM      4  C   UNL     1      10.039  -4.244   6.091  0.00  0.00    +0.001 A 
ATOM      5  C   UNL     1      10.847  -3.117   6.064  0.00  0.00    +0.001 A 
ATOM      6  C   UNL     1      10.434  -1.968   5.423  0.00  0.00    +0.015 A 
ATOM      7  C   UNL     1       9.191  -1.941   4.796  0.00  0.00    +0.067 A 
ATOM      8  C   UNL     1       8.699  -0.744   4.096  0.00  0.00    +0.345 A 
ATOM      9  O   UNL     1       9.382   0.261   4.053  0.00  0.00    -0.245 OA
ATOM     10  O   UNL     1       7.493  -0.767   3.506  0.00  0.00    -0.416 OA
ATOM     11  C   UNL     1       6.694  -1.851   3.521  0.00  0.00    +0.202 A 
ENDROOT
BRANCH   1  15
ATOM     12  C   UNL     1       4.455  -6.378   4.155  0.00  0.00    +0.000 A 
ATOM     13  C   UNL     1       4.995  -5.925   2.964  0.00  0.00    +0.001 A 
ATOM     14  C   UNL     1       5.841  -4.835   2.956  0.00  0.00    +0.008 A 
ATOM     15  C   UNL     1       6.152  -4.189   4.154  0.00  0.00    -0.014 A 
ATOM     16  C   UNL     1       5.608  -4.653   5.353  0.00  0.00    +0.008 A 
ATOM     17  C   UNL     1       4.759  -5.741   5.346  0.00  0.00    +0.001 A 
ENDBRANCH   1  15
BRANCH  11  18
ATOM     18  C   UNL     1       5.390  -1.784   2.848  0.00  0.00    +0.284 C 
ATOM     19  O   UNL     1       4.653  -2.752   2.851  0.00  0.00    -0.266 OA
ATOM     20  N   UNL     1       5.010  -0.649   2.228  0.00  0.00    -0.279 N 
ATOM     21  H   UNL     1       5.627   0.096   2.160  0.00  0.00    +0.155 HD
BRANCH  20  22
ATOM     22  C   UNL     1       3.725  -0.547   1.683  0.00  0.00    +0.037 A 
ATOM     23  C   UNL     1       3.517   0.199   0.530  0.00  0.00    +0.027 A 
ATOM     24  C   UNL     1       2.250   0.301  -0.010  0.00  0.00    +0.051 A 
ATOM     25  C   UNL     1       1.182  -0.341   0.597  0.00  0.00    +0.166 A 
ATOM     26  C   UNL     1       1.387  -1.089   1.754  0.00  0.00    +0.168 A 
ATOM     27  C   UNL     1       2.658  -1.191   2.294  0.00  0.00    +0.072 A 
ATOM     28  O   UNL     1       0.191  -1.614   2.152  0.00  0.00    -0.453 OA
ATOM     29  C   UNL     1      -0.672  -1.518   1.004  0.00  0.00    +0.466 C 
ATOM     30  O   UNL     1      -0.143  -0.397   0.271  0.00  0.00    -0.453 OA
ENDBRANCH  20  22
ENDBRANCH  11  18
TORSDOF 3
