REMARK  Name = ZINC22429465
REMARK  10 active torsions:
REMARK  status: ('A' for Active; 'I' for Inactive)
REMARK    1  A    between atoms: C_1  and  C_2
REMARK    2  A    between atoms: C_5  and  C_8
REMARK    3  A    between atoms: C_8  and  C_10
REMARK    4  A    between atoms: C_8  and  N_16
REMARK    5  A    between atoms: C_17  and  C_19
REMARK    6  A    between atoms: C_19  and  N_20
REMARK    7  A    between atoms: N_20  and  C_21
REMARK    8  A    between atoms: N_20  and  S_29
REMARK    9  A    between atoms: C_26  and  C_27
REMARK   10  A    between atoms: S_29  and  C_32
REMARK                            x       y       z     vdW  Elec       q    Type
REMARK                         _______ _______ _______ _____ _____    ______ ____
ROOT
ATOM      1  C   UNL     1       3.908  -2.271  -2.331  0.00  0.00    +0.227 C 
ENDROOT
BRANCH   1   3
ATOM      2  N   UNL     1       2.040  -2.957  -3.800  0.00  0.00    -0.303 N 
ATOM      3  C   UNL     1       2.631  -1.985  -3.078  0.00  0.00    +0.233 C 
ATOM      4  O   UNL     1       2.135  -0.879  -3.028  0.00  0.00    -0.274 OA
ATOM      5  H   UNL     1       2.490  -3.960  -3.845  0.00  0.00    +0.150 HD
BRANCH   2   6
ATOM      6  C   UNL     1       0.798  -2.678  -4.526  0.00  0.00    +0.134 C 
BRANCH   6  11
ATOM      7  C   UNL     1       0.303  -6.336  -8.972  0.00  0.00    +0.044 C 
ATOM      8  C   UNL     1       0.432  -5.382  -7.813  0.00  0.00    -0.050 A 
ATOM      9  C   UNL     1       0.070  -4.057  -7.965  0.00  0.00    +0.004 A 
ATOM     10  C   UNL     1       0.189  -3.182  -6.901  0.00  0.00    +0.006 A 
ATOM     11  C   UNL     1       0.669  -3.632  -5.686  0.00  0.00    -0.023 A 
ATOM     12  C   UNL     1       1.036  -4.956  -5.535  0.00  0.00    +0.006 A 
ATOM     13  C   UNL     1       0.913  -5.832  -6.597  0.00  0.00    +0.004 A 
ENDBRANCH   6  11
BRANCH   6  14
ATOM     14  C   UNL     1      -0.376  -2.853  -3.598  0.00  0.00    -0.023 A 
ATOM     15  C   UNL     1      -0.395  -3.901  -2.696  0.00  0.00    +0.006 A 
ATOM     16  C   UNL     1      -1.470  -4.059  -1.842  0.00  0.00    +0.000 A 
ATOM     17  C   UNL     1      -2.531  -3.175  -1.896  0.00  0.00    +0.000 A 
ATOM     18  C   UNL     1      -2.515  -2.131  -2.801  0.00  0.00    +0.000 A 
ATOM     19  C   UNL     1      -1.438  -1.970  -3.653  0.00  0.00    +0.006 A 
ENDBRANCH   6  14
ENDBRANCH   2   6
ENDBRANCH   1   3
BRANCH   1  20
ATOM     20  N   UNL     1       4.345  -1.062  -1.629  0.00  0.00    -0.194 N 
BRANCH  20  21
ATOM     21  C   UNL     1       5.109  -0.104  -2.299  0.00  0.00    +0.056 A 
ATOM     22  C   UNL     1       4.485   0.876  -3.061  0.00  0.00    +0.025 A 
ATOM     23  C   UNL     1       5.243   1.823  -3.721  0.00  0.00    +0.003 A 
ATOM     24  C   UNL     1       6.622   1.797  -3.626  0.00  0.00    +0.020 A 
ATOM     25  C   UNL     1       7.248   0.822  -2.868  0.00  0.00    +0.046 A 
ATOM     26  C   UNL     1       6.494  -0.125  -2.200  0.00  0.00    -0.010 A 
ATOM     27  C   UNL     1       7.175  -1.182  -1.369  0.00  0.00    +0.047 C 
ATOM     28 CL   UNL     1       8.979   0.794  -2.751  0.00  0.00    -0.083 Cl
ENDBRANCH  20  21
BRANCH  20  29
ATOM     29  S   UNL     1       3.934  -0.832  -0.042  0.00  0.00    +0.075 S 
ATOM     30  O   UNL     1       4.902   0.054   0.504  0.00  0.00    -0.150 OA
ATOM     31  O   UNL     1       3.686  -2.120   0.505  0.00  0.00    -0.150 OA
BRANCH  29  32
ATOM     32  C   UNL     1       2.396   0.029  -0.022  0.00  0.00    +0.109 A 
ATOM     33  C   UNL     1       1.208  -0.679  -0.014  0.00  0.00    +0.029 A 
ATOM     34  C   UNL     1       0.002  -0.004   0.002  0.00  0.00    +0.002 A 
ATOM     35  C   UNL     1      -0.017   1.378   0.010  0.00  0.00    +0.000 A 
ATOM     36  C   UNL     1       1.171   2.086   0.002  0.00  0.00    +0.002 A 
ATOM     37  C   UNL     1       2.377   1.411  -0.014  0.00  0.00    +0.029 A 
ENDBRANCH  29  32
ENDBRANCH  20  29
ENDBRANCH   1  20
TORSDOF 8
