REMARK  Name = ZINC13569804
REMARK  10 active torsions:
REMARK  status: ('A' for Active; 'I' for Inactive)
REMARK    1  A    between atoms: C_1  and  C_2
REMARK    2  A    between atoms: C_2  and  C_3
REMARK    3  A    between atoms: C_3  and  C_5
REMARK    4  A    between atoms: C_3  and  C_6
REMARK    5  A    between atoms: C_9  and  N_12
REMARK    6  A    between atoms: C_16  and  C_17
REMARK    7  A    between atoms: C_19  and  C_33
REMARK    8  A    between atoms: N_20  and  C_23
REMARK    9  A    between atoms: C_21  and  C_22
REMARK   10  A    between atoms: C_34  and  O_38
REMARK                            x       y       z     vdW  Elec       q    Type
REMARK                         _______ _______ _______ _____ _____    ______ ____
ROOT
ATOM      1  N   UNL     1      -0.801  -6.475  -0.698  0.00  0.00    -0.188 N 
ATOM      2  C   UNL     1       0.101  -7.151   0.047  0.00  0.00    +0.263 C 
ATOM      3  O   UNL     1       0.507  -6.702   1.102  0.00  0.00    -0.269 OA
ATOM      4  C   UNL     1       0.577  -8.451  -0.462  0.00  0.00    +0.097 C 
ATOM      5  C   UNL     1       1.504  -9.210   0.242  0.00  0.00    +0.028 C 
ATOM      6  C   UNL     1       0.026  -8.907  -1.746  0.00  0.00    +0.218 C 
ATOM      7  N   UNL     1      -0.853  -8.137  -2.365  0.00  0.00    -0.127 NA
ATOM      8  C   UNL     1      -1.253  -6.973  -1.858  0.00  0.00    +0.340 C 
ATOM      9  O   UNL     1      -2.070  -6.323  -2.485  0.00  0.00    -0.250 OA
ENDROOT
BRANCH   5  10
ATOM     10  C   UNL     1       2.151  -8.665   1.374  0.00  0.00    -0.003 A 
ATOM     11  C   UNL     1       2.730  -7.318   1.502  0.00  0.00    +0.031 A 
ATOM     12  C   UNL     1       3.231  -7.238   2.744  0.00  0.00    +0.022 A 
ATOM     13  N   UNL     1       3.021  -8.424   3.394  0.00  0.00    -0.317 N 
ATOM     14  C   UNL     1       2.376  -9.291   2.592  0.00  0.00    +0.028 A 
ATOM     15  C   UNL     1       1.968 -10.696   2.954  0.00  0.00    +0.064 C 
ATOM     16  C   UNL     1       3.923  -6.034   3.329  0.00  0.00    +0.064 C 
BRANCH  13  17
ATOM     17  C   UNL     1       3.420  -8.696   4.709  0.00  0.00    +0.047 A 
ATOM     18  C   UNL     1       4.386  -9.680   4.949  0.00  0.00    +0.027 A 
ATOM     19  C   UNL     1       4.793  -9.965   6.215  0.00  0.00    +0.010 A 
ATOM     20  C   UNL     1       4.239  -9.267   7.303  0.00  0.00    -0.018 A 
ATOM     21  C   UNL     1       4.640  -9.540   8.621  0.00  0.00    +0.008 A 
ATOM     22  C   UNL     1       4.086  -8.846   9.652  0.00  0.00    +0.001 A 
ATOM     23  C   UNL     1       3.123  -7.865   9.421  0.00  0.00    +0.001 A 
ATOM     24  C   UNL     1       2.709  -7.573   8.158  0.00  0.00    +0.008 A 
ATOM     25  C   UNL     1       3.260  -8.269   7.068  0.00  0.00    -0.016 A 
ATOM     26  C   UNL     1       2.861  -7.990   5.750  0.00  0.00    +0.034 A 
ENDBRANCH  13  17
ENDBRANCH   5  10
BRANCH   1  30
ATOM     27  C   UNL     1      -2.216  -2.791   0.641  0.00  0.00    -0.044 A 
ATOM     28  C   UNL     1      -2.508  -3.941   1.351  0.00  0.00    +0.006 A 
ATOM     29  C   UNL     1      -2.045  -5.164   0.907  0.00  0.00    +0.024 A 
ATOM     30  C   UNL     1      -1.277  -5.237  -0.247  0.00  0.00    +0.046 A 
ATOM     31  C   UNL     1      -0.981  -4.079  -0.955  0.00  0.00    +0.024 A 
ATOM     32  C   UNL     1      -1.451  -2.860  -0.508  0.00  0.00    +0.006 A 
BRANCH  27  33
ATOM     33  C   UNL     1      -2.727  -1.458   1.126  0.00  0.00    +0.016 C 
ATOM     34  C   UNL     1      -2.183  -1.183   2.529  0.00  0.00    +0.012 C 
BRANCH  33  36
ATOM     35  C   UNL     1      -4.779  -0.095   1.539  0.00  0.00    +0.004 C 
ATOM     36  C   UNL     1      -4.256  -1.484   1.168  0.00  0.00    +0.004 C 
ENDBRANCH  33  36
ENDBRANCH  27  33
ENDBRANCH   1  30
BRANCH   6  37
ATOM     37  O   UNL     1       0.409 -10.086  -2.281  0.00  0.00    -0.493 OA
ATOM     38  H   UNL     1      -0.014 -10.289  -3.126  0.00  0.00    +0.294 HD
ENDBRANCH   6  37
TORSDOF 6
