REMARK  Name = ZINC04871509
REMARK  6 active torsions:
REMARK  status: ('A' for Active; 'I' for Inactive)
REMARK    1  A    between atoms: C_1  and  C_2
REMARK    2  A    between atoms: C_2  and  C_3
REMARK    3  A    between atoms: C_2  and  C_4
REMARK    4  A    between atoms: C_4  and  N_5
REMARK    5  A    between atoms: C_22  and  C_24
REMARK    6  A    between atoms: C_22  and  C_25
REMARK                            x       y       z     vdW  Elec       q    Type
REMARK                         _______ _______ _______ _____ _____    ______ ____
ROOT
ATOM      1  N   UNL     1      -0.011   0.966   0.007  0.00  0.00    -0.328 N 
ATOM      2  C   UNL     1      -1.221   1.643   0.017  0.00  0.00    +0.136 A 
ATOM      3  C   UNL     1      -2.424   0.950   0.019  0.00  0.00    +0.080 A 
ATOM      4  C   UNL     1      -3.647   1.632   0.028  0.00  0.00    +0.093 A 
ATOM      5  C   UNL     1      -4.856   0.787   0.028  0.00  0.00    +0.035 A 
ATOM      6  C   UNL     1      -6.207   1.214   0.036  0.00  0.00    -0.024 A 
ATOM      7  C   UNL     1      -7.202   0.288   0.032  0.00  0.00    +0.020 A 
ATOM      8  C   UNL     1      -6.886  -1.075   0.026  0.00  0.00    +0.105 A 
ATOM      9  C   UNL     1      -4.636  -0.600   0.021  0.00  0.00    +0.089 A 
ATOM     10  S   UNL     1      -2.867  -0.765   0.013  0.00  0.00    -0.066 S 
ATOM     11  N   UNL     1      -7.904  -2.019   0.025  0.00  0.00    -0.316 N 
ATOM     12  C   UNL     1      -8.731  -1.908  -1.204  0.00  0.00    +0.106 C 
ATOM     13  C   UNL     1      -9.423  -3.292  -1.292  0.00  0.00    +0.020 C 
ATOM     14  C   UNL     1      -8.320  -4.261  -0.808  0.00  0.00    +0.020 C 
ATOM     15  C   UNL     1      -7.355  -3.392   0.019  0.00  0.00    +0.106 C 
ATOM     16  C   UNL     1      -8.654   0.693   0.029  0.00  0.00    +0.199 C 
ATOM     17  O   UNL     1      -8.785   2.063   0.409  0.00  0.00    -0.369 OA
ATOM     18  C   UNL     1      -7.946   2.942  -0.349  0.00  0.00    +0.068 C 
ATOM     19  C   UNL     1      -6.492   2.692   0.057  0.00  0.00    +0.070 C 
ATOM     20  C   UNL     1      -8.120   2.658  -1.843  0.00  0.00    +0.041 C 
ATOM     21  C   UNL     1      -8.321   4.395  -0.053  0.00  0.00    +0.041 C 
ATOM     22  N   UNL     1      -3.574   2.982   0.035  0.00  0.00    -0.234 NA
ATOM     23  C   UNL     1      -2.421   3.603   0.033  0.00  0.00    +0.224 A 
ATOM     24  N   UNL     1      -1.259   2.975   0.030  0.00  0.00    -0.220 NA
ATOM     25  H   UNL     1       0.002  -0.004   0.002  0.00  0.00    +0.147 HD
ATOM     26  N   UNL     1      -5.607  -1.545   0.022  0.00  0.00    -0.337 N 
ATOM     27  H   UNL     1      -5.394  -2.550   0.019  0.00  0.00    +0.168 HD
ENDROOT
BRANCH   1  28
ATOM     28  C   UNL     1       1.248   1.716  -0.001  0.00  0.00    +0.106 C 
BRANCH  28  30
ATOM     29  C   UNL     1       3.733   1.517  -0.151  0.00  0.00    +0.009 C 
ATOM     30  C   UNL     1       2.424   0.737  -0.017  0.00  0.00    -0.000 C 
ATOM     31  C   UNL     1       2.438  -0.065   1.286  0.00  0.00    +0.009 C 
ENDBRANCH  28  30
ENDBRANCH   1  28
TORSDOF 2
