REMARK  Name = ZINC13064700
REMARK  11 active torsions:
REMARK  status: ('A' for Active; 'I' for Inactive)
REMARK    1  A    between atoms: C_1  and  C_2
REMARK    2  A    between atoms: C_2  and  C_3
REMARK    3  A    between atoms: C_3  and  C_5
REMARK    4  A    between atoms: C_3  and  N_72
REMARK    5  A    between atoms: N_9  and  C_10
REMARK    6  A    between atoms: C_10  and  C_11
REMARK    7  A    between atoms: C_18  and  C_19
REMARK    8  A    between atoms: C_18  and  N_72
REMARK    9  A    between atoms: C_23  and  C_32
REMARK   10  A    between atoms: C_24  and  C_31
REMARK   11  A    between atoms: C_33  and  N_72
REMARK                            x       y       z     vdW  Elec       q    Type
REMARK                         _______ _______ _______ _____ _____    ______ ____
ROOT
ATOM      1  N   UNL     1      -5.305   4.313  -1.017  0.00  0.00    +0.391 N 
ATOM      2  H   UNL     1      -4.489   4.646  -1.544  0.00  0.00    -0.080 HD
ENDROOT
BRANCH   1   3
ATOM      3  C   UNL     1      -5.446   2.856  -1.221  0.00  0.00    -0.067 C 
ATOM      4  C   UNL     1      -6.350   2.249  -0.146  0.00  0.00    -0.015 C 
ATOM      5  C   UNL     1      -6.473   0.742  -0.374  0.00  0.00    -0.002 C 
ATOM      6  C   UNL     1      -5.087   0.099  -0.296  0.00  0.00    -0.000 C 
ATOM      7  C   UNL     1      -4.183   0.705  -1.371  0.00  0.00    -0.002 C 
ATOM      8  C   UNL     1      -4.059   2.213  -1.143  0.00  0.00    -0.015 C 
ENDBRANCH   1   3
BRANCH   1   9
ATOM      9  C   UNL     1      -6.511   5.011  -1.508  0.00  0.00    +0.003 C 
BRANCH   9  10
ATOM     10  C   UNL     1      -7.702   4.677  -0.647  0.00  0.00    +0.138 A 
ATOM     11  N   UNL     1      -7.681   4.320   0.614  0.00  0.00    -0.115 NA
ATOM     12  N   UNL     1      -8.896   4.122   0.992  0.00  0.00    -0.023 NA
ATOM     13  N   UNL     1      -9.693   4.343   0.005  0.00  0.00    -0.044 NA
ATOM     14  N   UNL     1      -8.995   4.693  -1.023  0.00  0.00    -0.226 N 
BRANCH  14  15
ATOM     15  C   UNL     1      -9.512   5.038  -2.349  0.00  0.00    +0.182 C 
BRANCH  15  16
ATOM     16  C   UNL     1      -9.592   3.795  -3.197  0.00  0.00    -0.026 A 
ATOM     17  C   UNL     1      -8.513   3.419  -3.975  0.00  0.00    +0.008 A 
ATOM     18  C   UNL     1      -8.583   2.276  -4.749  0.00  0.00    +0.038 A 
ATOM     19  C   UNL     1      -9.739   1.514  -4.753  0.00  0.00    +0.123 A 
ATOM     20  C   UNL     1     -10.820   1.894  -3.977  0.00  0.00    +0.038 A 
ATOM     21  C   UNL     1     -10.746   3.034  -3.200  0.00  0.00    +0.008 A 
ATOM     22  F   UNL     1      -9.810   0.399  -5.513  0.00  0.00    -0.205 F 
ENDBRANCH  15  16
ENDBRANCH  14  15
ENDBRANCH   9  10
BRANCH   9  24
ATOM     23  C   UNL     1      -5.097   6.868  -2.399  0.00  0.00    +0.002 C 
ATOM     24  C   UNL     1      -6.260   6.519  -1.468  0.00  0.00    -0.011 C 
ENDBRANCH   9  24
ENDBRANCH   1   9
BRANCH   1  25
ATOM     25  C   UNL     1      -5.101   4.605   0.418  0.00  0.00    -0.036 C 
BRANCH  25  26
ATOM     26  C   UNL     1      -4.202   5.807   0.539  0.00  0.00    +0.001 A 
ATOM     27  C   UNL     1      -4.598   6.876   1.273  0.00  0.00    +0.017 A 
ATOM     28  C   UNL     1      -3.701   8.029   1.371  0.00  0.00    -0.001 A 
ATOM     29  C   UNL     1      -4.055   9.161   2.113  0.00  0.00    +0.013 A 
ATOM     30  C   UNL     1      -3.196  10.220   2.185  0.00  0.00    -0.047 A 
ATOM     31  C   UNL     1      -1.973  10.183   1.528  0.00  0.00    -0.046 A 
ATOM     32  C   UNL     1      -1.603   9.079   0.791  0.00  0.00    +0.030 A 
ATOM     33  C   UNL     1      -2.465   7.991   0.699  0.00  0.00    +0.049 A 
ATOM     34  N   UNL     1      -2.118   6.871  -0.026  0.00  0.00    -0.322 N 
ATOM     35  H   UNL     1      -1.264   6.844  -0.486  0.00  0.00    +0.169 HD
ATOM     36  C   UNL     1      -2.949   5.817  -0.111  0.00  0.00    +0.251 A 
ATOM     37  O   UNL     1      -2.612   4.846  -0.766  0.00  0.00    -0.268 OA
ATOM     38  C   UNL     1      -1.041  11.363   1.622  0.00  0.00    +0.044 C 
ATOM     39  C   UNL     1      -3.578  11.439   2.984  0.00  0.00    +0.044 C 
ENDBRANCH  25  26
ENDBRANCH   1  25
TORSDOF 8
