REMARK  Name = ZINC59897273
REMARK  3 active torsions:
REMARK  status: ('A' for Active; 'I' for Inactive)
REMARK    1  A    between atoms: C_3  and  N_23
REMARK    2  A    between atoms: C_4  and  N_20
REMARK    3  A    between atoms: C_6  and  C_7
REMARK                            x       y       z     vdW  Elec       q    Type
REMARK                         _______ _______ _______ _____ _____    ______ ____
ROOT
ATOM      1  C   UNL     1      -1.421  -0.777  -0.030  0.00  0.00    +0.251 C 
ATOM      2  O   UNL     1      -0.423  -0.103  -0.203  0.00  0.00    -0.270 OA
ATOM      3  N   UNL     1      -2.620  -0.181   0.117  0.00  0.00    -0.267 N 
ATOM      4  C   UNL     1      -3.849  -0.983   0.189  0.00  0.00    +0.114 C 
ATOM      5  C   UNL     1      -4.899  -0.312  -0.707  0.00  0.00    +0.024 C 
ATOM      6  C   UNL     1      -5.212   1.076  -0.148  0.00  0.00    +0.038 C 
ATOM      7  C   UNL     1      -3.941   1.852   0.078  0.00  0.00    -0.023 A 
ATOM      8  C   UNL     1      -2.716   1.215   0.209  0.00  0.00    +0.040 A 
ATOM      9  C   UNL     1      -1.562   1.959   0.427  0.00  0.00    +0.026 A 
ATOM     10  C   UNL     1      -1.633   3.335   0.519  0.00  0.00    +0.040 A 
ATOM     11  C   UNL     1      -2.855   3.972   0.392  0.00  0.00    +0.124 A 
ATOM     12  C   UNL     1      -4.006   3.232   0.163  0.00  0.00    +0.043 A 
ATOM     13  F   UNL     1      -2.926   5.319   0.480  0.00  0.00    -0.205 F 
ENDROOT
BRANCH   1  19
ATOM     14  C   UNL     1      -2.250  -2.992   0.747  0.00  0.00    +0.015 A 
ATOM     15  C   UNL     1      -2.151  -4.364   0.789  0.00  0.00    +0.026 A 
ATOM     16  C   UNL     1      -1.124  -5.011   0.108  0.00  0.00    +0.055 A 
ATOM     17  C   UNL     1      -0.194  -4.273  -0.619  0.00  0.00    +0.147 A 
ATOM     18  C   UNL     1      -0.287  -2.901  -0.666  0.00  0.00    +0.047 A 
ATOM     19  C   UNL     1      -1.318  -2.248   0.018  0.00  0.00    +0.040 A 
BRANCH  17  20
ATOM     20  N   UNL     1       0.897  -4.965  -1.341  0.00  0.00    +0.058 N 
ATOM     21  O   UNL     1       2.002  -4.475  -1.380  0.00  0.00    -0.126 OA
ATOM     22  O   UNL     1       0.684  -6.019  -1.892  0.00  0.00    -0.126 OA
ENDBRANCH  17  20
BRANCH  16  23
ATOM     23  N   UNL     1      -1.027  -6.397   0.153  0.00  0.00    -0.356 N 
ATOM     24  H   UNL     1      -1.635  -6.908   0.711  0.00  0.00    +0.142 HD
ATOM     25  H   UNL     1      -0.352  -6.854  -0.372  0.00  0.00    +0.142 HD
ENDBRANCH  16  23
ENDBRANCH   1  19
TORSDOF 3
