REMARK  Name = ZINC38546629
REMARK  6 active torsions:
REMARK  status: ('A' for Active; 'I' for Inactive)
REMARK    1  A    between atoms: C_4  and  C_7
REMARK    2  A    between atoms: C_7  and  C_9
REMARK    3  A    between atoms: C_7  and  N_26
REMARK    4  A    between atoms: C_13  and  N_14
REMARK    5  A    between atoms: C_15  and  C_17
REMARK    6  A    between atoms: N_29  and  C_32
REMARK                            x       y       z     vdW  Elec       q    Type
REMARK                         _______ _______ _______ _____ _____    ______ ____
ROOT
ATOM      1  C   UNL     1       3.756  -0.688  -0.116  0.00  0.00    -0.004 C 
ENDROOT
BRANCH   1   2
ATOM      2  C   UNL     1       4.192  -1.014   1.289  0.00  0.00    -0.025 A 
ATOM      3  C   UNL     1       5.135  -0.211   1.933  0.00  0.00    -0.033 A 
ATOM      4  C   UNL     1       5.477  -0.570   3.199  0.00  0.00    -0.005 A 
ATOM      5  S   UNL     1       4.501  -2.016   3.511  0.00  0.00    -0.078 S 
ATOM      6  C   UNL     1       3.664  -2.088   1.935  0.00  0.00    +0.074 A 
ATOM      7  C   UNL     1       6.454   0.108   4.105  0.00  0.00    +0.043 C 
ATOM      8  C   UNL     1       7.301   1.075   3.265  0.00  0.00    +0.005 C 
ATOM      9  C   UNL     1       6.367   1.900   2.375  0.00  0.00    +0.005 C 
ATOM     10  C   UNL     1       5.769   1.014   1.281  0.00  0.00    +0.036 C 
BRANCH   6  11
ATOM     11  N   UNL     1       2.716  -3.008   1.482  0.00  0.00    -0.273 N 
ATOM     12  C   UNL     1       2.408  -4.082   2.235  0.00  0.00    +0.284 C 
ATOM     13  O   UNL     1       2.955  -4.251   3.308  0.00  0.00    -0.266 OA
ATOM     14  H   UNL     1       2.279  -2.873   0.627  0.00  0.00    +0.156 HD
BRANCH  12  15
ATOM     15  C   UNL     1       1.412  -5.049   1.760  0.00  0.00    +0.189 A 
ATOM     16  C   UNL     1       1.005  -6.172   2.421  0.00  0.00    +0.054 A 
ATOM     17  C   UNL     1       0.047  -6.795   1.606  0.00  0.00    +0.042 A 
ATOM     18  C   UNL     1      -0.086  -6.035   0.497  0.00  0.00    +0.196 A 
ATOM     19  O   UNL     1       0.734  -4.981   0.595  0.00  0.00    -0.458 OA
ENDBRANCH  12  15
ENDBRANCH   6  11
ENDBRANCH   1   2
BRANCH   1  20
ATOM     20  N   UNL     1       3.782  -1.909  -0.932  0.00  0.00    +0.389 N 
ATOM     21  C   UNL     1       5.112  -2.525  -0.848  0.00  0.00    -0.058 C 
ATOM     22  C   UNL     1       5.106  -3.857  -1.604  0.00  0.00    +0.086 C 
ATOM     23  N   UNL     1       4.637  -3.612  -2.977  0.00  0.00    -0.333 N 
ATOM     24  C   UNL     1       3.389  -2.854  -3.158  0.00  0.00    +0.086 C 
ATOM     25  C   UNL     1       3.476  -1.569  -2.328  0.00  0.00    -0.058 C 
ATOM     26  H   UNL     1       3.091  -2.558  -0.586  0.00  0.00    -0.080 HD
BRANCH  23  27
ATOM     27  C   UNL     1       5.356  -4.085  -4.077  0.00  0.00    +0.030 A 
ATOM     28  C   UNL     1       6.464  -4.901  -3.886  0.00  0.00    +0.023 A 
ATOM     29  C   UNL     1       7.173  -5.367  -4.976  0.00  0.00    +0.002 A 
ATOM     30  C   UNL     1       6.781  -5.022  -6.256  0.00  0.00    +0.000 A 
ATOM     31  C   UNL     1       5.678  -4.210  -6.450  0.00  0.00    +0.002 A 
ATOM     32  C   UNL     1       4.962  -3.745  -5.365  0.00  0.00    +0.023 A 
ENDBRANCH  23  27
ENDBRANCH   1  20
BRANCH   1  36
ATOM     33  C   UNL     1      -0.210   0.896  -0.048  0.00  0.00    +0.000 A 
ATOM     34  C   UNL     1       0.869   1.726   0.189  0.00  0.00    +0.000 A 
ATOM     35  C   UNL     1       2.153   1.213   0.167  0.00  0.00    +0.002 A 
ATOM     36  C   UNL     1       2.357  -0.130  -0.091  0.00  0.00    -0.057 A 
ATOM     37  C   UNL     1       1.277  -0.960  -0.327  0.00  0.00    +0.002 A 
ATOM     38  C   UNL     1      -0.007  -0.447  -0.306  0.00  0.00    +0.000 A 
ENDBRANCH   1  36
TORSDOF 6
