REMARK  Name = ZINC13498893
REMARK  11 active torsions:
REMARK  status: ('A' for Active; 'I' for Inactive)
REMARK    1  A    between atoms: C_1  and  C_2
REMARK    2  A    between atoms: C_6  and  C_15
REMARK    3  A    between atoms: C_13  and  C_14
REMARK    4  A    between atoms: C_15  and  N_78
REMARK    5  A    between atoms: C_16  and  N_78
REMARK    6  A    between atoms: C_22  and  C_24
REMARK    7  A    between atoms: C_22  and  C_35
REMARK    8  A    between atoms: C_22  and  N_78
REMARK    9  A    between atoms: N_28  and  C_29
REMARK   10  A    between atoms: C_35  and  C_36
REMARK   11  A    between atoms: C_35  and  C_37
REMARK                            x       y       z     vdW  Elec       q    Type
REMARK                         _______ _______ _______ _____ _____    ______ ____
ROOT
ATOM      1  N   UNL     1      -5.359   3.844  -1.180  0.00  0.00    +0.391 N 
ATOM      2  H   UNL     1      -4.637   4.193  -1.822  0.00  0.00    -0.080 HD
ENDROOT
BRANCH   1   3
ATOM      3  C   UNL     1      -5.849   2.540  -1.673  0.00  0.00    -0.067 C 
ATOM      4  C   UNL     1      -7.157   2.160  -0.975  0.00  0.00    -0.015 C 
ATOM      5  C   UNL     1      -7.646   0.812  -1.506  0.00  0.00    -0.002 C 
ATOM      6  C   UNL     1      -6.590  -0.260  -1.229  0.00  0.00    -0.000 C 
ATOM      7  C   UNL     1      -5.283   0.120  -1.927  0.00  0.00    -0.002 C 
ATOM      8  C   UNL     1      -4.793   1.468  -1.395  0.00  0.00    -0.015 C 
ENDBRANCH   1   3
BRANCH   1   9
ATOM      9  C   UNL     1      -4.770   3.687   0.166  0.00  0.00    -0.036 C 
BRANCH   9  15
ATOM     10  C   UNL     1      -8.291  -1.646   4.011  0.00  0.00    +0.044 C 
ATOM     11  C   UNL     1      -8.104  -0.196   3.644  0.00  0.00    -0.047 A 
ATOM     12  C   UNL     1      -7.138   0.155   2.744  0.00  0.00    +0.013 A 
ATOM     13  C   UNL     1      -6.963   1.500   2.403  0.00  0.00    -0.001 A 
ATOM     14  C   UNL     1      -5.938   1.911   1.442  0.00  0.00    +0.017 A 
ATOM     15  C   UNL     1      -5.815   3.230   1.150  0.00  0.00    +0.001 A 
ATOM     16  C   UNL     1      -6.663   4.176   1.765  0.00  0.00    +0.251 A 
ATOM     17  O   UNL     1      -6.536   5.356   1.488  0.00  0.00    -0.268 OA
ATOM     18  N   UNL     1      -7.608   3.808   2.649  0.00  0.00    -0.322 N 
ATOM     19  H   UNL     1      -8.174   4.484   3.053  0.00  0.00    +0.169 HD
ATOM     20  C   UNL     1      -7.787   2.483   2.984  0.00  0.00    +0.049 A 
ATOM     21  C   UNL     1      -8.760   2.102   3.902  0.00  0.00    +0.030 A 
ATOM     22  C   UNL     1      -8.914   0.770   4.223  0.00  0.00    -0.046 A 
ATOM     23  C   UNL     1      -9.974   0.360   5.213  0.00  0.00    +0.044 C 
ENDBRANCH   9  15
ENDBRANCH   1   9
BRANCH   1  24
ATOM     24  C   UNL     1      -6.471   4.817  -1.135  0.00  0.00    +0.006 C 
BRANCH  24  25
ATOM     25  C   UNL     1      -7.447   4.514  -2.241  0.00  0.00    +0.139 A 
ATOM     26  N   UNL     1      -7.154   4.164  -3.470  0.00  0.00    -0.115 NA
ATOM     27  N   UNL     1      -8.259   3.994  -4.110  0.00  0.00    -0.023 NA
ATOM     28  N   UNL     1      -9.250   4.227  -3.321  0.00  0.00    -0.044 NA
ATOM     29  N   UNL     1      -8.790   4.545  -2.159  0.00  0.00    -0.228 N 
BRANCH  29  30
ATOM     30  C   UNL     1      -9.582   4.881  -0.972  0.00  0.00    +0.111 C 
ATOM     31  C   UNL     1     -10.471   3.694  -0.599  0.00  0.00    +0.027 C 
ATOM     32  C   UNL     1     -11.297   4.045   0.640  0.00  0.00    +0.002 C 
ATOM     33  C   UNL     1     -12.173   5.263   0.341  0.00  0.00    +0.000 C 
ATOM     34  C   UNL     1     -11.283   6.451  -0.032  0.00  0.00    +0.002 C 
ATOM     35  C   UNL     1     -10.457   6.100  -1.271  0.00  0.00    +0.027 C 
ENDBRANCH  29  30
ENDBRANCH  24  25
BRANCH  24  36
ATOM     36  C   UNL     1      -5.897   6.222  -1.331  0.00  0.00    -0.024 C 
ATOM     37  C   UNL     1      -7.001   7.259  -1.110  0.00  0.00    +0.006 C 
ATOM     38  C   UNL     1      -4.769   6.457  -0.325  0.00  0.00    +0.006 C 
ENDBRANCH  24  36
ENDBRANCH   1  24
TORSDOF 7
