REMARK  Name = ZINC28157508
REMARK  9 active torsions:
REMARK  status: ('A' for Active; 'I' for Inactive)
REMARK    1  A    between atoms: C_1  and  C_2
REMARK    2  A    between atoms: C_2  and  C_3
REMARK    3  A    between atoms: C_6  and  C_9
REMARK    4  A    between atoms: C_12  and  C_34
REMARK    5  A    between atoms: C_19  and  C_22
REMARK    6  A    between atoms: C_22  and  C_23
REMARK    7  A    between atoms: N_25  and  C_26
REMARK    8  A    between atoms: C_28  and  C_33
REMARK    9  A    between atoms: C_31  and  C_32
REMARK                            x       y       z     vdW  Elec       q    Type
REMARK                         _______ _______ _______ _____ _____    ______ ____
ROOT
ATOM      1  C   UNL     1       2.228   0.550  -0.003  0.00  0.00    +0.136 C 
ATOM      2  C   UNL     1       1.353   1.819   0.009  0.00  0.00    +0.087 C 
ATOM      3  C   UNL     1      -0.062   1.285   0.013  0.00  0.00    +0.069 C 
ATOM      4  N   UNL     1      -0.036  -0.003   0.005  0.00  0.00    -0.182 NA
ATOM      5  N   UNL     1       1.247  -0.546  -0.004  0.00  0.00    -0.195 N 
ATOM      6  C   UNL     1       1.546  -1.878  -0.013  0.00  0.00    +0.170 C 
ATOM      7  N   UNL     1       2.743  -2.450  -0.028  0.00  0.00    -0.157 NA
ATOM      8  C   UNL     1       2.943  -3.740  -0.030  0.00  0.00    +0.252 C 
ATOM      9  O   UNL     1       4.057  -4.225  -0.039  0.00  0.00    -0.272 OA
ATOM     10  C   UNL     1       1.682  -4.595  -0.029  0.00  0.00    +0.150 C 
ATOM     11  S   UNL     1       0.415  -3.263  -0.015  0.00  0.00    -0.078 S 
ENDROOT
BRANCH   3  12
ATOM     12  C   UNL     1      -1.283   2.111   0.019  0.00  0.00    -0.002 A 
ATOM     13  C   UNL     1      -1.187   3.505   0.032  0.00  0.00    +0.012 A 
ATOM     14  C   UNL     1      -2.333   4.272   0.033  0.00  0.00    +0.039 A 
ATOM     15  C   UNL     1      -3.578   3.663   0.031  0.00  0.00    +0.123 A 
ATOM     16  C   UNL     1      -3.680   2.281   0.022  0.00  0.00    +0.039 A 
ATOM     17  C   UNL     1      -2.541   1.503   0.016  0.00  0.00    +0.012 A 
ATOM     18  F   UNL     1      -4.697   4.420   0.037  0.00  0.00    -0.205 F 
ENDBRANCH   3  12
BRANCH   1  22
ATOM     19  C   UNL     1       4.679   0.372   3.491  0.00  0.00    -0.048 A 
ATOM     20  C   UNL     1       5.233   0.727   2.276  0.00  0.00    +0.004 A 
ATOM     21  C   UNL     1       4.440   0.784   1.145  0.00  0.00    +0.006 A 
ATOM     22  C   UNL     1       3.093   0.487   1.230  0.00  0.00    -0.025 A 
ATOM     23  C   UNL     1       2.537   0.138   2.446  0.00  0.00    +0.006 A 
ATOM     24  C   UNL     1       3.331   0.075   3.576  0.00  0.00    +0.004 A 
BRANCH  19  26
ATOM     25  C   UNL     1       5.548   1.673   5.415  0.00  0.00    +0.009 C 
ATOM     26  C   UNL     1       5.543   0.308   4.724  0.00  0.00    +0.032 C 
ENDBRANCH  19  26
ENDBRANCH   1  22
BRANCH  10  27
ATOM     27  C   UNL     1       1.596  -5.461   1.230  0.00  0.00    +0.120 C 
BRANCH  27  28
ATOM     28  C   UNL     1       0.295  -6.222   1.228  0.00  0.00    +0.219 C 
ATOM     29  O   UNL     1      -0.486  -6.085   0.310  0.00  0.00    -0.275 OA
ATOM     30  N   UNL     1      -0.000  -7.054   2.246  0.00  0.00    -0.285 N 
ATOM     31  H   UNL     1       0.745  -7.248   3.031  0.00  0.00    +0.155 HD
BRANCH  30  32
ATOM     32  C   UNL     1      -1.255  -7.672   2.303  0.00  0.00    +0.037 A 
ATOM     33  C   UNL     1      -2.347  -7.089   1.673  0.00  0.00    +0.027 A 
ATOM     34  C   UNL     1      -3.582  -7.704   1.727  0.00  0.00    -0.049 A 
ATOM     35  C   UNL     1      -3.735  -8.893   2.417  0.00  0.00    +0.004 A 
ATOM     36  C   UNL     1      -2.651  -9.472   3.050  0.00  0.00    +0.005 A 
ATOM     37  C   UNL     1      -1.411  -8.865   2.995  0.00  0.00    -0.029 A 
ATOM     38  C   UNL     1      -0.231  -9.497   3.687  0.00  0.00    +0.045 C 
ATOM     39  C   UNL     1      -4.766  -7.076   1.038  0.00  0.00    +0.044 C 
ENDBRANCH  30  32
ENDBRANCH  27  28
ENDBRANCH  10  27
TORSDOF 6
