REMARK  Name = ZINC49573721
REMARK  6 active torsions:
REMARK  status: ('A' for Active; 'I' for Inactive)
REMARK    1  A    between atoms: C_4  and  C_7
REMARK    2  A    between atoms: C_7  and  N_8
REMARK    3  A    between atoms: N_16  and  C_17
REMARK    4  A    between atoms: C_17  and  C_19
REMARK    5  A    between atoms: C_19  and  N_20
REMARK    6  A    between atoms: C_27  and  N_31
REMARK                            x       y       z     vdW  Elec       q    Type
REMARK                         _______ _______ _______ _____ _____    ______ ____
ROOT
ATOM      1  N   UNL     1       4.153  -0.953   1.342  0.00  0.00    +0.386 N 
ATOM      2  C   UNL     1       5.489  -1.562   1.326  0.00  0.00    -0.072 C 
ATOM      3  C   UNL     1       6.093  -1.550   2.734  0.00  0.00    +0.035 C 
ATOM      4  C   UNL     1       5.081  -2.175   3.686  0.00  0.00    +0.024 A 
ATOM      5  C   UNL     1       3.797  -2.294   3.308  0.00  0.00    -0.004 A 
ATOM      6  S   UNL     1       3.022  -3.059   4.702  0.00  0.00    -0.059 S 
ATOM      7  C   UNL     1       4.376  -3.184   5.695  0.00  0.00    +0.163 A 
ATOM      8  N   UNL     1       5.367  -2.644   4.938  0.00  0.00    -0.339 N 
ATOM      9  N   UNL     1       4.457  -3.690   6.928  0.00  0.00    -0.155 NA
ATOM     10  C   UNL     1       3.204  -1.866   2.007  0.00  0.00    -0.033 C 
ATOM     11  H   UNL     1       6.272  -2.592   5.283  0.00  0.00    +0.167 HD
ATOM     12  H   UNL     1       4.188  -0.079   1.845  0.00  0.00    -0.081 HD
ENDROOT
BRANCH   9  13
ATOM     13  C   UNL     1       5.620  -3.705   7.564  0.00  0.00    +0.256 C 
ATOM     14  O   UNL     1       6.614  -3.256   7.025  0.00  0.00    -0.272 OA
BRANCH  13  15
ATOM     15  C   UNL     1       5.712  -4.276   8.956  0.00  0.00    +0.214 C 
BRANCH  15  16
ATOM     16  N   UNL     1       7.092  -4.176   9.435  0.00  0.00    -0.225 N 
ATOM     17  C   UNL     1       8.031  -5.122   9.254  0.00  0.00    +0.254 C 
ATOM     18  O   UNL     1       7.872  -6.178   8.675  0.00  0.00    -0.270 OA
ATOM     19  C   UNL     1       9.290  -4.661   9.876  0.00  0.00    +0.052 A 
ATOM     20  C   UNL     1      10.561  -5.199  10.002  0.00  0.00    +0.014 A 
ATOM     21  C   UNL     1      11.546  -4.486  10.666  0.00  0.00    +0.003 A 
ATOM     22  C   UNL     1      11.270  -3.242  11.203  0.00  0.00    +0.033 A 
ATOM     23  C   UNL     1      10.004  -2.692  11.084  0.00  0.00    +0.139 A 
ATOM     24  C   UNL     1       9.009  -3.393  10.423  0.00  0.00    +0.080 A 
ATOM     25  C   UNL     1       7.589  -3.124  10.110  0.00  0.00    +0.256 C 
ATOM     26  O   UNL     1       6.974  -2.122  10.413  0.00  0.00    -0.269 OA
BRANCH  23  27
ATOM     27  N   UNL     1       9.716  -1.359  11.662  0.00  0.00    +0.057 N 
ATOM     28  O   UNL     1      10.586  -0.749  12.238  0.00  0.00    -0.126 OA
ATOM     29  O   UNL     1       8.610  -0.881  11.556  0.00  0.00    -0.126 OA
ENDBRANCH  23  27
ENDBRANCH  15  16
ENDBRANCH  13  15
ENDBRANCH   9  13
BRANCH   1  30
ATOM     30  C   UNL     1       3.711  -0.707  -0.038  0.00  0.00    -0.043 C 
BRANCH  30  34
ATOM     31  C   UNL     1      -0.017   1.378   0.010  0.00  0.00    +0.000 A 
ATOM     32  C   UNL     1       1.171   2.086   0.002  0.00  0.00    +0.000 A 
ATOM     33  C   UNL     1       2.377   1.411  -0.013  0.00  0.00    +0.002 A 
ATOM     34  C   UNL     1       2.396   0.029  -0.020  0.00  0.00    -0.064 A 
ATOM     35  C   UNL     1       1.208  -0.679  -0.012  0.00  0.00    +0.002 A 
ATOM     36  C   UNL     1       0.002  -0.004   0.002  0.00  0.00    +0.000 A 
ENDBRANCH  30  34
ENDBRANCH   1  30
TORSDOF 6
