REMARK  Name = ZINC64979820
REMARK  3 active torsions:
REMARK  status: ('A' for Active; 'I' for Inactive)
REMARK    1  A    between atoms: N_9  and  C_26
REMARK    2  A    between atoms: C_13  and  N_17
REMARK    3  A    between atoms: C_18  and  C_20
REMARK                            x       y       z     vdW  Elec       q    Type
REMARK                         _______ _______ _______ _____ _____    ______ ____
ROOT
ATOM      1  C   UNL     1       0.433   1.473  -0.453  0.00  0.00    +0.001 A 
ATOM      2  C   UNL     1       1.686   2.064  -0.504  0.00  0.00    +0.001 A 
ATOM      3  C   UNL     1       2.823   1.285  -0.426  0.00  0.00    +0.016 A 
ATOM      4  C   UNL     1       2.715  -0.093  -0.295  0.00  0.00    +0.025 A 
ATOM      5  C   UNL     1       1.452  -0.699  -0.239  0.00  0.00    +0.051 A 
ATOM      6  C   UNL     1       0.309   0.109  -0.322  0.00  0.00    +0.014 A 
ATOM      7  C   UNL     1       1.299  -2.145  -0.093  0.00  0.00    +0.252 C 
ATOM      8  O   UNL     1       0.451  -2.656  -0.799  0.00  0.00    -0.270 OA
ATOM      9  N   UNL     1       1.947  -2.965   0.691  0.00  0.00    -0.263 N 
ATOM     10  C   UNL     1       2.945  -2.720   1.627  0.00  0.00    +0.051 A 
ATOM     11  C   UNL     1       2.854  -3.337   2.873  0.00  0.00    +0.026 A 
ATOM     12  C   UNL     1       3.823  -3.126   3.833  0.00  0.00    +0.025 A 
ATOM     13  C   UNL     1       4.901  -2.293   3.565  0.00  0.00    +0.035 A 
ATOM     14  C   UNL     1       5.000  -1.673   2.327  0.00  0.00    +0.040 A 
ATOM     15  C   UNL     1       4.025  -1.885   1.363  0.00  0.00    +0.036 A 
ATOM     16  S   UNL     1       4.169  -1.084  -0.200  0.00  0.00    -0.087 S 
ENDROOT
BRANCH   9  17
ATOM     17  C   UNL     1       1.559  -4.372   0.562  0.00  0.00    +0.082 C 
ATOM     18  C   UNL     1       1.740  -4.839  -0.897  0.00  0.00    +0.023 C 
ATOM     19  C   UNL     1       0.545  -5.794  -1.141  0.00  0.00    +0.002 C 
ATOM     20  C   UNL     1      -0.608  -5.102  -0.373  0.00  0.00    +0.002 C 
ATOM     21  C   UNL     1       0.066  -4.539   0.896  0.00  0.00    +0.023 C 
ENDBRANCH   9  17
BRANCH  13  22
ATOM     22  N   UNL     1       5.884  -2.080   4.539  0.00  0.00    -0.279 N 
ATOM     23  C   UNL     1       6.209  -3.068   5.396  0.00  0.00    +0.284 C 
ATOM     24  O   UNL     1       5.719  -4.175   5.263  0.00  0.00    -0.266 OA
ATOM     25  H   UNL     1       6.331  -1.221   4.597  0.00  0.00    +0.155 HD
BRANCH  23  26
ATOM     26  C   UNL     1       7.153  -2.811   6.487  0.00  0.00    +0.191 A 
ATOM     27  C   UNL     1       7.571  -3.720   7.417  0.00  0.00    +0.056 A 
ATOM     28  C   UNL     1       8.465  -3.048   8.264  0.00  0.00    +0.058 A 
ATOM     29  C   UNL     1       8.554  -1.773   7.819  0.00  0.00    +0.171 A 
ATOM     30  O   UNL     1       7.766  -1.637   6.745  0.00  0.00    -0.444 OA
ATOM     31 BR   UNL     1       9.620  -0.411   8.584  0.00  0.00    -0.008 Br
ENDBRANCH  23  26
ENDBRANCH  13  22
TORSDOF 3
