REMARK  Name = ZINC09102520
REMARK  11 active torsions:
REMARK  status: ('A' for Active; 'I' for Inactive)
REMARK    1  A    between atoms: C_1  and  C_2
REMARK    2  A    between atoms: C_2  and  C_4
REMARK    3  A    between atoms: C_2  and  N_57
REMARK    4  A    between atoms: C_7  and  S_16
REMARK    5  A    between atoms: N_8  and  C_9
REMARK    6  A    between atoms: S_16  and  C_17
REMARK    7  A    between atoms: C_17  and  C_18
REMARK    8  A    between atoms: N_20  and  C_21
REMARK    9  A    between atoms: C_21  and  C_27
REMARK   10  A    between atoms: C_29  and  N_57
REMARK   11  A    between atoms: C_30  and  N_57
REMARK                            x       y       z     vdW  Elec       q    Type
REMARK                         _______ _______ _______ _____ _____    ______ ____
ROOT
ATOM      1  C   UNL     1       8.146   2.944   2.403  0.00  0.00    +0.125 A 
ATOM      2  N   UNL     1       7.640   3.444   1.311  0.00  0.00    -0.135 NA
ATOM      3  N   UNL     1       6.415   3.077   1.182  0.00  0.00    -0.122 NA
ATOM      4  C   UNL     1       6.067   2.316   2.194  0.00  0.00    +0.197 A 
ATOM      5  N   UNL     1       7.161   2.211   3.009  0.00  0.00    -0.275 N 
ENDROOT
BRANCH   5   6
ATOM      6  C   UNL     1       7.255   1.498   4.214  0.00  0.00    +0.050 A 
ATOM      7  C   UNL     1       7.467   2.174   5.407  0.00  0.00    +0.028 A 
ATOM      8  C   UNL     1       7.554   1.471   6.593  0.00  0.00    +0.022 A 
ATOM      9  C   UNL     1       7.441   0.092   6.590  0.00  0.00    +0.041 A 
ATOM     10  C   UNL     1       7.234  -0.585   5.401  0.00  0.00    +0.022 A 
ATOM     11  C   UNL     1       7.141   0.114   4.214  0.00  0.00    +0.028 A 
ATOM     12 CL   UNL     1       7.556  -0.791   8.081  0.00  0.00    -0.084 Cl
ENDBRANCH   5   6
BRANCH   1  14
ATOM     13  C   UNL     1      10.516   2.293   2.075  0.00  0.00    -0.005 C 
ATOM     14  C   UNL     1       9.552   3.141   2.908  0.00  0.00    -0.003 C 
BRANCH  14  17
ATOM     15  C   UNL     1       8.959   5.412   3.501  0.00  0.00    -0.096 C 
ATOM     16  C   UNL     1      11.288   4.789   3.275  0.00  0.00    -0.096 C 
ATOM     17  N   UNL     1       9.919   4.566   2.763  0.00  0.00    +0.382 N 
ATOM     18  H   UNL     1       9.890   4.818   1.768  0.00  0.00    -0.082 HD
ENDBRANCH  14  17
ENDBRANCH   1  14
BRANCH   4  19
ATOM     19  S   UNL     1       4.490   1.577   2.457  0.00  0.00    -0.076 S 
BRANCH  19  20
ATOM     20  C   UNL     1       3.614   2.177   0.990  0.00  0.00    +0.173 C 
BRANCH  20  21
ATOM     21  C   UNL     1       2.200   1.655   1.001  0.00  0.00    +0.224 C 
ATOM     22  O   UNL     1       1.822   0.948   1.910  0.00  0.00    -0.275 OA
ATOM     23  N   UNL     1       1.357   1.975  -0.000  0.00  0.00    -0.297 N 
ATOM     24  H   UNL     1       1.659   2.541  -0.728  0.00  0.00    +0.150 HD
BRANCH  23  25
ATOM     25  C   UNL     1      -0.018   1.468   0.010  0.00  0.00    +0.121 C 
ATOM     26  C   UNL     1      -0.734   1.961   1.269  0.00  0.00    +0.041 C 
ATOM     27  C   UNL     1      -2.169   1.432   1.280  0.00  0.00    +0.003 C 
ATOM     28  C   UNL     1      -2.909   1.938   0.040  0.00  0.00    +0.000 C 
ATOM     29  C   UNL     1      -2.193   1.445  -1.219  0.00  0.00    +0.003 C 
ATOM     30  C   UNL     1      -0.758   1.975  -1.229  0.00  0.00    +0.041 C 
BRANCH  25  31
ATOM     31  C   UNL     1       0.002  -0.004   0.002  0.00  0.00    +0.088 C 
ATOM     32  N   UNL     1       0.018  -1.140  -0.004  0.00  0.00    -0.194 NA
ENDBRANCH  25  31
ENDBRANCH  23  25
ENDBRANCH  20  21
ENDBRANCH  19  20
ENDBRANCH   4  19
TORSDOF 8
