REMARK  Name = ZINC33558109
REMARK  7 active torsions:
REMARK  status: ('A' for Active; 'I' for Inactive)
REMARK    1  A    between atoms: C_1  and  C_2
REMARK    2  A    between atoms: C_3  and  C_29
REMARK    3  A    between atoms: C_4  and  N_9
REMARK    4  A    between atoms: C_6  and  C_8
REMARK    5  A    between atoms: N_13  and  S_16
REMARK    6  A    between atoms: S_16  and  C_19
REMARK    7  A    between atoms: C_29  and  C_30
REMARK                            x       y       z     vdW  Elec       q    Type
REMARK                         _______ _______ _______ _____ _____    ______ ____
ROOT
ATOM      1  N   UNL     1      -0.028  -0.539   0.338  0.00  0.00    -0.314 N 
ATOM      2  C   UNL     1       0.458  -1.532   1.294  0.00  0.00    +0.108 C 
ATOM      3  C   UNL     1       1.949  -1.710   1.108  0.00  0.00    +0.036 C 
ATOM      4  C   UNL     1       2.704  -0.762   2.055  0.00  0.00    +0.111 C 
ATOM      5  N   UNL     1       2.047   0.557   2.129  0.00  0.00    -0.175 NA
ATOM      6  C   UNL     1       1.514   1.229   0.961  0.00  0.00    +0.128 C 
ATOM      7  C   UNL     1       0.038   0.813   0.749  0.00  0.00    +0.123 C 
ENDROOT
BRANCH   1  11
ATOM      8  C   UNL     1      -3.049  -2.175  -3.188  0.00  0.00    +0.064 C 
ATOM      9  C   UNL     1      -2.784  -1.650  -1.800  0.00  0.00    +0.021 A 
ATOM     10  C   UNL     1      -1.497  -1.339  -1.405  0.00  0.00    +0.016 A 
ATOM     11  C   UNL     1      -1.300  -0.860  -0.108  0.00  0.00    +0.128 A 
ATOM     12  N   UNL     1      -2.353  -0.713   0.690  0.00  0.00    -0.219 NA
ATOM     13  C   UNL     1      -3.564  -1.017   0.269  0.00  0.00    +0.106 A 
ATOM     14  N   UNL     1      -3.783  -1.476  -0.947  0.00  0.00    -0.347 N 
ATOM     15  C   UNL     1      -4.732  -0.835   1.204  0.00  0.00    +0.086 C 
ATOM     16  H   UNL     1      -4.813  -1.715  -1.250  0.00  0.00    +0.167 HD
BRANCH  10  17
ATOM     17  C   UNL     1      -0.335  -1.518  -2.347  0.00  0.00    +0.075 C 
BRANCH  17  18
ATOM     18  C   UNL     1      -0.169  -0.273  -3.181  0.00  0.00    -0.043 A 
ATOM     19  C   UNL     1      -0.791  -0.178  -4.412  0.00  0.00    +0.005 A 
ATOM     20  C   UNL     1      -0.643   0.965  -5.174  0.00  0.00    +0.020 A 
ATOM     21  C   UNL     1       0.137   2.010  -4.711  0.00  0.00    +0.041 A 
ATOM     22  C   UNL     1       0.764   1.911  -3.482  0.00  0.00    +0.020 A 
ATOM     23  C   UNL     1       0.611   0.770  -2.718  0.00  0.00    +0.005 A 
ATOM     24 CL   UNL     1       0.328   3.443  -5.671  0.00  0.00    -0.084 Cl
ENDBRANCH  17  18
ENDBRANCH  10  17
ENDBRANCH   1  11
BRANCH   5  25
ATOM     25  S   UNL     1       1.913   1.299   3.604  0.00  0.00    +0.063 S 
ATOM     26  O   UNL     1       0.817   2.198   3.509  0.00  0.00    -0.153 OA
ATOM     27  O   UNL     1       1.971   0.270   4.582  0.00  0.00    -0.153 OA
BRANCH  25  28
ATOM     28  C   UNL     1       3.356   2.285   3.824  0.00  0.00    +0.131 A 
ATOM     29  C   UNL     1       3.253   3.641   3.889  0.00  0.00    +0.031 A 
ATOM     30  C   UNL     1       4.381   4.439   4.068  0.00  0.00    +0.003 A 
ATOM     31  C   UNL     1       5.620   3.885   4.172  0.00  0.00    +0.010 A 
ATOM     32  C   UNL     1       5.764   2.490   4.104  0.00  0.00    +0.002 A 
ATOM     33  C   UNL     1       4.618   1.676   3.928  0.00  0.00    +0.097 A 
ATOM     34  N   UNL     1       4.750   0.347   3.864  0.00  0.00    -0.253 NA
ATOM     35  C   UNL     1       5.925  -0.227   3.960  0.00  0.00    +0.111 A 
ATOM     36  C   UNL     1       7.091   0.516   4.134  0.00  0.00    +0.020 A 
ATOM     37  C   UNL     1       7.028   1.878   4.208  0.00  0.00    +0.011 A 
ENDBRANCH  25  28
ENDBRANCH   5  25
TORSDOF 5
