REMARK  Name = ZINC08788919
REMARK  7 active torsions:
REMARK  status: ('A' for Active; 'I' for Inactive)
REMARK    1  A    between atoms: C_1  and  O_2
REMARK    2  A    between atoms: O_2  and  C_3
REMARK    3  A    between atoms: C_8  and  C_9
REMARK    4  A    between atoms: C_9  and  N_10
REMARK    5  A    between atoms: C_15  and  C_32
REMARK    6  A    between atoms: C_32  and  C_33
REMARK    7  A    between atoms: C_33  and  C_34
REMARK                            x       y       z     vdW  Elec       q    Type
REMARK                         _______ _______ _______ _____ _____    ______ ____
ROOT
ATOM      1  N   UNL     1       1.270  -0.431  -0.003  0.00  0.00    -0.237 N 
ATOM      2  C   UNL     1       0.002  -0.004   0.002  0.00  0.00    +0.224 C 
ATOM      3  O   UNL     1      -0.978  -0.718  -0.001  0.00  0.00    -0.275 OA
ATOM      4  C   UNL     1      -0.018   1.507   0.010  0.00  0.00    +0.073 C 
ATOM      5  C   UNL     1      -0.567   2.018  -1.339  0.00  0.00    -0.057 C 
ATOM      6  C   UNL     1       1.701   2.578  -1.355  0.00  0.00    +0.050 C 
ATOM      7  C   UNL     1       1.489   1.887  -0.002  0.00  0.00    +0.088 C 
ATOM      8  C   UNL     1       2.185   0.545  -0.003  0.00  0.00    +0.225 C 
ATOM      9  O   UNL     1       3.386   0.379  -0.004  0.00  0.00    -0.275 OA
ATOM     10  C   UNL     1       1.670   4.074  -1.221  0.00  0.00    -0.026 A 
ATOM     11  C   UNL     1       0.722   4.965  -0.768  0.00  0.00    +0.024 A 
ATOM     12  C   UNL     1       0.994   6.323  -0.766  0.00  0.00    +0.041 A 
ATOM     13  C   UNL     1       2.220   6.780  -1.219  0.00  0.00    +0.022 A 
ATOM     14  C   UNL     1       3.170   5.890  -1.674  0.00  0.00    +0.025 A 
ATOM     15  C   UNL     1       2.905   4.522  -1.680  0.00  0.00    +0.036 A 
ATOM     16  N   UNL     1       3.691   3.441  -2.084  0.00  0.00    -0.286 N 
ATOM     17  C   UNL     1       3.056   2.264  -1.926  0.00  0.00    +0.211 C 
ATOM     18  O   UNL     1       3.493   1.164  -2.192  0.00  0.00    -0.277 OA
ATOM     19 CL   UNL     1      -0.198   7.448  -0.196  0.00  0.00    -0.084 Cl
ATOM     20  H   UNL     1       4.590   3.528  -2.438  0.00  0.00    +0.155 HD
ATOM     21  N   UNL     1       0.618   2.099  -2.196  0.00  0.00    +0.394 N 
ATOM     22  H   UNL     1       0.452   2.754  -2.969  0.00  0.00    -0.083 HD
ATOM     23  H   UNL     1       0.845   1.172  -2.575  0.00  0.00    -0.083 HD
ENDROOT
BRANCH   1  24
ATOM     24  C   UNL     1       1.627  -1.852  -0.007  0.00  0.00    +0.155 C 
BRANCH  24  30
ATOM     25  C   UNL     1       2.900  -2.080  -2.155  0.00  0.00    +0.125 A 
ATOM     26  C   UNL     1       3.006  -2.527  -3.465  0.00  0.00    +0.046 A 
ATOM     27  C   UNL     1       1.964  -3.226  -4.041  0.00  0.00    +0.004 A 
ATOM     28  C   UNL     1       0.815  -3.480  -3.315  0.00  0.00    +0.001 A 
ATOM     29  C   UNL     1       0.708  -3.040  -2.009  0.00  0.00    +0.009 A 
ATOM     30  C   UNL     1       1.746  -2.336  -1.429  0.00  0.00    +0.012 A 
BRANCH  25  32
ATOM     31  C   UNL     1       5.081  -1.165  -2.393  0.00  0.00    +0.277 C 
ATOM     32  O   UNL     1       3.924  -1.392  -1.585  0.00  0.00    -0.495 OA
ENDBRANCH  25  32
ENDBRANCH  24  30
ENDBRANCH   1  24
BRANCH   5  33
ATOM     33  C   UNL     1      -1.597   1.035  -1.901  0.00  0.00    -0.006 C 
BRANCH  33  34
ATOM     34  C   UNL     1      -2.218   1.619  -3.171  0.00  0.00    +0.094 C 
BRANCH  34  35
ATOM     35  C   UNL     1      -3.232   0.651  -3.725  0.00  0.00    +0.210 C 
ATOM     36  O   UNL     1      -3.437  -0.402  -3.159  0.00  0.00    -0.276 OA
ATOM     37  N   UNL     1      -3.910   0.955  -4.849  0.00  0.00    -0.329 N 
ATOM     38  H   UNL     1      -3.746   1.797  -5.302  0.00  0.00    +0.145 HD
ATOM     39  H   UNL     1      -4.563   0.332  -5.205  0.00  0.00    +0.145 HD
ENDBRANCH  34  35
ENDBRANCH  33  34
ENDBRANCH   5  33
TORSDOF 6
