REMARK  Name = ZINC34780123
REMARK  11 active torsions:
REMARK  status: ('A' for Active; 'I' for Inactive)
REMARK    1  A    between atoms: C_1  and  C_2
REMARK    2  A    between atoms: C_2  and  C_3
REMARK    3  A    between atoms: C_8  and  C_9
REMARK    4  A    between atoms: C_11  and  C_25
REMARK    5  A    between atoms: C_12  and  C_24
REMARK    6  A    between atoms: N_13  and  C_14
REMARK    7  A    between atoms: C_14  and  C_15
REMARK    8  A    between atoms: C_28  and  C_34
REMARK    9  A    between atoms: C_28  and  C_35
REMARK   10  A    between atoms: C_31  and  C_32
REMARK   11  A    between atoms: C_31  and  C_33
REMARK                            x       y       z     vdW  Elec       q    Type
REMARK                         _______ _______ _______ _____ _____    ______ ____
ROOT
ATOM      1  C   UNL     1       2.776   0.249  -0.326  0.00  0.00    +0.051 A 
ATOM      2  C   UNL     1       2.593  -0.227   0.932  0.00  0.00    +0.041 A 
ATOM      3  C   UNL     1       3.635   0.306   1.734  0.00  0.00    +0.057 A 
ATOM      4  C   UNL     1       4.414   1.091   0.911  0.00  0.00    +0.029 A 
ATOM      5  N   UNL     1       3.893   1.048  -0.331  0.00  0.00    -0.339 N 
ATOM      6  C   UNL     1       5.640   1.862   1.328  0.00  0.00    +0.064 C 
ENDROOT
BRANCH   1  12
ATOM      7  C   UNL     1       0.544   0.170  -1.434  0.00  0.00    -0.038 A 
ATOM      8  C   UNL     1      -0.239  -0.108  -2.532  0.00  0.00    +0.008 A 
ATOM      9  C   UNL     1       0.325  -0.608  -3.699  0.00  0.00    -0.038 A 
ATOM     10  C   UNL     1       1.685  -0.827  -3.767  0.00  0.00    -0.037 A 
ATOM     11  C   UNL     1       2.482  -0.553  -2.666  0.00  0.00    +0.014 A 
ATOM     12  C   UNL     1       1.920  -0.048  -1.496  0.00  0.00    +0.002 A 
ATOM     13  C   UNL     1       2.361  -1.351  -5.007  0.00  0.00    -0.010 C 
ATOM     14  C   UNL     1       1.342  -1.994  -5.944  0.00  0.00    +0.012 C 
ATOM     15  C   UNL     1       0.190  -1.006  -6.158  0.00  0.00    +0.012 C 
ATOM     16  C   UNL     1      -0.599  -0.895  -4.855  0.00  0.00    -0.010 C 
ATOM     17  C   UNL     1      -1.620   0.237  -4.977  0.00  0.00    +0.016 C 
ATOM     18  C   UNL     1      -1.335  -2.212  -4.597  0.00  0.00    +0.016 C 
ATOM     19  C   UNL     1       3.053  -0.194  -5.731  0.00  0.00    +0.016 C 
ATOM     20  C   UNL     1       3.408  -2.393  -4.608  0.00  0.00    +0.016 C 
BRANCH   7  22
ATOM     21  C   UNL     1       0.129   2.229  -0.115  0.00  0.00    +0.009 C 
ATOM     22  C   UNL     1      -0.081   0.715  -0.175  0.00  0.00    +0.032 C 
ENDBRANCH   7  22
ENDBRANCH   1  12
BRANCH   3  23
ATOM     23  C   UNL     1       3.845   0.065   3.172  0.00  0.00    +0.243 C 
ATOM     24  O   UNL     1       4.784   0.585   3.745  0.00  0.00    -0.270 OA
ATOM     25  N   UNL     1       2.998  -0.732   3.853  0.00  0.00    -0.325 N 
ATOM     26  H   UNL     1       2.249  -1.146   3.396  0.00  0.00    +0.145 HD
ATOM     27  H   UNL     1       3.136  -0.890   4.800  0.00  0.00    +0.145 HD
ENDBRANCH   3  23
BRANCH   5  28
ATOM     28  C   UNL     1       4.430   1.747  -1.501  0.00  0.00    +0.157 C 
BRANCH  28  29
ATOM     29  C   UNL     1       3.718   3.064  -1.671  0.00  0.00    -0.024 A 
ATOM     30  C   UNL     1       2.563   3.131  -2.429  0.00  0.00    +0.009 A 
ATOM     31  C   UNL     1       1.906   4.336  -2.587  0.00  0.00    +0.050 A 
ATOM     32  C   UNL     1       2.403   5.481  -1.987  0.00  0.00    +0.166 A 
ATOM     33  C   UNL     1       3.566   5.414  -1.224  0.00  0.00    +0.167 A 
ATOM     34  C   UNL     1       4.217   4.201  -1.065  0.00  0.00    +0.055 A 
ATOM     35  O   UNL     1       3.847   6.661  -0.745  0.00  0.00    -0.453 OA
ATOM     36  C   UNL     1       3.075   7.567  -1.556  0.00  0.00    +0.466 C 
ATOM     37  O   UNL     1       1.955   6.771  -1.986  0.00  0.00    -0.453 OA
ENDBRANCH  28  29
ENDBRANCH   5  28
TORSDOF 5
