REMARK  Name = ZINC28295089
REMARK  4 active torsions:
REMARK  status: ('A' for Active; 'I' for Inactive)
REMARK    1  A    between atoms: C_4  and  O_30
REMARK    2  A    between atoms: C_5  and  C_7
REMARK    3  A    between atoms: N_23  and  C_26
REMARK    4  A    between atoms: C_26  and  C_27
REMARK                            x       y       z     vdW  Elec       q    Type
REMARK                         _______ _______ _______ _____ _____    ______ ____
ROOT
ATOM      1  C   UNL     1       1.227  -2.187  -0.022  0.00  0.00    +0.075 C 
ATOM      2  C   UNL     1       0.613  -2.662   1.237  0.00  0.00    +0.033 A 
ATOM      3  C   UNL     1      -0.218  -3.700   1.446  0.00  0.00    +0.088 A 
ATOM      4  N   UNL     1      -0.580  -3.911   2.755  0.00  0.00    -0.311 N 
ATOM      5  H   UNL     1      -1.155  -4.657   2.986  0.00  0.00    +0.170 HD
ATOM      6  C   UNL     1      -0.135  -3.079   3.715  0.00  0.00    +0.289 A 
ATOM      7  O   UNL     1      -0.363  -3.115   4.912  0.00  0.00    -0.260 OA
ATOM      8  S   UNL     1       0.812  -1.979   2.866  0.00  0.00    -0.030 S 
ATOM      9  S   UNL     1      -0.802  -4.670   0.079  0.00  0.00    -0.093 S 
ATOM     10  C   UNL     1       0.221  -4.157  -1.294  0.00  0.00    +0.152 C 
ATOM     11  C   UNL     1       0.567  -2.663  -1.313  0.00  0.00    +0.110 C 
ATOM     12  C   UNL     1       1.749  -2.746  -2.306  0.00  0.00    +0.228 C 
ATOM     13  O   UNL     1       2.098  -1.890  -3.089  0.00  0.00    -0.275 OA
ATOM     14  N   UNL     1       2.316  -3.958  -2.130  0.00  0.00    -0.230 N 
ATOM     15  C   UNL     1       1.567  -4.808  -1.400  0.00  0.00    +0.236 C 
ATOM     16  O   UNL     1       1.905  -5.877  -0.939  0.00  0.00    -0.274 OA
ENDROOT
BRANCH   1  21
ATOM     17  C   UNL     1      -0.017   1.378   0.010  0.00  0.00    +0.001 A 
ATOM     18  C   UNL     1       1.170   2.088   0.002  0.00  0.00    +0.004 A 
ATOM     19  C   UNL     1       2.377   1.417  -0.013  0.00  0.00    +0.046 A 
ATOM     20  C   UNL     1       2.399   0.030  -0.021  0.00  0.00    +0.121 A 
ATOM     21  C   UNL     1       1.207  -0.680  -0.013  0.00  0.00    +0.003 A 
ATOM     22  C   UNL     1       0.002  -0.004   0.002  0.00  0.00    +0.008 A 
BRANCH  20  23
ATOM     23  O   UNL     1       3.586  -0.632  -0.037  0.00  0.00    -0.506 OA
ATOM     24  H   UNL     1       3.938  -0.829   0.842  0.00  0.00    +0.292 HD
ENDBRANCH  20  23
ENDBRANCH   1  21
BRANCH  14  25
ATOM     25  C   UNL     1       3.632  -4.311  -2.670  0.00  0.00    +0.241 C 
BRANCH  25  26
ATOM     26  C   UNL     1       4.697  -3.971  -1.659  0.00  0.00    +0.373 C 
ATOM     27  O   UNL     1       4.386  -3.480  -0.588  0.00  0.00    -0.245 OA
ATOM     28  O   UNL     1       5.870  -4.188  -1.913  0.00  0.00    -0.245 OA
ENDBRANCH  25  26
ENDBRANCH  14  25
TORSDOF 4
