REMARK  Name = ZINC63506759
REMARK  11 active torsions:
REMARK  status: ('A' for Active; 'I' for Inactive)
REMARK    1  A    between atoms: C_1  and  C_2
REMARK    2  A    between atoms: C_2  and  C_3
REMARK    3  A    between atoms: C_3  and  C_29
REMARK    4  A    between atoms: C_4  and  C_27
REMARK    5  A    between atoms: C_4  and  O_28
REMARK    6  A    between atoms: N_5  and  C_9
REMARK    7  A    between atoms: C_9  and  C_10
REMARK    8  A    between atoms: C_10  and  C_11
REMARK    9  A    between atoms: C_14  and  O_22
REMARK   10  A    between atoms: C_19  and  C_21
REMARK   11  A    between atoms: O_22  and  C_23
REMARK                            x       y       z     vdW  Elec       q    Type
REMARK                         _______ _______ _______ _____ _____    ______ ____
ROOT
ATOM      1  C   UNL     1       0.322  -4.848   3.560  0.00  0.00    -0.037 C 
ATOM      2  C   UNL     1      -0.591  -5.807   3.834  0.00  0.00    +0.003 A 
ATOM      3  C   UNL     1      -2.016  -5.945   3.515  0.00  0.00    +0.056 A 
ATOM      4  C   UNL     1      -2.690  -7.043   3.932  0.00  0.00    +0.131 A 
ATOM      5  C   UNL     1      -2.071  -8.069   4.668  0.00  0.00    +0.048 A 
ATOM      6  C   UNL     1      -0.765  -8.033   5.009  0.00  0.00    +0.029 A 
ATOM      7  C   UNL     1       0.061  -6.889   4.608  0.00  0.00    +0.043 A 
ATOM      8  N   UNL     1       1.325  -6.609   4.805  0.00  0.00    -0.378 N 
ATOM      9  C   UNL     1       1.623  -5.319   4.172  0.00  0.00    +0.103 C 
ATOM     10  C   UNL     1       2.105  -4.318   5.223  0.00  0.00    +0.035 C 
ATOM     11  H   UNL     1       1.959  -7.164   5.286  0.00  0.00    +0.160 HD
ENDROOT
BRANCH   1  12
ATOM     12  C   UNL     1       0.092  -3.570   2.794  0.00  0.00    +0.052 C 
BRANCH  12  13
ATOM     13  C   UNL     1      -1.371  -3.495   2.356  0.00  0.00    +0.118 C 
BRANCH  13  16
ATOM     14  C   UNL     1      -1.433  -0.534   0.013  0.00  0.00    +0.157 C 
ATOM     15  C   UNL     1      -1.453  -2.074   0.154  0.00  0.00    +0.175 C 
ATOM     16  N   UNL     1      -1.595  -2.253   1.612  0.00  0.00    -0.235 N 
ATOM     17  C   UNL     1      -1.967  -1.070   2.136  0.00  0.00    +0.406 C 
ATOM     18  O   UNL     1      -2.140  -0.885   3.324  0.00  0.00    -0.226 OA
ATOM     19  O   UNL     1      -2.127  -0.115   1.204  0.00  0.00    -0.439 OA
ATOM     20  C   UNL     1      -2.649  -2.674  -0.588  0.00  0.00    +0.068 C 
ATOM     21  C   UNL     1      -2.186  -0.089  -1.243  0.00  0.00    +0.060 C 
BRANCH  14  23
ATOM     22  C   UNL     1      -0.019   1.526   0.010  0.00  0.00    +0.008 C 
ATOM     23  C   UNL     1       0.002  -0.004   0.002  0.00  0.00    +0.049 C 
ENDBRANCH  14  23
BRANCH  15  24
ATOM     24  O   UNL     1      -0.227  -2.643  -0.311  0.00  0.00    -0.368 OA
ATOM     25  H   UNL     1      -0.190  -3.607  -0.244  0.00  0.00    +0.212 HD
ENDBRANCH  15  24
ENDBRANCH  13  16
ENDBRANCH  12  13
ENDBRANCH   1  12
BRANCH   4  26
ATOM     26  O   UNL     1      -4.010  -7.157   3.630  0.00  0.00    -0.406 OA
BRANCH  26  27
ATOM     27  C   UNL     1      -4.682  -8.332   4.090  0.00  0.00    +0.575 C 
ATOM     28  F   UNL     1      -4.609  -8.395   5.486  0.00  0.00    -0.133 F 
ATOM     29  F   UNL     1      -6.023  -8.287   3.695  0.00  0.00    -0.133 F 
ATOM     30  F   UNL     1      -4.071  -9.464   3.540  0.00  0.00    -0.133 F 
ENDBRANCH  26  27
ENDBRANCH   4  26
TORSDOF 7
