REMARK  Name = ZINC11550711
REMARK  4 active torsions:
REMARK  status: ('A' for Active; 'I' for Inactive)
REMARK    1  A    between atoms: C_1  and  C_2
REMARK    2  A    between atoms: C_8  and  C_10
REMARK    3  A    between atoms: C_11  and  C_26
REMARK    4  A    between atoms: C_16  and  C_18
REMARK                            x       y       z     vdW  Elec       q    Type
REMARK                         _______ _______ _______ _____ _____    ______ ____
ROOT
ATOM      1  C   UNL     1       1.626  -3.973   0.036  0.00  0.00    +0.056 C 
ATOM      2  C   UNL     1       0.739  -4.991   0.018  0.00  0.00    +0.017 C 
ATOM      3  N   UNL     1       1.158  -6.290  -0.002  0.00  0.00    -0.300 N 
ATOM      4  C   UNL     1       2.446  -6.656   0.006  0.00  0.00    +0.135 C 
ATOM      5  S   UNL     1       2.834  -8.323  -0.014  0.00  0.00    -0.019 S 
ATOM      6  N   UNL     1       3.447  -5.754   0.029  0.00  0.00    -0.315 N 
ATOM      7  C   UNL     1       3.101  -4.323   0.046  0.00  0.00    +0.141 C 
ATOM      8  C   UNL     1      -0.737  -4.687   0.013  0.00  0.00    +0.061 C 
ATOM      9  H   UNL     1       0.484  -6.988  -0.018  0.00  0.00    +0.154 HD
ATOM     10  H   UNL     1       4.374  -6.041   0.035  0.00  0.00    +0.149 HD
ENDROOT
BRANCH   1  18
ATOM     11  C   UNL     1      -0.823   2.447   0.408  0.00  0.00    +0.089 C 
ATOM     12  C   UNL     1      -0.484   1.205  -0.375  0.00  0.00    +0.136 A 
ATOM     13  C   UNL     1       0.091   0.079   0.105  0.00  0.00    +0.091 A 
ATOM     14  C   UNL     1       0.181  -0.770  -1.030  0.00  0.00    +0.168 A 
ATOM     15  N   UNL     1      -0.326  -0.097  -2.030  0.00  0.00    -0.063 NA
ATOM     16  O   UNL     1      -0.699   0.999  -1.683  0.00  0.00    -0.358 OA
ATOM     17  N   UNL     1       0.704  -2.061  -1.070  0.00  0.00    -0.264 N 
ATOM     18  C   UNL     1       1.193  -2.625   0.052  0.00  0.00    +0.249 C 
ATOM     19  O   UNL     1       1.263  -1.975   1.079  0.00  0.00    -0.270 OA
ATOM     20  H   UNL     1       0.716  -2.554  -1.906  0.00  0.00    +0.157 HD
ENDBRANCH   1  18
BRANCH   7  21
ATOM     21  C   UNL     1       3.740  -3.676  -1.156  0.00  0.00    -0.004 A 
ATOM     22  C   UNL     1       3.858  -4.382  -2.338  0.00  0.00    +0.008 A 
ATOM     23  C   UNL     1       4.439  -3.788  -3.443  0.00  0.00    +0.020 A 
ATOM     24  C   UNL     1       4.912  -2.490  -3.362  0.00  0.00    +0.042 A 
ATOM     25  C   UNL     1       4.799  -1.786  -2.178  0.00  0.00    +0.040 A 
ATOM     26  C   UNL     1       4.212  -2.379  -1.074  0.00  0.00    +0.048 A 
ATOM     27 CL   UNL     1       4.069  -1.495   0.413  0.00  0.00    -0.083 Cl
ATOM     28 CL   UNL     1       5.647  -1.746  -4.748  0.00  0.00    -0.083 Cl
ENDBRANCH   7  21
TORSDOF 2
