REMARK  Name = ZINC65398116
REMARK  3 active torsions:
REMARK  status: ('A' for Active; 'I' for Inactive)
REMARK    1  A    between atoms: C_4  and  C_7
REMARK    2  A    between atoms: C_7  and  C_8
REMARK    3  A    between atoms: C_11  and  C_14
REMARK                            x       y       z     vdW  Elec       q    Type
REMARK                         _______ _______ _______ _____ _____    ______ ____
ROOT
ATOM      1  C   UNL     1       4.164  -0.959   1.377  0.00  0.00    +0.156 A 
ATOM      2  N   UNL     1       3.867  -2.035   2.101  0.00  0.00    -0.211 NA
ATOM      3  H   UNL     1       5.608  -0.417   4.087  0.00  0.00    +0.191 HD
ATOM      4  C   UNL     1       4.423  -1.938   3.292  0.00  0.00    +0.156 A 
ATOM      5  N   UNL     1       5.098  -0.766   3.339  0.00  0.00    -0.259 N 
ATOM      6  N   UNL     1       4.917  -0.158   2.086  0.00  0.00    -0.157 NA
ENDROOT
BRANCH   4   7
ATOM      7  C   UNL     1       4.325  -2.931   4.384  0.00  0.00    +0.020 A 
ATOM      8  C   UNL     1       4.962  -2.701   5.610  0.00  0.00    +0.014 A 
ATOM      9  C   UNL     1       4.886  -3.599   6.626  0.00  0.00    +0.029 A 
ATOM     10  C   UNL     1       4.157  -4.799   6.477  0.00  0.00    +0.078 A 
ATOM     11  C   UNL     1       3.521  -5.012   5.231  0.00  0.00    +0.040 A 
ATOM     12  C   UNL     1       3.592  -4.105   4.206  0.00  0.00    +0.028 A 
ATOM     13  S   UNL     1       2.747  -6.589   5.478  0.00  0.00    -0.075 S 
ATOM     14  C   UNL     1       3.256  -6.856   7.059  0.00  0.00    +0.157 A 
ATOM     15  N   UNL     1       3.964  -5.804   7.354  0.00  0.00    -0.247 NA
ENDBRANCH   4   7
BRANCH   1  16
ATOM     16  C   UNL     1       3.711  -0.707  -0.038  0.00  0.00    +0.113 C 
BRANCH  16  20
ATOM     17  C   UNL     1      -0.017   1.378   0.010  0.00  0.00    +0.000 A 
ATOM     18  C   UNL     1       1.171   2.086   0.002  0.00  0.00    +0.000 A 
ATOM     19  C   UNL     1       2.377   1.411  -0.013  0.00  0.00    +0.004 A 
ATOM     20  C   UNL     1       2.396   0.029  -0.020  0.00  0.00    -0.040 A 
ATOM     21  C   UNL     1       1.208  -0.679  -0.012  0.00  0.00    +0.004 A 
ATOM     22  C   UNL     1       0.002  -0.004   0.002  0.00  0.00    +0.000 A 
ENDBRANCH  16  20
ENDBRANCH   1  16
TORSDOF 3
