REMARK  Name = ZINC39940672
REMARK  11 active torsions:
REMARK  status: ('A' for Active; 'I' for Inactive)
REMARK    1  A    between atoms: C_1  and  C_2
REMARK    2  A    between atoms: C_4  and  C_12
REMARK    3  A    between atoms: C_12  and  C_14
REMARK    4  A    between atoms: C_14  and  S_15
REMARK    5  A    between atoms: S_15  and  C_16
REMARK    6  A    between atoms: C_19  and  C_31
REMARK    7  A    between atoms: N_20  and  C_21
REMARK    8  A    between atoms: C_24  and  O_29
REMARK    9  A    between atoms: C_25  and  O_27
REMARK   10  A    between atoms: O_27  and  C_28
REMARK   11  A    between atoms: O_29  and  C_30
REMARK                            x       y       z     vdW  Elec       q    Type
REMARK                         _______ _______ _______ _____ _____    ______ ____
ROOT
ATOM      1  C   UNL     1      -6.396  -1.291  -1.734  0.00  0.00    +0.197 A 
ATOM      2  N   UNL     1      -6.655  -2.028  -0.676  0.00  0.00    -0.122 NA
ATOM      3  N   UNL     1      -7.867  -2.451  -0.718  0.00  0.00    -0.128 NA
ATOM      4  C   UNL     1      -8.459  -2.011  -1.804  0.00  0.00    +0.169 A 
ATOM      5  N   UNL     1      -7.537  -1.249  -2.486  0.00  0.00    -0.270 N 
ENDROOT
BRANCH   5   6
ATOM      6  C   UNL     1      -7.727  -0.573  -3.701  0.00  0.00    +0.054 A 
ATOM      7  C   UNL     1      -8.622   0.486  -3.774  0.00  0.00    +0.030 A 
ATOM      8  C   UNL     1      -8.811   1.153  -4.969  0.00  0.00    +0.051 A 
ATOM      9  C   UNL     1      -8.107   0.766  -6.098  0.00  0.00    +0.162 A 
ATOM     10  C   UNL     1      -7.208  -0.294  -6.028  0.00  0.00    +0.163 A 
ATOM     11  C   UNL     1      -7.015  -0.958  -4.829  0.00  0.00    +0.075 A 
BRANCH  10  12
ATOM     12  O   UNL     1      -6.516  -0.673  -7.136  0.00  0.00    -0.491 OA
ATOM     13  C   UNL     1      -5.611  -1.770  -6.991  0.00  0.00    +0.277 C 
ENDBRANCH  10  12
BRANCH   9  14
ATOM     14  O   UNL     1      -8.294   1.424  -7.274  0.00  0.00    -0.491 OA
ATOM     15  C   UNL     1      -9.232   2.502  -7.273  0.00  0.00    +0.277 C 
ENDBRANCH   9  14
ENDBRANCH   5   6
BRANCH   4  16
ATOM     16  C   UNL     1      -9.854  -2.277  -2.214  0.00  0.00    +0.020 A 
ATOM     17  C   UNL     1     -10.260  -2.023  -3.525  0.00  0.00    +0.011 A 
ATOM     18  C   UNL     1     -11.564  -2.274  -3.901  0.00  0.00    +0.001 A 
ATOM     19  C   UNL     1     -12.467  -2.776  -2.982  0.00  0.00    +0.000 A 
ATOM     20  C   UNL     1     -12.072  -3.030  -1.681  0.00  0.00    +0.001 A 
ATOM     21  C   UNL     1     -10.770  -2.790  -1.294  0.00  0.00    +0.011 A 
ENDBRANCH   4  16
BRANCH   1  22
ATOM     22  S   UNL     1      -4.866  -0.500  -2.107  0.00  0.00    -0.078 S 
BRANCH  22  23
ATOM     23  C   UNL     1      -3.787  -0.953  -0.721  0.00  0.00    +0.156 C 
BRANCH  23  24
ATOM     24  C   UNL     1      -2.428  -0.333  -0.919  0.00  0.00    +0.172 C 
ATOM     25  O   UNL     1      -2.209   0.349  -1.899  0.00  0.00    -0.291 OA
BRANCH  24  28
ATOM     26  C   UNL     1      -0.019   1.526   0.010  0.00  0.00    +0.035 C 
ATOM     27  C   UNL     1       0.002  -0.004   0.002  0.00  0.00    +0.111 C 
ATOM     28  C   UNL     1      -1.411  -0.544   0.036  0.00  0.00    +0.027 C 
ATOM     29  C   UNL     1      -1.496  -1.289   1.198  0.00  0.00    +0.006 A 
ATOM     30  C   UNL     1      -2.543  -2.035   1.788  0.00  0.00    +0.010 A 
ATOM     31  C   UNL     1      -2.344  -2.680   2.960  0.00  0.00    +0.001 A 
ATOM     32  C   UNL     1      -1.116  -2.646   3.640  0.00  0.00    +0.002 A 
ATOM     33  C   UNL     1      -0.053  -1.963   3.162  0.00  0.00    +0.026 A 
ATOM     34  C   UNL     1      -0.185  -1.232   1.891  0.00  0.00    +0.043 A 
ATOM     35  N   UNL     1       0.660  -0.506   1.212  0.00  0.00    -0.377 N 
ATOM     36  H   UNL     1       1.578  -0.327   1.468  0.00  0.00    +0.160 HD
ENDBRANCH  24  28
ENDBRANCH  23  24
ENDBRANCH  22  23
ENDBRANCH   1  22
TORSDOF 8
