REMARK  Name = ZINC12499538
REMARK  6 active torsions:
REMARK  status: ('A' for Active; 'I' for Inactive)
REMARK    1  A    between atoms: C_1  and  C_2
REMARK    2  A    between atoms: C_2  and  C_3
REMARK    3  A    between atoms: C_2  and  C_4
REMARK    4  A    between atoms: C_2  and  C_5
REMARK    5  A    between atoms: N_7  and  C_8
REMARK    6  A    between atoms: N_21  and  C_22
REMARK                            x       y       z     vdW  Elec       q    Type
REMARK                         _______ _______ _______ _____ _____    ______ ____
ROOT
ATOM      1  C   UNL     1       1.205  -3.335  -3.280  0.00  0.00    +0.076 C 
ATOM      2  C   UNL     1       2.461  -2.731  -2.652  0.00  0.00    +0.045 C 
ATOM      3  C   UNL     1       3.630  -2.822  -3.637  0.00  0.00    +0.080 C 
ATOM      4  C   UNL     1       4.743  -3.679  -3.022  0.00  0.00    +0.023 C 
ATOM      5  C   UNL     1       4.231  -5.093  -2.761  0.00  0.00    +0.004 C 
ATOM      6  C   UNL     1       3.734  -5.730  -4.058  0.00  0.00    +0.023 C 
ATOM      7  C   UNL     1       2.616  -4.871  -4.662  0.00  0.00    +0.080 C 
ATOM      8  C   UNL     1       1.451  -4.792  -3.668  0.00  0.00    +0.045 C 
ATOM      9  N   UNL     1       3.155  -3.509  -4.854  0.00  0.00    -0.279 N 
ATOM     10  C   UNL     1       3.211  -2.929  -6.069  0.00  0.00    +0.307 C 
ATOM     11  O   UNL     1       2.897  -3.561  -7.059  0.00  0.00    -0.252 OA
ATOM     12  N   UNL     1       3.614  -1.648  -6.186  0.00  0.00    -0.269 N 
ATOM     13  H   UNL     1       3.962  -1.177  -5.413  0.00  0.00    +0.156 HD
ENDROOT
BRANCH  12  14
ATOM     14  C   UNL     1       3.532  -0.999  -7.423  0.00  0.00    +0.035 A 
ATOM     15  C   UNL     1       2.496  -1.299  -8.298  0.00  0.00    +0.023 A 
ATOM     16  C   UNL     1       2.417  -0.656  -9.518  0.00  0.00    +0.002 A 
ATOM     17  C   UNL     1       3.368   0.285  -9.868  0.00  0.00    +0.000 A 
ATOM     18  C   UNL     1       4.400   0.586  -8.998  0.00  0.00    +0.002 A 
ATOM     19  C   UNL     1       4.481  -0.049  -7.775  0.00  0.00    +0.023 A 
ENDBRANCH  12  14
BRANCH   1  22
ATOM     20  C   UNL     1      -0.627  -2.152  -2.186  0.00  0.00    +0.219 C 
ATOM     21  O   UNL     1      -0.382  -1.190  -2.882  0.00  0.00    -0.275 OA
ATOM     22  N   UNL     1       0.107  -3.275  -2.305  0.00  0.00    -0.312 N 
ATOM     23  H   UNL     1      -0.089  -4.045  -1.748  0.00  0.00    +0.149 HD
BRANCH  20  25
ATOM     24  C   UNL     1      -2.421  -0.715  -1.253  0.00  0.00    +0.020 C 
ATOM     25  C   UNL     1      -1.754  -2.091  -1.186  0.00  0.00    +0.039 C 
ATOM     26  C   UNL     1      -1.200  -2.322   0.221  0.00  0.00    +0.020 C 
ATOM     27  C   UNL     1      -2.784  -3.173  -1.513  0.00  0.00    +0.020 C 
ENDBRANCH  20  25
ENDBRANCH   1  22
TORSDOF 3
