REMARK  Name = ZINC03306043
REMARK  11 active torsions:
REMARK  status: ('A' for Active; 'I' for Inactive)
REMARK    1  A    between atoms: C_1  and  C_2
REMARK    2  A    between atoms: C_2  and  C_3
REMARK    3  A    between atoms: C_3  and  C_4
REMARK    4  A    between atoms: C_4  and  N_5
REMARK    5  A    between atoms: N_5  and  C_6
REMARK    6  A    between atoms: N_5  and  C_23
REMARK    7  A    between atoms: C_7  and  N_22
REMARK    8  A    between atoms: N_8  and  C_15
REMARK    9  A    between atoms: C_15  and  C_16
REMARK   10  A    between atoms: C_23  and  N_25
REMARK   11  A    between atoms: C_26  and  C_28
REMARK                            x       y       z     vdW  Elec       q    Type
REMARK                         _______ _______ _______ _____ _____    ______ ____
ROOT
ATOM      1  C   UNL     1       1.164   3.044   0.009  0.00  0.00    +0.139 A 
ATOM      2  C   UNL     1       0.733   2.341   1.116  0.00  0.00    +0.128 A 
ATOM      3  N   UNL     1      -0.471   1.678   1.063  0.00  0.00    -0.276 N 
ATOM      4  C   UNL     1      -1.222   1.718  -0.052  0.00  0.00    +0.331 A 
ATOM      5  O   UNL     1      -2.286   1.129  -0.078  0.00  0.00    -0.246 OA
ATOM      6  N   UNL     1      -0.816   2.394  -1.142  0.00  0.00    -0.273 N 
ATOM      7  H   UNL     1      -1.389   2.402  -1.961  0.00  0.00    +0.173 HD
ATOM      8  C   UNL     1       0.355   3.060  -1.142  0.00  0.00    +0.277 A 
ATOM      9  O   UNL     1       0.713   3.673  -2.134  0.00  0.00    -0.266 OA
ENDROOT
BRANCH   2  10
ATOM     10  N   UNL     1       1.498   2.304   2.257  0.00  0.00    -0.343 N 
ATOM     11  H   UNL     1       2.368   2.734   2.273  0.00  0.00    +0.144 HD
ATOM     12  H   UNL     1       1.168   1.849   3.047  0.00  0.00    +0.144 HD
ENDBRANCH   2  10
BRANCH   1  13
ATOM     13  N   UNL     1       2.395   3.735   0.033  0.00  0.00    -0.275 N 
BRANCH  13  14
ATOM     14  C   UNL     1       2.413   5.081  -0.035  0.00  0.00    +0.144 C 
ATOM     15  S   UNL     1       0.943   5.959  -0.028  0.00  0.00    -0.018 S 
BRANCH  14  16
ATOM     16  N   UNL     1       3.589   5.736  -0.108  0.00  0.00    -0.263 N 
ATOM     17  C   UNL     1       3.607   7.082  -0.176  0.00  0.00    +0.256 C 
ATOM     18  O   UNL     1       2.562   7.706  -0.171  0.00  0.00    -0.269 OA
ATOM     19  H   UNL     1       4.421   5.239  -0.112  0.00  0.00    +0.157 HD
BRANCH  17  20
ATOM     20  C   UNL     1       4.885   7.794  -0.255  0.00  0.00    +0.074 A 
ATOM     21  C   UNL     1       5.122   9.158  -0.337  0.00  0.00    +0.021 A 
ATOM     22  C   UNL     1       6.432   9.562  -0.396  0.00  0.00    +0.008 A 
ATOM     23  C   UNL     1       7.416   8.625  -0.383  0.00  0.00    +0.046 A 
ATOM     24  S   UNL     1       6.541   7.132  -0.279  0.00  0.00    -0.092 S 
ENDBRANCH  17  20
ENDBRANCH  14  16
ENDBRANCH  13  14
BRANCH  13  25
ATOM     25  C   UNL     1       3.652   2.990   0.130  0.00  0.00    +0.113 C 
BRANCH  25  26
ATOM     26  C   UNL     1       4.211   2.746  -1.273  0.00  0.00    +0.019 C 
BRANCH  26  28
ATOM     27  C   UNL     1       6.082   1.724  -2.575  0.00  0.00    +0.004 C 
ATOM     28  C   UNL     1       5.524   1.967  -1.171  0.00  0.00    -0.002 C 
ENDBRANCH  26  28
ENDBRANCH  25  26
ENDBRANCH  13  25
ENDBRANCH   1  13
BRANCH   3  29
ATOM     29  C   UNL     1      -0.941   0.929   2.231  0.00  0.00    +0.163 C 
BRANCH  29  30
ATOM     30  C   UNL     1      -1.764   1.834   3.111  0.00  0.00    -0.028 A 
ATOM     31  C   UNL     1      -1.154   2.559   4.118  0.00  0.00    +0.005 A 
ATOM     32  C   UNL     1      -1.908   3.393   4.922  0.00  0.00    +0.000 A 
ATOM     33  C   UNL     1      -3.273   3.494   4.727  0.00  0.00    +0.000 A 
ATOM     34  C   UNL     1      -3.883   2.765   3.723  0.00  0.00    +0.000 A 
ATOM     35  C   UNL     1      -3.128   1.935   2.915  0.00  0.00    +0.005 A 
ENDBRANCH  29  30
ENDBRANCH   3  29
TORSDOF 10
