REMARK  Name = ZINC44813821
REMARK  12 active torsions:
REMARK  status: ('A' for Active; 'I' for Inactive)
REMARK    1  A    between atoms: C_1  and  C_2
REMARK    2  A    between atoms: C_7  and  C_8
REMARK    3  A    between atoms: C_8  and  C_10
REMARK    4  A    between atoms: C_8  and  N_11
REMARK    5  A    between atoms: C_12  and  C_14
REMARK    6  A    between atoms: N_19  and  C_21
REMARK    7  A    between atoms: C_21  and  C_22
REMARK    8  A    between atoms: C_24  and  C_27
REMARK    9  A    between atoms: C_30  and  C_33
REMARK   10  A    between atoms: C_33  and  C_34
REMARK   11  A    between atoms: C_33  and  C_35
REMARK   12  A    between atoms: C_33  and  C_36
REMARK                            x       y       z     vdW  Elec       q    Type
REMARK                         _______ _______ _______ _____ _____    ______ ____
ROOT
ATOM      1  C   UNL     1       1.822  -1.083   5.691  0.00  0.00    +0.058 C 
ATOM      2  C   UNL     1       0.758  -2.011   6.284  0.00  0.00    +0.009 C 
ATOM      3  C   UNL     1       1.381  -2.826   7.421  0.00  0.00    -0.018 C 
ATOM      4  C   UNL     1       1.965  -1.871   8.465  0.00  0.00    -0.078 C 
ATOM      5  N   UNL     1       2.994  -1.030   7.842  0.00  0.00    +0.386 N 
ATOM      6  C   UNL     1       2.390  -0.193   6.798  0.00  0.00    -0.065 C 
ATOM      7  H   UNL     1       3.704  -1.617   7.431  0.00  0.00    -0.081 HD
ENDROOT
BRANCH   1   9
ATOM      8  N   UNL     1       0.630  -0.793   3.543  0.00  0.00    -0.309 N 
ATOM      9  C   UNL     1       1.199  -0.221   4.623  0.00  0.00    +0.215 C 
ATOM     10  O   UNL     1       1.211   0.986   4.735  0.00  0.00    -0.276 OA
ATOM     11  H   UNL     1       0.621  -1.758   3.453  0.00  0.00    +0.149 HD
BRANCH   8  12
ATOM     12  C   UNL     1       0.025   0.045   2.504  0.00  0.00    +0.100 C 
ATOM     13  C   UNL     1      -1.413   0.387   2.899  0.00  0.00    +0.033 C 
BRANCH  12  20
ATOM     14  C   UNL     1      -0.018   1.503   0.010  0.00  0.00    +0.044 C 
ATOM     15  C   UNL     1       0.002  -0.004   0.002  0.00  0.00    -0.046 A 
ATOM     16  C   UNL     1       0.006  -0.689  -1.199  0.00  0.00    +0.004 A 
ATOM     17  C   UNL     1       0.025  -2.071  -1.207  0.00  0.00    +0.000 A 
ATOM     18  C   UNL     1       0.040  -2.768  -0.013  0.00  0.00    +0.000 A 
ATOM     19  C   UNL     1       0.037  -2.084   1.188  0.00  0.00    +0.006 A 
ATOM     20  C   UNL     1       0.023  -0.702   1.195  0.00  0.00    -0.025 A 
ENDBRANCH  12  20
ENDBRANCH   8  12
ENDBRANCH   1   9
BRANCH   5  21
ATOM     21  C   UNL     1       3.606  -0.170   8.864  0.00  0.00    +0.022 C 
BRANCH  21  22
ATOM     22  C   UNL     1       4.340  -1.024   9.865  0.00  0.00    +0.211 A 
ATOM     23  N   UNL     1       5.590  -1.381   9.790  0.00  0.00    -0.193 NA
ATOM     24  C   UNL     1       5.918  -2.140  10.851  0.00  0.00    +0.202 A 
ATOM     25  N   UNL     1       4.861  -2.269  11.615  0.00  0.00    -0.056 NA
ATOM     26  O   UNL     1       3.818  -1.539  10.986  0.00  0.00    -0.340 OA
BRANCH  24  27
ATOM     27  C   UNL     1       7.253  -2.733  11.112  0.00  0.00    +0.022 A 
ATOM     28  C   UNL     1       8.301  -2.516  10.220  0.00  0.00    +0.012 A 
ATOM     29  C   UNL     1       9.540  -3.070  10.467  0.00  0.00    +0.005 A 
ATOM     30  C   UNL     1       9.743  -3.840  11.599  0.00  0.00    -0.042 A 
ATOM     31  C   UNL     1       8.707  -4.058  12.488  0.00  0.00    +0.005 A 
ATOM     32  C   UNL     1       7.465  -3.504  12.253  0.00  0.00    +0.012 A 
BRANCH  30  33
ATOM     33  C   UNL     1      11.099  -4.443  11.863  0.00  0.00    -0.013 C 
ATOM     34  C   UNL     1      12.139  -3.327  11.982  0.00  0.00    +0.015 C 
ATOM     35  C   UNL     1      11.056  -5.241  13.168  0.00  0.00    +0.015 C 
ATOM     36  C   UNL     1      11.477  -5.373  10.709  0.00  0.00    +0.015 C 
ENDBRANCH  30  33
ENDBRANCH  24  27
ENDBRANCH  21  22
ENDBRANCH   5  21
TORSDOF 7
