REMARK  Name = ZINC01375549
REMARK  16 active torsions:
REMARK  status: ('A' for Active; 'I' for Inactive)
REMARK    1  A    between atoms: C_1  and  C_2
REMARK    2  A    between atoms: C_2  and  C_3
REMARK    3  A    between atoms: C_3  and  C_5
REMARK    4  A    between atoms: C_3  and  N_14
REMARK    5  A    between atoms: N_9  and  C_10
REMARK    6  A    between atoms: C_10  and  C_11
REMARK    7  A    between atoms: C_10  and  C_12
REMARK    8  A    between atoms: C_10  and  C_13
REMARK    9  A    between atoms: N_14  and  C_15
REMARK   10  A    between atoms: N_14  and  C_24
REMARK   11  A    between atoms: C_15  and  C_16
REMARK   12  A    between atoms: C_19  and  O_22
REMARK   13  A    between atoms: O_22  and  C_23
REMARK   14  A    between atoms: C_24  and  C_25
REMARK   15  A    between atoms: C_28  and  C_38
REMARK   16  A    between atoms: C_31  and  C_37
REMARK                            x       y       z     vdW  Elec       q    Type
REMARK                         _______ _______ _______ _____ _____    ______ ____
ROOT
ATOM      1  N   UNL     1       0.295   0.710  -2.894  0.00  0.00    -0.284 NA
ENDROOT
BRANCH   1   2
ATOM      2  C   UNL     1       0.803  -0.090  -1.772  0.00  0.00    +0.127 C 
BRANCH   2   3
ATOM      3  C   UNL     1      -0.271  -0.222  -0.722  0.00  0.00    +0.169 A 
ATOM      4  N   UNL     1      -1.139   0.696  -0.372  0.00  0.00    -0.112 NA
ATOM      5  N   UNL     1      -1.887   0.203   0.554  0.00  0.00    -0.023 NA
ATOM      6  N   UNL     1      -1.518  -1.005   0.803  0.00  0.00    -0.043 NA
ATOM      7  N   UNL     1      -0.528  -1.305   0.033  0.00  0.00    -0.222 N 
BRANCH   7   8
ATOM      8  C   UNL     1       0.185  -2.584  -0.009  0.00  0.00    +0.059 C 
ATOM      9  C   UNL     1       1.685  -2.337   0.162  0.00  0.00    +0.036 C 
ATOM     10  C   UNL     1      -0.316  -3.485   1.123  0.00  0.00    +0.036 C 
ATOM     11  C   UNL     1      -0.070  -3.266  -1.354  0.00  0.00    +0.036 C 
ENDBRANCH   7   8
ENDBRANCH   2   3
BRANCH   2  13
ATOM     12  C   UNL     1       3.148   0.653  -2.205  0.00  0.00    +0.006 C 
ATOM     13  C   UNL     1       2.027   0.599  -1.166  0.00  0.00    +0.023 C 
ENDBRANCH   2  13
ENDBRANCH   1   2
BRANCH   1  14
ATOM     14  C   UNL     1       0.891   0.274  -4.164  0.00  0.00    +0.120 C 
BRANCH  14  15
ATOM     15  C   UNL     1       0.233  -1.005  -4.614  0.00  0.00    -0.033 A 
ATOM     16  C   UNL     1       0.821  -2.223  -4.327  0.00  0.00    +0.008 A 
ATOM     17  C   UNL     1       0.220  -3.396  -4.739  0.00  0.00    +0.046 A 
ATOM     18  C   UNL     1      -0.976  -3.352  -5.442  0.00  0.00    +0.120 A 
ATOM     19  C   UNL     1      -1.565  -2.129  -5.728  0.00  0.00    +0.046 A 
ATOM     20  C   UNL     1      -0.962  -0.958  -5.309  0.00  0.00    +0.008 A 
BRANCH  18  21
ATOM     21  O   UNL     1      -1.569  -4.505  -5.848  0.00  0.00    -0.495 OA
ATOM     22  C   UNL     1      -2.798  -4.383  -6.567  0.00  0.00    +0.277 C 
ENDBRANCH  18  21
ENDBRANCH  14  15
ENDBRANCH   1  14
BRANCH   1  23
ATOM     23  C   UNL     1       0.530   2.143  -2.667  0.00  0.00    +0.126 C 
BRANCH  23  24
ATOM     24  C   UNL     1      -0.474   2.665  -1.672  0.00  0.00    +0.032 A 
ATOM     25  C   UNL     1      -0.075   2.988  -0.417  0.00  0.00    +0.020 A 
ATOM     26  C   UNL     1      -1.074   3.493   0.526  0.00  0.00    +0.002 A 
ATOM     27  C   UNL     1      -0.723   3.844   1.834  0.00  0.00    -0.041 A 
ATOM     28  C   UNL     1      -1.679   4.312   2.690  0.00  0.00    +0.004 A 
ATOM     29  C   UNL     1      -2.997   4.443   2.273  0.00  0.00    +0.005 A 
ATOM     30  C   UNL     1      -3.366   4.103   0.990  0.00  0.00    -0.026 A 
ATOM     31  C   UNL     1      -2.409   3.625   0.100  0.00  0.00    +0.052 A 
ATOM     32  N   UNL     1      -2.750   3.278  -1.190  0.00  0.00    -0.322 N 
ATOM     33  H   UNL     1      -3.671   3.370  -1.482  0.00  0.00    +0.169 HD
ATOM     34  C   UNL     1      -1.824   2.821  -2.051  0.00  0.00    +0.254 A 
ATOM     35  O   UNL     1      -2.161   2.529  -3.185  0.00  0.00    -0.268 OA
ATOM     36  C   UNL     1      -4.801   4.249   0.551  0.00  0.00    +0.046 C 
ATOM     37  C   UNL     1       0.704   3.705   2.297  0.00  0.00    +0.044 C 
ENDBRANCH  23  24
ENDBRANCH   1  23
TORSDOF 9
