REMARK  Name = ZINC02956585
REMARK  7 active torsions:
REMARK  status: ('A' for Active; 'I' for Inactive)
REMARK    1  A    between atoms: C_1  and  C_2
REMARK    2  A    between atoms: C_5  and  C_8
REMARK    3  A    between atoms: C_8  and  C_9
REMARK    4  A    between atoms: C_9  and  N_10
REMARK    5  A    between atoms: C_11  and  C_13
REMARK    6  A    between atoms: C_21  and  C_25
REMARK    7  A    between atoms: N_27  and  C_28
REMARK                            x       y       z     vdW  Elec       q    Type
REMARK                         _______ _______ _______ _____ _____    ______ ____
ROOT
ATOM      1  C   UNL     1       1.259  -6.303  -2.650  0.00  0.00    +0.039 A 
ATOM      2  C   UNL     1       1.286  -7.004  -1.441  0.00  0.00    +0.014 A 
ATOM      3  C   UNL     1       1.301  -8.382  -1.438  0.00  0.00    +0.016 A 
ATOM      4  C   UNL     1       1.298  -9.072  -2.649  0.00  0.00    +0.063 A 
ATOM      5  C   UNL     1       1.276  -8.377  -3.861  0.00  0.00    +0.062 A 
ATOM      6  C   UNL     1       1.256  -6.990  -3.862  0.00  0.00    +0.040 A 
ATOM      7  N   UNL     1       1.273  -9.074  -5.088  0.00  0.00    -0.282 N 
ATOM      8  C   UNL     1       1.292 -10.435  -5.086  0.00  0.00    +0.139 A 
ATOM      9  C   UNL     1       1.288 -11.068  -6.323  0.00  0.00    +0.117 A 
ATOM     10  S   UNL     1       1.258  -9.695  -7.453  0.00  0.00    -0.055 S 
ATOM     11  C   UNL     1       1.252  -8.418  -6.290  0.00  0.00    +0.132 A 
ATOM     12  S   UNL     1       1.226  -6.730  -6.573  0.00  0.00    -0.024 S 
ATOM     13  N   UNL     1       1.314 -11.150  -3.889  0.00  0.00    -0.307 N 
ATOM     14  H   UNL     1       1.328 -12.119  -3.924  0.00  0.00    +0.170 HD
ATOM     15  C   UNL     1       1.318 -10.548  -2.690  0.00  0.00    +0.259 A 
ATOM     16  O   UNL     1       1.338 -11.200  -1.664  0.00  0.00    -0.267 OA
ENDROOT
BRANCH   1  18
ATOM     17  N   UNL     1       1.241  -4.154  -1.472  0.00  0.00    -0.311 N 
ATOM     18  C   UNL     1       1.239  -4.822  -2.643  0.00  0.00    +0.244 C 
ATOM     19  O   UNL     1       1.220  -4.210  -3.692  0.00  0.00    -0.270 OA
ATOM     20  H   UNL     1       1.256  -4.643  -0.635  0.00  0.00    +0.149 HD
BRANCH  17  21
ATOM     21  C   UNL     1       1.221  -2.689  -1.465  0.00  0.00    +0.109 C 
BRANCH  21  22
ATOM     22  C   UNL     1       1.229  -2.186  -0.021  0.00  0.00    +0.054 C 
BRANCH  22  27
ATOM     23  C   UNL     1       1.151   3.592   0.010  0.00  0.00    +0.044 C 
ATOM     24  C   UNL     1       1.171   2.086   0.002  0.00  0.00    -0.050 A 
ATOM     25  C   UNL     1      -0.017   1.378   0.010  0.00  0.00    +0.003 A 
ATOM     26  C   UNL     1       0.002  -0.004   0.002  0.00  0.00    +0.004 A 
ATOM     27  C   UNL     1       1.208  -0.679  -0.013  0.00  0.00    -0.046 A 
ATOM     28  C   UNL     1       2.396   0.029  -0.021  0.00  0.00    +0.004 A 
ATOM     29  C   UNL     1       2.377   1.411  -0.015  0.00  0.00    +0.003 A 
ENDBRANCH  22  27
ENDBRANCH  21  22
ENDBRANCH  17  21
ENDBRANCH   1  18
BRANCH   9  30
ATOM     30  C   UNL     1       1.304 -12.451  -6.610  0.00  0.00    +0.255 C 
ATOM     31  O   UNL     1       1.324 -13.262  -5.701  0.00  0.00    -0.269 OA
ATOM     32  N   UNL     1       1.298 -12.874  -7.890  0.00  0.00    -0.308 N 
ATOM     33  H   UNL     1       1.282 -12.229  -8.614  0.00  0.00    +0.149 HD
BRANCH  32  34
ATOM     34  C   UNL     1       1.314 -14.309  -8.187  0.00  0.00    +0.073 C 
ATOM     35  C   UNL     1       2.769 -14.818  -8.255  0.00  0.00    +0.022 C 
ATOM     36  C   UNL     1       2.753 -15.863  -9.398  0.00  0.00    +0.002 C 
ATOM     37  C   UNL     1       1.793 -15.224 -10.432  0.00  0.00    +0.002 C 
ATOM     38  C   UNL     1       0.694 -14.567  -9.572  0.00  0.00    +0.022 C 
ENDBRANCH  32  34
ENDBRANCH   9  30
TORSDOF 6
