REMARK  Name = ZINC32997951
REMARK  13 active torsions:
REMARK  status: ('A' for Active; 'I' for Inactive)
REMARK    1  A    between atoms: C_1  and  C_2
REMARK    2  A    between atoms: C_2  and  C_3
REMARK    3  A    between atoms: C_3  and  C_4
REMARK    4  A    between atoms: C_4  and  N_5
REMARK    5  A    between atoms: N_5  and  C_6
REMARK    6  A    between atoms: C_7  and  N_18
REMARK    7  A    between atoms: N_8  and  C_15
REMARK    8  A    between atoms: C_15  and  C_16
REMARK    9  A    between atoms: C_16  and  C_17
REMARK   10  A    between atoms: C_19  and  C_21
REMARK   11  A    between atoms: C_21  and  C_22
REMARK   12  A    between atoms: C_25  and  S_27
REMARK   13  A    between atoms: S_27  and  N_30
REMARK                            x       y       z     vdW  Elec       q    Type
REMARK                         _______ _______ _______ _____ _____    ______ ____
ROOT
ATOM      1  N   UNL     1       0.161  -2.901  -2.315  0.00  0.00    -0.264 N 
ATOM      2  C   UNL     1       0.075  -2.293  -3.517  0.00  0.00    +0.225 C 
ATOM      3  O   UNL     1      -0.183  -1.110  -3.580  0.00  0.00    -0.275 OA
ENDROOT
BRANCH   1   4
ATOM      4  C   UNL     1       0.053  -2.142  -1.131  0.00  0.00    +0.140 A 
ATOM      5  C   UNL     1       1.133  -2.007  -0.282  0.00  0.00    +0.127 A 
ATOM      6  N   UNL     1       0.994  -1.264   0.867  0.00  0.00    -0.280 N 
ATOM      7  C   UNL     1      -0.177  -0.668   1.156  0.00  0.00    +0.331 A 
ATOM      8  O   UNL     1      -0.277  -0.013   2.175  0.00  0.00    -0.246 OA
ATOM      9  N   UNL     1      -1.238  -0.785   0.339  0.00  0.00    -0.273 N 
ATOM     10  H   UNL     1      -2.187  -0.290   0.595  0.00  0.00    +0.173 HD
ATOM     11  C   UNL     1      -1.157  -1.505  -0.797  0.00  0.00    +0.277 A 
ATOM     12  O   UNL     1      -2.126  -1.605  -1.531  0.00  0.00    -0.266 OA
BRANCH   5  13
ATOM     13  N   UNL     1       2.331  -2.611  -0.580  0.00  0.00    -0.343 N 
ATOM     14  H   UNL     1       3.187  -2.499   0.101  0.00  0.00    +0.144 HD
ATOM     15  H   UNL     1       2.433  -3.206  -1.500  0.00  0.00    +0.144 HD
ENDBRANCH   5  13
BRANCH   6  16
ATOM     16  C   UNL     1       2.131  -1.116   1.779  0.00  0.00    +0.128 C 
BRANCH  16  17
ATOM     17  C   UNL     1       2.105  -2.242   2.814  0.00  0.00    +0.018 C 
ATOM     18  C   UNL     1       3.292  -2.087   3.767  0.00  0.00    +0.005 C 
ENDBRANCH  16  17
ENDBRANCH   6  16
ENDBRANCH   1   4
BRANCH   1  19
ATOM     19  C   UNL     1       0.367  -4.350  -2.240  0.00  0.00    +0.114 C 
BRANCH  19  20
ATOM     20  C   UNL     1      -0.987  -5.061  -2.297  0.00  0.00    +0.019 C 
BRANCH  20  22
ATOM     21  C   UNL     1      -2.125  -7.285  -2.276  0.00  0.00    +0.004 C 
ATOM     22  C   UNL     1      -0.772  -6.574  -2.219  0.00  0.00    -0.002 C 
ENDBRANCH  20  22
ENDBRANCH  19  20
ENDBRANCH   1  19
BRANCH   2  23
ATOM     23  C   UNL     1       0.300  -3.085  -4.779  0.00  0.00    +0.138 C 
BRANCH  23  24
ATOM     24  C   UNL     1       0.148  -2.179  -5.974  0.00  0.00    +0.000 A 
ATOM     25  C   UNL     1       1.090  -1.439  -6.609  0.00  0.00    +0.013 A 
ATOM     26  C   UNL     1       0.718  -0.673  -7.698  0.00  0.00    +0.036 A 
ATOM     27  C   UNL     1      -0.577  -0.683  -8.098  0.00  0.00    +0.143 A 
ATOM     28  S   UNL     1      -1.317  -1.806  -6.924  0.00  0.00    -0.073 S 
BRANCH  27  29
ATOM     29  S   UNL     1      -1.332   0.182  -9.434  0.00  0.00    +0.067 S 
ATOM     30  O   UNL     1      -2.712   0.297  -9.115  0.00  0.00    -0.152 OA
ATOM     31  O   UNL     1      -0.515   1.313  -9.700  0.00  0.00    -0.152 OA
BRANCH  29  32
ATOM     32  N   UNL     1      -1.235  -0.796 -10.767  0.00  0.00    -0.172 NA
ATOM     33  C   UNL     1      -0.081  -0.724 -11.677  0.00  0.00    +0.137 C 
ATOM     34  C   UNL     1       0.453  -2.150 -11.887  0.00  0.00    +0.177 C 
ATOM     35  O   UNL     1      -0.623  -2.999 -12.294  0.00  0.00    -0.377 OA
ATOM     36  C   UNL     1      -1.664  -3.130 -11.323  0.00  0.00    +0.177 C 
ATOM     37  C   UNL     1      -2.304  -1.758 -11.081  0.00  0.00    +0.137 C 
ENDBRANCH  29  32
ENDBRANCH  27  29
ENDBRANCH  23  24
ENDBRANCH   2  23
TORSDOF 11
