REMARK  Name = ZINC12009481
REMARK  5 active torsions:
REMARK  status: ('A' for Active; 'I' for Inactive)
REMARK    1  A    between atoms: C_4  and  C_7
REMARK    2  A    between atoms: C_16  and  N_25
REMARK    3  A    between atoms: C_18  and  C_20
REMARK    4  A    between atoms: C_26  and  C_28
REMARK    5  A    between atoms: C_30  and  C_33
REMARK                            x       y       z     vdW  Elec       q    Type
REMARK                         _______ _______ _______ _____ _____    ______ ____
ROOT
ATOM      1  C   UNL     1      -8.342  -1.766   0.092  0.00  0.00    +0.080 A 
ATOM      2  C   UNL     1      -9.700  -2.045   0.108  0.00  0.00    +0.098 A 
ATOM      3  C   UNL     1     -10.112  -3.387   0.102  0.00  0.00    +0.253 A 
ATOM      4  O   UNL     1     -11.298  -3.673   0.116  0.00  0.00    -0.268 OA
ATOM      5  N   UNL     1      -9.172  -4.355   0.076  0.00  0.00    -0.291 N 
ATOM      6  H   UNL     1      -9.438  -5.288   0.069  0.00  0.00    +0.172 HD
ATOM      7  C   UNL     1      -7.852  -4.027   0.066  0.00  0.00    +0.234 A 
ATOM      8  N   UNL     1      -7.457  -2.774   0.071  0.00  0.00    -0.212 NA
ATOM      9  N   UNL     1      -6.906  -5.033   0.045  0.00  0.00    -0.184 N 
ATOM     10  C   UNL     1      -5.551  -4.861   0.028  0.00  0.00    +0.133 A 
ATOM     11  C   UNL     1      -4.979  -6.092   0.015  0.00  0.00    +0.077 A 
ATOM     12  C   UNL     1      -6.015  -7.049   0.020  0.00  0.00    +0.130 A 
ATOM     13  N   UNL     1      -7.167  -6.409   0.035  0.00  0.00    -0.159 NA
ENDROOT
BRANCH   1  17
ATOM     14  C   UNL     1      -6.987   2.263   0.104  0.00  0.00    +0.000 A 
ATOM     15  C   UNL     1      -6.070   1.227   0.084  0.00  0.00    +0.001 A 
ATOM     16  C   UNL     1      -6.503  -0.083   0.080  0.00  0.00    +0.010 A 
ATOM     17  C   UNL     1      -7.870  -0.362   0.096  0.00  0.00    +0.001 A 
ATOM     18  C   UNL     1      -8.790   0.686   0.112  0.00  0.00    +0.010 A 
ATOM     19  C   UNL     1      -8.344   1.992   0.121  0.00  0.00    +0.001 A 
ENDBRANCH   1  17
BRANCH  12  20
ATOM     20  C   UNL     1      -5.840  -8.517   0.010  0.00  0.00    +0.155 A 
ATOM     21  C   UNL     1      -6.838  -9.440   0.020  0.00  0.00    +0.051 A 
ATOM     22  C   UNL     1      -6.219 -10.706   0.002  0.00  0.00    +0.042 A 
ATOM     23  C   UNL     1      -4.889 -10.496  -0.010  0.00  0.00    +0.196 A 
ATOM     24  O   UNL     1      -4.663  -9.172  -0.005  0.00  0.00    -0.461 OA
ENDBRANCH  12  20
BRANCH  10  25
ATOM     25  N   UNL     1      -4.877  -3.643   0.028  0.00  0.00    -0.265 N 
ATOM     26  C   UNL     1      -3.530  -3.617   0.016  0.00  0.00    +0.271 C 
ATOM     27  O   UNL     1      -2.903  -4.658   0.004  0.00  0.00    -0.268 OA
ATOM     28  H   UNL     1      -5.378  -2.812   0.038  0.00  0.00    +0.157 HD
BRANCH  26  29
ATOM     29  C   UNL     1      -2.812  -2.319   0.017  0.00  0.00    +0.169 A 
ATOM     30  C   UNL     1      -1.407  -2.124  -0.001  0.00  0.00    +0.086 A 
ATOM     31  C   UNL     1      -1.266  -0.764   0.011  0.00  0.00    +0.168 A 
ATOM     32  O   UNL     1      -2.511  -0.255   0.025  0.00  0.00    -0.354 OA
ATOM     33  N   UNL     1      -3.350  -1.124   0.028  0.00  0.00    -0.073 NA
BRANCH  31  34
ATOM     34  C   UNL     1       0.002  -0.004   0.002  0.00  0.00    +0.020 A 
ATOM     35  C   UNL     1      -0.017   1.391   0.010  0.00  0.00    +0.011 A 
ATOM     36  C   UNL     1       1.170   2.094   0.002  0.00  0.00    +0.001 A 
ATOM     37  C   UNL     1       2.378   1.419  -0.013  0.00  0.00    +0.000 A 
ATOM     38  C   UNL     1       2.403   0.036  -0.021  0.00  0.00    +0.001 A 
ATOM     39  C   UNL     1       1.223  -0.679  -0.013  0.00  0.00    +0.011 A 
ENDBRANCH  31  34
ENDBRANCH  26  29
ENDBRANCH  10  25
TORSDOF 5
