REMARK  Name = ZINC37424188
REMARK  12 active torsions:
REMARK  status: ('A' for Active; 'I' for Inactive)
REMARK    1  A    between atoms: C_1  and  C_2
REMARK    2  A    between atoms: C_2  and  C_3
REMARK    3  A    between atoms: C_2  and  C_4
REMARK    4  A    between atoms: C_4  and  N_5
REMARK    5  A    between atoms: C_6  and  C_8
REMARK    6  A    between atoms: C_8  and  N_9
REMARK    7  A    between atoms: C_12  and  C_22
REMARK    8  A    between atoms: N_14  and  C_15
REMARK    9  A    between atoms: C_22  and  C_23
REMARK   10  A    between atoms: C_22  and  C_24
REMARK   11  A    between atoms: C_22  and  C_25
REMARK   12  A    between atoms: C_26  and  C_32
REMARK                            x       y       z     vdW  Elec       q    Type
REMARK                         _______ _______ _______ _____ _____    ______ ____
ROOT
ATOM      1  N   UNL     1      -5.814  -9.481  -1.324  0.00  0.00    -0.246 N 
ATOM      2  C   UNL     1      -5.476  -8.740  -0.182  0.00  0.00    +0.136 A 
ATOM      3  C   UNL     1      -6.246  -8.674   0.929  0.00  0.00    +0.034 A 
ATOM      4  C   UNL     1      -5.601  -7.846   1.849  0.00  0.00    +0.075 A 
ATOM      5  N   UNL     1      -4.480  -7.429   1.310  0.00  0.00    -0.169 NA
ATOM      6  N   UNL     1      -4.373  -7.982   0.024  0.00  0.00    -0.218 N 
ATOM      7  C   UNL     1      -7.560  -9.389   1.109  0.00  0.00    +0.112 C 
ATOM      8  S   UNL     1      -8.827  -8.546   0.094  0.00  0.00    -0.138 S 
ATOM      9  C   UNL     1      -7.901  -8.183  -1.436  0.00  0.00    +0.166 C 
ATOM     10  C   UNL     1      -7.044  -9.345  -1.831  0.00  0.00    +0.231 C 
ATOM     11  O   UNL     1      -7.470 -10.169  -2.613  0.00  0.00    -0.274 OA
ENDROOT
BRANCH   6  12
ATOM     12  C   UNL     1      -3.320  -7.785  -0.879  0.00  0.00    +0.068 A 
ATOM     13  C   UNL     1      -3.588  -7.578  -2.226  0.00  0.00    +0.030 A 
ATOM     14  C   UNL     1      -2.548  -7.385  -3.114  0.00  0.00    +0.040 A 
ATOM     15  C   UNL     1      -1.239  -7.398  -2.663  0.00  0.00    +0.124 A 
ATOM     16  C   UNL     1      -0.970  -7.605  -1.321  0.00  0.00    +0.040 A 
ATOM     17  C   UNL     1      -2.007  -7.793  -0.428  0.00  0.00    +0.030 A 
ATOM     18  F   UNL     1      -0.224  -7.209  -3.534  0.00  0.00    -0.205 F 
ENDBRANCH   6  12
BRANCH   7  19
ATOM     19  C   UNL     1      -7.963  -9.351   2.561  0.00  0.00    -0.027 A 
ATOM     20  C   UNL     1      -8.943  -8.472   2.983  0.00  0.00    +0.005 A 
ATOM     21  C   UNL     1      -9.313  -8.436   4.315  0.00  0.00    +0.003 A 
ATOM     22  C   UNL     1      -8.703  -9.278   5.225  0.00  0.00    +0.038 A 
ATOM     23  C   UNL     1      -7.721 -10.158   4.803  0.00  0.00    +0.124 A 
ATOM     24  C   UNL     1      -7.356 -10.198   3.468  0.00  0.00    +0.043 A 
ATOM     25  F   UNL     1      -7.124 -10.981   5.693  0.00  0.00    -0.205 F 
ENDBRANCH   7  19
BRANCH   4  26
ATOM     26  C   UNL     1      -6.106  -7.490   3.223  0.00  0.00    +0.007 C 
ATOM     27  C   UNL     1      -5.793  -8.632   4.193  0.00  0.00    +0.017 C 
ATOM     28  C   UNL     1      -5.421  -6.210   3.704  0.00  0.00    +0.017 C 
ATOM     29  C   UNL     1      -7.619  -7.269   3.169  0.00  0.00    +0.017 C 
ENDBRANCH   4  26
BRANCH   1  30
ATOM     30  C   UNL     1      -4.841 -10.380  -1.950  0.00  0.00    +0.210 C 
BRANCH  30  32
ATOM     31  N   UNL     1      -4.000 -12.681  -1.606  0.00  0.00    -0.314 N 
ATOM     32  C   UNL     1      -4.884 -11.722  -1.266  0.00  0.00    +0.231 C 
ATOM     33  O   UNL     1      -5.715 -11.940  -0.409  0.00  0.00    -0.274 OA
ATOM     34  H   UNL     1      -3.291 -12.484  -2.238  0.00  0.00    +0.149 HD
BRANCH  31  35
ATOM     35  C   UNL     1      -4.111 -14.020  -1.023  0.00  0.00    +0.107 C 
BRANCH  35  37
ATOM     36  C   UNL     1      -3.105 -16.306  -0.971  0.00  0.00    +0.009 C 
ATOM     37  C   UNL     1      -3.074 -14.944  -1.665  0.00  0.00    -0.000 C 
ATOM     38  C   UNL     1      -3.400 -15.121  -3.150  0.00  0.00    +0.009 C 
ENDBRANCH  35  37
ENDBRANCH  31  35
ENDBRANCH  30  32
ENDBRANCH   1  30
TORSDOF 7
