REMARK  Name = ZINC16424511
REMARK  10 active torsions:
REMARK  status: ('A' for Active; 'I' for Inactive)
REMARK    1  A    between atoms: C_4  and  O_7
REMARK    2  A    between atoms: O_7  and  C_8
REMARK    3  A    between atoms: C_12  and  C_14
REMARK    4  A    between atoms: C_14  and  N_15
REMARK    5  A    between atoms: N_15  and  C_16
REMARK    6  A    between atoms: C_16  and  C_17
REMARK    7  A    between atoms: C_17  and  C_18
REMARK    8  A    between atoms: C_28  and  C_30
REMARK    9  A    between atoms: C_31  and  C_32
REMARK   10  A    between atoms: C_35  and  N_38
REMARK                            x       y       z     vdW  Elec       q    Type
REMARK                         _______ _______ _______ _____ _____    ______ ____
ROOT
ATOM      1  N   UNL     1      -3.171   2.921   1.337  0.00  0.00    -0.293 N 
ATOM      2  C   UNL     1      -2.674   4.138   1.633  0.00  0.00    +0.240 C 
ATOM      3  O   UNL     1      -3.424   5.087   1.764  0.00  0.00    -0.271 OA
ENDROOT
BRANCH   2   4
ATOM      4  C   UNL     1      -1.230   4.319   1.797  0.00  0.00    +0.068 C 
ATOM      5  C   UNL     1      -0.732   5.536   2.093  0.00  0.00    +0.013 C 
BRANCH   5   6
ATOM      6  C   UNL     1       0.720   5.717   2.257  0.00  0.00    -0.025 A 
ATOM      7  C   UNL     1       1.585   4.628   2.113  0.00  0.00    +0.010 A 
ATOM      8  C   UNL     1       2.944   4.807   2.264  0.00  0.00    +0.033 A 
ATOM      9  C   UNL     1       3.451   6.058   2.567  0.00  0.00    +0.126 A 
ATOM     10  C   UNL     1       2.601   7.140   2.717  0.00  0.00    +0.033 A 
ATOM     11  C   UNL     1       1.240   6.978   2.564  0.00  0.00    +0.010 A 
BRANCH   9  12
ATOM     12  N   UNL     1       4.911   6.240   2.732  0.00  0.00    +0.056 N 
ATOM     13  O   UNL     1       5.361   7.340   3.000  0.00  0.00    -0.126 OA
ATOM     14  O   UNL     1       5.662   5.291   2.601  0.00  0.00    -0.126 OA
ENDBRANCH   9  12
ENDBRANCH   5   6
ENDBRANCH   2   4
BRANCH   1  15
ATOM     15  C   UNL     1      -4.616   2.741   1.174  0.00  0.00    +0.143 C 
BRANCH  15  20
ATOM     16  C   UNL     1      -6.254   3.072   4.563  0.00  0.00    +0.129 A 
ATOM     17  C   UNL     1      -6.365   1.743   4.945  0.00  0.00    +0.046 A 
ATOM     18  C   UNL     1      -5.911   0.744   4.106  0.00  0.00    +0.004 A 
ATOM     19  C   UNL     1      -5.350   1.068   2.884  0.00  0.00    +0.005 A 
ATOM     20  C   UNL     1      -5.233   2.392   2.504  0.00  0.00    -0.027 A 
ATOM     21  C   UNL     1      -5.686   3.394   3.339  0.00  0.00    +0.051 A 
BRANCH  16  22
ATOM     22  O   UNL     1      -6.701   4.057   5.386  0.00  0.00    -0.456 OA
BRANCH  22  26
ATOM     23  C   UNL     1      -8.336   2.957   9.011  0.00  0.00    +0.000 A 
ATOM     24  C   UNL     1      -6.979   3.208   8.913  0.00  0.00    +0.004 A 
ATOM     25  C   UNL     1      -6.429   3.576   7.700  0.00  0.00    +0.046 A 
ATOM     26  C   UNL     1      -7.239   3.695   6.580  0.00  0.00    +0.128 A 
ATOM     27  C   UNL     1      -8.601   3.448   6.682  0.00  0.00    +0.046 A 
ATOM     28  C   UNL     1      -9.145   3.075   7.896  0.00  0.00    +0.004 A 
ENDBRANCH  22  26
ENDBRANCH  16  22
ENDBRANCH  15  20
ENDBRANCH   1  15
BRANCH   1  29
ATOM     29  C   UNL     1      -2.268   1.779   1.180  0.00  0.00    +0.113 C 
BRANCH  29  30
ATOM     30  C   UNL     1      -1.830   1.673  -0.282  0.00  0.00    +0.056 C 
BRANCH  30  31
ATOM     31  C   UNL     1      -0.901   0.497  -0.445  0.00  0.00    -0.021 A 
ATOM     32  C   UNL     1       0.441   0.531  -0.423  0.00  0.00    +0.087 A 
ATOM     33  N   UNL     1       0.943  -0.728  -0.609  0.00  0.00    -0.360 N 
ATOM     34  H   UNL     1       1.885  -0.954  -0.632  0.00  0.00    +0.165 HD
ATOM     35  C   UNL     1      -0.090  -1.626  -0.759  0.00  0.00    +0.047 A 
ATOM     36  C   UNL     1      -1.291  -0.898  -0.663  0.00  0.00    +0.003 A 
ATOM     37  C   UNL     1      -2.516  -1.556  -0.778  0.00  0.00    +0.010 A 
ATOM     38  C   UNL     1      -2.543  -2.907  -0.984  0.00  0.00    +0.001 A 
ATOM     39  C   UNL     1      -1.362  -3.630  -1.080  0.00  0.00    +0.002 A 
ATOM     40  C   UNL     1      -0.142  -3.000  -0.969  0.00  0.00    +0.026 A 
ENDBRANCH  30  31
ENDBRANCH  29  30
ENDBRANCH   1  29
TORSDOF 10
