REMARK  Name = ZINC36066221
REMARK  12 active torsions:
REMARK  status: ('A' for Active; 'I' for Inactive)
REMARK    1  A    between atoms: C_1  and  C_2
REMARK    2  A    between atoms: C_2  and  C_3
REMARK    3  A    between atoms: C_3  and  C_5
REMARK    4  A    between atoms: C_3  and  N_6
REMARK    5  A    between atoms: C_7  and  C_32
REMARK    6  A    between atoms: C_15  and  C_21
REMARK    7  A    between atoms: N_23  and  C_24
REMARK    8  A    between atoms: C_28  and  S_30
REMARK    9  A    between atoms: S_30  and  C_31
REMARK   10  A    between atoms: N_34  and  C_35
REMARK   11  A    between atoms: C_40  and  C_45
REMARK   12  A    between atoms: C_42  and  C_44
REMARK                            x       y       z     vdW  Elec       q    Type
REMARK                         _______ _______ _______ _____ _____    ______ ____
ROOT
ATOM      1  N   UNL     1      -2.057   0.595   1.193  0.00  0.00    -0.284 N 
ATOM      2  C   UNL     1      -3.356   1.292   1.448  0.00  0.00    +0.199 C 
ATOM      3  C   UNL     1      -3.149   1.838   2.826  0.00  0.00    +0.127 C 
ATOM      4  C   UNL     1      -2.164   2.992   2.861  0.00  0.00    +0.009 C 
ATOM      5  C   UNL     1      -2.095   3.367   4.130  0.00  0.00    +0.004 C 
ATOM      6  C   UNL     1      -3.002   2.388   4.884  0.00  0.00    +0.155 C 
ATOM      7  O   UNL     1      -4.055   2.123   3.866  0.00  0.00    -0.358 OA
ATOM      8  C   UNL     1      -2.150   1.060   4.860  0.00  0.00    +0.123 C 
ATOM      9  C   UNL     1      -2.452   0.561   3.447  0.00  0.00    +0.128 C 
ATOM     10  C   UNL     1      -1.475   0.250   2.389  0.00  0.00    +0.224 C 
ATOM     11  O   UNL     1      -0.367  -0.218   2.545  0.00  0.00    -0.275 OA
ENDROOT
BRANCH   8  12
ATOM     12  C   UNL     1      -0.684   1.355   5.048  0.00  0.00    +0.224 C 
ATOM     13  O   UNL     1       0.110   1.064   4.178  0.00  0.00    -0.275 OA
ATOM     14  N   UNL     1      -0.254   1.941   6.183  0.00  0.00    -0.285 N 
ATOM     15  H   UNL     1      -0.895   2.238   6.848  0.00  0.00    +0.155 HD
BRANCH  14  16
ATOM     16  C   UNL     1       1.116   2.123   6.402  0.00  0.00    +0.034 A 
ATOM     17  C   UNL     1       1.567   3.231   7.109  0.00  0.00    +0.023 A 
ATOM     18  C   UNL     1       2.919   3.411   7.325  0.00  0.00    +0.003 A 
ATOM     19  C   UNL     1       3.828   2.491   6.840  0.00  0.00    +0.015 A 
ATOM     20  C   UNL     1       3.384   1.380   6.132  0.00  0.00    +0.009 A 
ATOM     21  C   UNL     1       2.025   1.193   5.919  0.00  0.00    +0.038 A 
BRANCH  20  22
ATOM     22  S   UNL     1       4.544   0.207   5.513  0.00  0.00    -0.129 S 
ATOM     23  C   UNL     1       6.152   0.862   6.037  0.00  0.00    +0.090 C 
ENDBRANCH  20  22
ENDBRANCH  14  16
ENDBRANCH   8  12
BRANCH   2  24
ATOM     24  C   UNL     1      -4.505   0.317   1.421  0.00  0.00    +0.237 C 
ATOM     25  O   UNL     1      -4.295  -0.871   1.550  0.00  0.00    -0.274 OA
ATOM     26  N   UNL     1      -5.765   0.765   1.253  0.00  0.00    -0.311 N 
ATOM     27  H   UNL     1      -5.933   1.714   1.150  0.00  0.00    +0.149 HD
BRANCH  26  28
ATOM     28  C   UNL     1      -6.882  -0.183   1.227  0.00  0.00    +0.076 C 
ATOM     29  C   UNL     1      -7.047  -0.738  -0.189  0.00  0.00    +0.022 C 
ATOM     30  C   UNL     1      -8.213  -1.727  -0.216  0.00  0.00    +0.002 C 
ATOM     31  C   UNL     1      -9.499  -1.013   0.205  0.00  0.00    +0.003 C 
ATOM     32  C   UNL     1      -9.334  -0.458   1.621  0.00  0.00    -0.009 C 
ATOM     33  C   UNL     1      -8.167   0.532   1.648  0.00  0.00    +0.009 C 
ATOM     34  C   UNL     1      -8.452   1.682   0.680  0.00  0.00    +0.009 C 
ATOM     35  C   UNL     1     -10.619   0.257   2.042  0.00  0.00    +0.008 C 
ENDBRANCH  26  28
ENDBRANCH   2  24
BRANCH   1  36
ATOM     36  C   UNL     1      -1.493   0.316  -0.131  0.00  0.00    +0.074 C 
ATOM     37  C   UNL     1      -1.454  -1.196  -0.360  0.00  0.00    +0.028 C 
BRANCH  36  39
ATOM     38  C   UNL     1      -0.128   2.408  -0.126  0.00  0.00    +0.005 C 
ATOM     39  C   UNL     1      -0.074   0.881  -0.210  0.00  0.00    +0.019 C 
ENDBRANCH  36  39
ENDBRANCH   1  36
TORSDOF 7
