REMARK  Name = ZINC28669364
REMARK  8 active torsions:
REMARK  status: ('A' for Active; 'I' for Inactive)
REMARK    1  A    between atoms: C_1  and  C_2
REMARK    2  A    between atoms: C_2  and  O_3
REMARK    3  A    between atoms: O_3  and  C_4
REMARK    4  A    between atoms: C_11  and  C_18
REMARK    5  A    between atoms: C_13  and  O_14
REMARK    6  A    between atoms: C_18  and  O_19
REMARK    7  A    between atoms: O_19  and  C_20
REMARK    8  A    between atoms: C_24  and  C_31
REMARK                            x       y       z     vdW  Elec       q    Type
REMARK                         _______ _______ _______ _____ _____    ______ ____
ROOT
ATOM      1  C   UNL     1     -11.051   2.451  -0.370  0.00  0.00    +0.405 C 
ATOM      2  O   UNL     1     -10.847   3.528  -0.893  0.00  0.00    -0.226 OA
ATOM      3  N   UNL     1     -10.019   1.728   0.110  0.00  0.00    -0.251 N 
ATOM      4  C   UNL     1      -8.730   2.264   0.106  0.00  0.00    +0.040 A 
ATOM      5  C   UNL     1      -7.633   1.426  -0.092  0.00  0.00    +0.024 A 
ATOM      6  C   UNL     1      -6.367   1.935  -0.099  0.00  0.00    +0.014 A 
ATOM      7  C   UNL     1      -6.169   3.308   0.089  0.00  0.00    +0.024 A 
ATOM      8  C   UNL     1      -4.821   3.880   0.093  0.00  0.00    +0.007 A 
ATOM      9  C   UNL     1      -4.693   5.219   0.286  0.00  0.00    +0.095 A 
ATOM     10  C   UNL     1      -5.842   6.013   0.480  0.00  0.00    +0.285 A 
ATOM     11  O   UNL     1      -7.074   5.481   0.480  0.00  0.00    -0.425 OA
ATOM     12  C   UNL     1      -7.271   4.158   0.294  0.00  0.00    +0.141 A 
ATOM     13  C   UNL     1      -8.551   3.625   0.298  0.00  0.00    +0.070 A 
ATOM     14  H   UNL     1     -10.193   0.716   0.505  0.00  0.00    +0.158 HD
ENDROOT
BRANCH  10  15
ATOM     15  O   UNL     1      -5.713   7.212   0.651  0.00  0.00    -0.480 OA
ATOM     16  H   UNL     1      -6.600   7.844   0.804  0.00  0.00    +0.295 HD
ENDBRANCH  10  15
BRANCH   1  17
ATOM     17  O   UNL     1     -12.308   1.979  -0.268  0.00  0.00    -0.450 OA
BRANCH  17  19
ATOM     18  C   UNL     1     -14.716   2.114  -0.601  0.00  0.00    +0.048 C 
ATOM     19  C   UNL     1     -13.369   2.811  -0.806  0.00  0.00    +0.230 C 
ENDBRANCH  17  19
ENDBRANCH   1  17
BRANCH   8  20
ATOM     20  C   UNL     1      -3.609   3.009  -0.117  0.00  0.00    +0.265 C 
BRANCH  20  21
ATOM     21  O   UNL     1      -2.430   3.815  -0.073  0.00  0.00    -0.487 OA
BRANCH  21  22
ATOM     22  C   UNL     1      -1.243   3.180  -0.246  0.00  0.00    +0.125 A 
ATOM     23  C   UNL     1      -1.221   1.803  -0.461  0.00  0.00    +0.046 A 
ATOM     24  C   UNL     1      -0.035   1.149  -0.631  0.00  0.00    +0.015 A 
ATOM     25  C   UNL     1       1.166   1.867  -0.601  0.00  0.00    +0.021 A 
ATOM     26  C   UNL     1       2.453   1.193  -0.786  0.00  0.00    -0.033 A 
ATOM     27  C   UNL     1       3.583   1.945  -0.747  0.00  0.00    +0.096 A 
ATOM     28  C   UNL     1       3.493   3.336  -0.532  0.00  0.00    +0.337 A 
ATOM     29  O   UNL     1       4.514   3.998  -0.499  0.00  0.00    -0.245 OA
ATOM     30  O   UNL     1       2.310   3.948  -0.363  0.00  0.00    -0.422 OA
ATOM     31  C   UNL     1       1.150   3.258  -0.391  0.00  0.00    +0.143 A 
ATOM     32  C   UNL     1      -0.064   3.906  -0.214  0.00  0.00    +0.092 A 
ATOM     33  C   UNL     1       2.521  -0.295  -1.014  0.00  0.00    +0.045 C 
ENDBRANCH  21  22
ENDBRANCH  20  21
ENDBRANCH   8  20
TORSDOF 6
