REMARK  Name = ZINC35575199
REMARK  8 active torsions:
REMARK  status: ('A' for Active; 'I' for Inactive)
REMARK    1  A    between atoms: C_1  and  C_2
REMARK    2  A    between atoms: C_5  and  N_8
REMARK    3  A    between atoms: C_11  and  C_13
REMARK    4  A    between atoms: C_13  and  N_14
REMARK    5  A    between atoms: N_14  and  C_15
REMARK    6  A    between atoms: C_16  and  C_18
REMARK    7  A    between atoms: N_25  and  C_28
REMARK    8  A    between atoms: C_28  and  C_29
REMARK                            x       y       z     vdW  Elec       q    Type
REMARK                         _______ _______ _______ _____ _____    ______ ____
ROOT
ATOM      1  N   UNL     1      -0.057  -4.343  -1.448  0.00  0.00    -0.236 N 
ATOM      2  C   UNL     1       0.635  -4.763  -0.376  0.00  0.00    +0.045 A 
ATOM      3  C   UNL     1       0.429  -6.101  -0.243  0.00  0.00    -0.018 A 
ATOM      4  C   UNL     1      -0.420  -6.508  -1.266  0.00  0.00    +0.082 A 
ATOM      5  N   UNL     1      -0.720  -5.455  -1.990  0.00  0.00    -0.169 NA
ATOM      6  C   UNL     1       1.055  -6.929   0.851  0.00  0.00    -0.039 C 
ATOM      7  N   UNL     1       2.178  -6.170   1.425  0.00  0.00    +0.385 N 
ATOM      8  C   UNL     1       1.735  -4.827   1.821  0.00  0.00    -0.072 C 
ATOM      9  C   UNL     1       1.503  -3.968   0.568  0.00  0.00    +0.037 C 
ATOM     10  H   UNL     1       2.913  -6.090   0.738  0.00  0.00    -0.081 HD
ENDROOT
BRANCH   1  15
ATOM     11  C   UNL     1      -0.280   0.975  -3.417  0.00  0.00    +0.044 C 
ATOM     12  C   UNL     1      -0.221  -0.437  -2.894  0.00  0.00    -0.050 A 
ATOM     13  C   UNL     1       0.985  -0.966  -2.470  0.00  0.00    +0.005 A 
ATOM     14  C   UNL     1       1.042  -2.260  -1.990  0.00  0.00    +0.028 A 
ATOM     15  C   UNL     1      -0.112  -3.030  -1.933  0.00  0.00    +0.066 A 
ATOM     16  C   UNL     1      -1.321  -2.496  -2.360  0.00  0.00    +0.028 A 
ATOM     17  C   UNL     1      -1.373  -1.199  -2.833  0.00  0.00    +0.005 A 
ENDBRANCH   1  15
BRANCH   4  18
ATOM     18  C   UNL     1      -0.914  -7.912  -1.500  0.00  0.00    +0.164 C 
BRANCH  18  19
ATOM     19  N   UNL     1      -2.167  -8.116  -0.769  0.00  0.00    -0.298 N 
ATOM     20  C   UNL     1      -3.449  -7.820  -1.414  0.00  0.00    +0.132 C 
ATOM     21  C   UNL     1      -2.141  -8.577   0.498  0.00  0.00    +0.219 C 
ATOM     22  O   UNL     1      -1.080  -8.750   1.058  0.00  0.00    -0.275 OA
BRANCH  21  23
ATOM     23  C   UNL     1      -3.431  -8.877   1.217  0.00  0.00    +0.075 C 
ATOM     24  C   UNL     1      -4.054  -7.570   1.713  0.00  0.00    +0.013 C 
ATOM     25  C   UNL     1      -5.364  -7.875   2.443  0.00  0.00    +0.001 C 
ATOM     26  C   UNL     1      -5.081  -8.790   3.636  0.00  0.00    +0.000 C 
ATOM     27  C   UNL     1      -4.458 -10.097   3.140  0.00  0.00    +0.001 C 
ATOM     28  C   UNL     1      -3.149  -9.792   2.410  0.00  0.00    +0.013 C 
ENDBRANCH  21  23
ENDBRANCH  18  19
ENDBRANCH   4  18
BRANCH   7  29
ATOM     29  C   UNL     1       2.692  -6.879   2.604  0.00  0.00    -0.043 C 
BRANCH  29  30
ATOM     30  C   UNL     1       3.918  -6.171   3.121  0.00  0.00    -0.064 A 
ATOM     31  C   UNL     1       5.169  -6.518   2.646  0.00  0.00    +0.004 A 
ATOM     32  C   UNL     1       6.293  -5.869   3.119  0.00  0.00    +0.038 A 
ATOM     33  C   UNL     1       6.167  -4.870   4.069  0.00  0.00    +0.123 A 
ATOM     34  C   UNL     1       4.914  -4.523   4.545  0.00  0.00    +0.038 A 
ATOM     35  C   UNL     1       3.790  -5.170   4.066  0.00  0.00    +0.004 A 
ATOM     36  F   UNL     1       7.266  -4.235   4.533  0.00  0.00    -0.205 F 
ENDBRANCH  29  30
ENDBRANCH   7  29
TORSDOF 6
