REMARK  Name = ZINC03114286
REMARK  7 active torsions:
REMARK  status: ('A' for Active; 'I' for Inactive)
REMARK    1  A    between atoms: C_1  and  C_2
REMARK    2  A    between atoms: C_5  and  N_9
REMARK    3  A    between atoms: C_7  and  C_8
REMARK    4  A    between atoms: C_10  and  C_11
REMARK    5  A    between atoms: C_12  and  C_21
REMARK    6  A    between atoms: C_14  and  C_19
REMARK    7  A    between atoms: C_16  and  O_17
REMARK                            x       y       z     vdW  Elec       q    Type
REMARK                         _______ _______ _______ _____ _____    ______ ____
ROOT
ATOM      1  C   UNL     1       2.387   1.415  -0.014  0.00  0.00    +0.040 A 
ATOM      2  C   UNL     1       1.164   2.094   0.002  0.00  0.00    -0.020 A 
ATOM      3  C   UNL     1      -0.017   1.382   0.010  0.00  0.00    +0.049 A 
ATOM      4  C   UNL     1       0.002  -0.004   0.002  0.00  0.00    -0.014 A 
ATOM      5  C   UNL     1       1.203  -0.687  -0.013  0.00  0.00    +0.064 A 
ATOM      6  C   UNL     1       2.401   0.012  -0.021  0.00  0.00    +0.140 A 
ATOM      7 BR   UNL     1       1.214  -2.578  -0.023  0.00  0.00    -0.046 Br
ATOM      8  C   UNL     1      -1.295  -0.771   0.011  0.00  0.00    +0.046 C 
ATOM      9 CL   UNL     1      -1.534   2.226   0.021  0.00  0.00    -0.083 Cl
ATOM     10  C   UNL     1       1.138   3.600   0.011  0.00  0.00    +0.046 C 
ENDROOT
BRANCH   1  12
ATOM     11  N   UNL     1       4.788   1.530  -0.036  0.00  0.00    -0.255 NA
ATOM     12  C   UNL     1       3.651   2.167  -0.022  0.00  0.00    +0.123 C 
BRANCH  11  17
ATOM     13  C   UNL     1       9.639   4.417  -0.068  0.00  0.00    +0.044 C 
ATOM     14  C   UNL     1       8.344   3.646  -0.059  0.00  0.00    -0.047 A 
ATOM     15  C   UNL     1       7.310   4.027  -0.896  0.00  0.00    +0.006 A 
ATOM     16  C   UNL     1       6.124   3.324  -0.897  0.00  0.00    +0.028 A 
ATOM     17  C   UNL     1       5.964   2.230  -0.043  0.00  0.00    +0.064 A 
ATOM     18  C   UNL     1       7.012   1.851   0.799  0.00  0.00    +0.031 A 
ATOM     19  C   UNL     1       8.195   2.561   0.785  0.00  0.00    -0.046 A 
ATOM     20  C   UNL     1       9.326   2.153   1.694  0.00  0.00    +0.044 C 
ENDBRANCH  11  17
ENDBRANCH   1  12
BRANCH   6  21
ATOM     21  O   UNL     1       3.581  -0.658  -0.037  0.00  0.00    -0.505 OA
ATOM     22  H   UNL     1       3.914  -0.847  -0.925  0.00  0.00    +0.292 HD
ENDBRANCH   6  21
TORSDOF 3
