REMARK  Name = ZINC24172843
REMARK  11 active torsions:
REMARK  status: ('A' for Active; 'I' for Inactive)
REMARK    1  A    between atoms: C_1  and  C_2
REMARK    2  A    between atoms: C_2  and  C_3
REMARK    3  A    between atoms: C_2  and  C_4
REMARK    4  A    between atoms: C_7  and  O_10
REMARK    5  A    between atoms: O_10  and  C_11
REMARK    6  A    between atoms: C_11  and  C_12
REMARK    7  A    between atoms: C_15  and  S_18
REMARK    8  A    between atoms: N_16  and  N_17
REMARK    9  A    between atoms: S_18  and  C_19
REMARK   10  A    between atoms: C_19  and  C_20
REMARK   11  A    between atoms: C_26  and  C_29
REMARK                            x       y       z     vdW  Elec       q    Type
REMARK                         _______ _______ _______ _____ _____    ______ ____
ROOT
ATOM      1  C   UNL     1       2.343  -4.165  -0.044  0.00  0.00    +0.189 A 
ATOM      2  N   UNL     1       2.245  -4.926  -1.097  0.00  0.00    -0.128 NA
ATOM      3  N   UNL     1       2.106  -6.153  -0.743  0.00  0.00    -0.121 NA
ATOM      4  C   UNL     1       2.109  -6.242   0.567  0.00  0.00    +0.209 A 
ATOM      5  N   UNL     1       2.265  -4.976   1.054  0.00  0.00    -0.225 N 
ENDROOT
BRANCH   5   6
ATOM      6  N   UNL     1       2.329  -4.599   2.365  0.00  0.00    -0.295 N 
ATOM      7  H   UNL     1       2.253  -5.356   3.160  0.00  0.00    +0.163 HD
ATOM      8  H   UNL     1       2.455  -3.538   2.627  0.00  0.00    +0.163 HD
ENDBRANCH   5   6
BRANCH   1   9
ATOM      9  C   UNL     1       2.518  -2.668  -0.037  0.00  0.00    +0.306 C 
BRANCH   9  10
ATOM     10  O   UNL     1       1.234  -2.039  -0.021  0.00  0.00    -0.484 OA
BRANCH  10  14
ATOM     11  C   UNL     1       1.171   2.086   0.002  0.00  0.00    -0.045 A 
ATOM     12  C   UNL     1      -0.017   1.377   0.010  0.00  0.00    +0.007 A 
ATOM     13  C   UNL     1       0.002  -0.004   0.002  0.00  0.00    +0.046 A 
ATOM     14  C   UNL     1       1.213  -0.680  -0.013  0.00  0.00    +0.121 A 
ATOM     15  C   UNL     1       2.403   0.033  -0.021  0.00  0.00    +0.046 A 
ATOM     16  C   UNL     1       2.379   1.415  -0.013  0.00  0.00    +0.007 A 
BRANCH  11  18
ATOM     17  C   UNL     1       1.872   4.107   1.255  0.00  0.00    +0.012 C 
ATOM     18  C   UNL     1       1.147   3.593   0.010  0.00  0.00    +0.013 C 
ATOM     19  C   UNL     1       1.849   4.120  -1.243  0.00  0.00    +0.012 C 
ENDBRANCH  11  18
ENDBRANCH  10  14
ENDBRANCH   9  10
ENDBRANCH   1   9
BRANCH   4  20
ATOM     20  S   UNL     1       1.947  -7.718   1.517  0.00  0.00    -0.075 S 
BRANCH  20  21
ATOM     21  C   UNL     1       1.792  -8.934   0.186  0.00  0.00    +0.173 C 
BRANCH  21  22
ATOM     22  C   UNL     1       1.639 -10.311   0.778  0.00  0.00    +0.226 C 
ATOM     23  O   UNL     1       1.634 -10.456   1.982  0.00  0.00    -0.275 OA
ATOM     24  N   UNL     1       1.506 -11.381  -0.030  0.00  0.00    -0.300 N 
ATOM     25  C   UNL     1       1.509 -11.222  -1.490  0.00  0.00    +0.108 C 
ATOM     26  C   UNL     1       2.571 -12.152  -2.086  0.00  0.00    +0.020 C 
ATOM     27  C   UNL     1       2.313 -13.584  -1.611  0.00  0.00    +0.016 C 
ATOM     28  C   UNL     1       2.419 -13.643  -0.085  0.00  0.00    +0.092 C 
ATOM     29  C   UNL     1       1.361 -12.731   0.533  0.00  0.00    +0.120 C 
BRANCH  28  30
ATOM     30  C   UNL     1       2.197 -15.060   0.379  0.00  0.00    +0.215 C 
ATOM     31  O   UNL     1       1.976 -15.936  -0.430  0.00  0.00    -0.276 OA
ATOM     32  N   UNL     1       2.244 -15.353   1.694  0.00  0.00    -0.329 N 
ATOM     33  H   UNL     1       2.082 -16.387   2.033  0.00  0.00    +0.145 HD
ATOM     34  H   UNL     1       2.445 -14.559   2.428  0.00  0.00    +0.145 HD
ENDBRANCH  28  30
ENDBRANCH  21  22
ENDBRANCH  20  21
ENDBRANCH   4  20
TORSDOF 9
