REMARK  Name = ZINC40917006
REMARK  8 active torsions:
REMARK  status: ('A' for Active; 'I' for Inactive)
REMARK    1  A    between atoms: C_1  and  C_2
REMARK    2  A    between atoms: C_2  and  C_3
REMARK    3  A    between atoms: C_2  and  C_4
REMARK    4  A    between atoms: C_2  and  C_5
REMARK    5  A    between atoms: C_8  and  C_11
REMARK    6  A    between atoms: C_11  and  O_12
REMARK    7  A    between atoms: O_12  and  C_13
REMARK    8  A    between atoms: C_18  and  C_19
REMARK                            x       y       z     vdW  Elec       q    Type
REMARK                         _______ _______ _______ _____ _____    ______ ____
ROOT
ATOM      1  C   UNL     1       3.102  -1.211  -7.003  0.00  0.00    +0.127 A 
ATOM      2  C   UNL     1       3.824  -2.386  -7.159  0.00  0.00    +0.047 A 
ATOM      3  C   UNL     1       4.410  -2.678  -8.375  0.00  0.00    +0.019 A 
ATOM      4  C   UNL     1       4.277  -1.801  -9.437  0.00  0.00    +0.018 A 
ATOM      5  C   UNL     1       3.558  -0.630  -9.283  0.00  0.00    +0.025 A 
ATOM      6  C   UNL     1       2.965  -0.336  -8.070  0.00  0.00    +0.024 A 
ATOM      7 BR   UNL     1       5.081  -2.204 -11.101  0.00  0.00    -0.050 Br
ENDROOT
BRANCH   6   8
ATOM      8  C   UNL     1       2.176   0.937  -7.905  0.00  0.00    +0.179 C 
ATOM      9  C   UNL     1       1.018   0.939  -8.879  0.00  0.00    +0.041 C 
ATOM     10  C   UNL     1       1.008   1.719  -9.981  0.00  0.00    +0.020 C 
ATOM     11  C   UNL     1      -0.163   1.700 -10.935  0.00  0.00    +0.052 C 
ATOM     12  C   UNL     1      -0.807   0.312 -10.934  0.00  0.00    +0.014 C 
ATOM     13  C   UNL     1      -1.252  -0.011  -9.503  0.00  0.00    +0.080 C 
ATOM     14  C   UNL     1      -0.062   0.085  -8.589  0.00  0.00    +0.163 C 
ATOM     15  O   UNL     1      -0.033  -0.589  -7.579  0.00  0.00    -0.292 OA
ATOM     16  N   UNL     1       2.050   2.563 -10.280  0.00  0.00    -0.287 N 
ATOM     17  C   UNL     1       2.975   2.833  -9.285  0.00  0.00    +0.218 A 
ATOM     18  N   UNL     1       3.042   2.080  -8.162  0.00  0.00    -0.221 N 
ATOM     19  N   UNL     1       4.062   2.626  -7.383  0.00  0.00    -0.156 NA
ATOM     20  C   UNL     1       4.547   3.641  -8.055  0.00  0.00    +0.247 A 
ATOM     21  N   UNL     1       3.887   3.763  -9.204  0.00  0.00    -0.201 NA
ATOM     22  H   UNL     1       2.136   2.958 -11.162  0.00  0.00    +0.155 HD
ENDBRANCH   6   8
BRANCH   1  23
ATOM     23  O   UNL     1       2.525  -0.921  -5.807  0.00  0.00    -0.487 OA
BRANCH  23  24
ATOM     24  C   UNL     1       2.707  -1.868  -4.752  0.00  0.00    +0.264 C 
BRANCH  24  28
ATOM     25  C   UNL     1       0.707  -0.490  -1.238  0.00  0.00    -0.042 A 
ATOM     26  C   UNL     1       0.036  -1.284  -2.148  0.00  0.00    +0.004 A 
ATOM     27  C   UNL     1       0.683  -1.730  -3.286  0.00  0.00    +0.007 A 
ATOM     28  C   UNL     1       2.001  -1.381  -3.513  0.00  0.00    -0.010 A 
ATOM     29  C   UNL     1       2.672  -0.586  -2.603  0.00  0.00    +0.007 A 
ATOM     30  C   UNL     1       2.024  -0.137  -1.467  0.00  0.00    +0.004 A 
BRANCH  25  32
ATOM     31  C   UNL     1      -0.019   1.526   0.010  0.00  0.00    +0.015 C 
ATOM     32  C   UNL     1       0.002  -0.004   0.002  0.00  0.00    -0.013 C 
ATOM     33  C   UNL     1       0.742  -0.511   1.242  0.00  0.00    +0.015 C 
ATOM     34  C   UNL     1      -1.433  -0.534   0.013  0.00  0.00    +0.015 C 
ENDBRANCH  25  32
ENDBRANCH  24  28
ENDBRANCH  23  24
ENDBRANCH   1  23
TORSDOF 5
