REMARK  Name = ZINC24984717
REMARK  9 active torsions:
REMARK  status: ('A' for Active; 'I' for Inactive)
REMARK    1  A    between atoms: C_1  and  N_2
REMARK    2  A    between atoms: N_2  and  C_3
REMARK    3  A    between atoms: N_2  and  C_10
REMARK    4  A    between atoms: C_3  and  C_4
REMARK    5  A    between atoms: C_10  and  C_11
REMARK    6  A    between atoms: N_13  and  C_14
REMARK    7  A    between atoms: C_14  and  C_15
REMARK    8  A    between atoms: C_15  and  N_16
REMARK    9  A    between atoms: C_20  and  C_21
REMARK                            x       y       z     vdW  Elec       q    Type
REMARK                         _______ _______ _______ _____ _____    ______ ____
ROOT
ATOM      1  C   UNL     1       0.781   1.873 -10.592  0.00  0.00    +0.133 C 
ENDROOT
BRANCH   1   2
ATOM      2  N   UNL     1      -0.191   2.551 -11.454  0.00  0.00    -0.254 N 
ATOM      3  C   UNL     1      -0.077   3.852 -11.657  0.00  0.00    +0.258 C 
ATOM      4  O   UNL     1       0.816   4.504 -11.147  0.00  0.00    -0.269 OA
ATOM      5  C   UNL     1      -1.087   4.476 -12.536  0.00  0.00    +0.077 C 
ATOM      6  C   UNL     1      -1.219   5.771 -12.919  0.00  0.00    +0.028 C 
ATOM      7  S   UNL     1      -2.087   3.055 -12.956  0.00  0.00    -0.061 S 
ATOM      8  C   UNL     1      -1.178   1.832 -12.025  0.00  0.00    +0.121 C 
ATOM      9  S   UNL     1      -1.486   0.153 -11.891  0.00  0.00    -0.027 S 
BRANCH   6  10
ATOM     10  C   UNL     1      -0.382   6.808 -12.303  0.00  0.00    -0.020 A 
ATOM     11  C   UNL     1       0.126   7.855 -13.082  0.00  0.00    +0.012 A 
ATOM     12  C   UNL     1       0.911   8.827 -12.501  0.00  0.00    +0.050 A 
ATOM     13  C   UNL     1       1.201   8.773 -11.143  0.00  0.00    +0.166 A 
ATOM     14  C   UNL     1       0.698   7.732 -10.361  0.00  0.00    +0.167 A 
ATOM     15  C   UNL     1      -0.093   6.757 -10.934  0.00  0.00    +0.057 A 
ATOM     16  O   UNL     1       1.125   7.909  -9.076  0.00  0.00    -0.453 OA
ATOM     17  C   UNL     1       2.224   8.834  -9.160  0.00  0.00    +0.466 C 
ATOM     18  O   UNL     1       1.940   9.598 -10.347  0.00  0.00    -0.453 OA
ENDBRANCH   6  10
ENDBRANCH   1   2
BRANCH   1  19
ATOM     19  C   UNL     1       0.280   1.890  -9.146  0.00  0.00    +0.123 C 
BRANCH  19  22
ATOM     20  C   UNL     1       1.020   1.105  -6.961  0.00  0.00    +0.196 C 
ATOM     21  O   UNL     1       0.006   1.570  -6.484  0.00  0.00    -0.278 OA
ATOM     22  N   UNL     1       1.252   1.212  -8.284  0.00  0.00    -0.315 N 
ATOM     23  H   UNL     1       2.171   0.791  -8.717  0.00  0.00    +0.149 HD
BRANCH  20  24
ATOM     24  C   UNL     1       2.019   0.408  -6.075  0.00  0.00    +0.018 C 
BRANCH  24  26
ATOM     25  C   UNL     1       0.320  -0.384  -4.543  0.00  0.00    -0.096 C 
ATOM     26  N   UNL     1       1.538   0.424  -4.687  0.00  0.00    +0.384 N 
ATOM     27  H   UNL     1       1.287   1.464  -4.428  0.00  0.00    -0.082 HD
BRANCH  26  28
ATOM     28  C   UNL     1       2.584  -0.030  -3.762  0.00  0.00    -0.075 C 
BRANCH  28  29
ATOM     29  C   UNL     1       2.141   0.233  -2.321  0.00  0.00    -0.028 C 
ATOM     30  C   UNL     1       3.173  -0.352  -1.355  0.00  0.00    +0.002 C 
ATOM     31  C   UNL     1       2.730  -0.089   0.086  0.00  0.00    +0.000 C 
ATOM     32  C   UNL     1       2.614   1.419   0.316  0.00  0.00    +0.000 C 
ATOM     33  C   UNL     1       1.582   2.005  -0.651  0.00  0.00    +0.000 C 
ATOM     34  C   UNL     1       2.025   1.741  -2.091  0.00  0.00    +0.002 C 
ENDBRANCH  28  29
ENDBRANCH  26  28
ENDBRANCH  24  26
ENDBRANCH  20  24
ENDBRANCH  19  22
ENDBRANCH   1  19
TORSDOF 8
