REMARK  Name = ZINC20880747
REMARK  8 active torsions:
REMARK  status: ('A' for Active; 'I' for Inactive)
REMARK    1  A    between atoms: C_1  and  C_2
REMARK    2  A    between atoms: C_3  and  C_26
REMARK    3  A    between atoms: C_7  and  N_8
REMARK    4  A    between atoms: N_8  and  C_9
REMARK    5  A    between atoms: C_9  and  C_10
REMARK    6  A    between atoms: C_15  and  O_16
REMARK    7  A    between atoms: O_16  and  C_17
REMARK    8  A    between atoms: C_17  and  C_18
REMARK                            x       y       z     vdW  Elec       q    Type
REMARK                         _______ _______ _______ _____ _____    ______ ____
ROOT
ATOM      1  C   UNL     1      -1.785   2.491  -0.284  0.00  0.00    +0.012 A 
ATOM      2  C   UNL     1      -0.481   2.949  -0.302  0.00  0.00    +0.024 A 
ATOM      3  C   UNL     1       0.566   2.053  -0.415  0.00  0.00    +0.018 A 
ATOM      4  C   UNL     1       0.312   0.696  -0.510  0.00  0.00    +0.019 A 
ATOM      5  C   UNL     1      -0.990   0.234  -0.493  0.00  0.00    +0.047 A 
ATOM      6  C   UNL     1      -2.042   1.132  -0.386  0.00  0.00    +0.126 A 
ATOM      7 BR   UNL     1       2.349   2.683  -0.438  0.00  0.00    -0.050 Br
ENDROOT
BRANCH   1   8
ATOM      8  C   UNL     1      -2.926   3.467  -0.160  0.00  0.00    +0.140 C 
BRANCH   8   9
ATOM      9  N   UNL     1      -3.396   3.496   1.227  0.00  0.00    -0.339 N 
ATOM     10  H   UNL     1      -2.916   2.858   1.984  0.00  0.00    +0.146 HD
BRANCH   9  17
ATOM     11  C   UNL     1      -4.251   3.479   3.938  0.00  0.00    +0.046 C 
ATOM     12  C   UNL     1      -4.903   4.356   2.900  0.00  0.00    -0.016 A 
ATOM     13  C   UNL     1      -5.958   5.197   3.257  0.00  0.00    +0.068 A 
ATOM     14  C   UNL     1      -6.560   6.002   2.289  0.00  0.00    +0.015 A 
ATOM     15  C   UNL     1      -6.110   5.968   0.985  0.00  0.00    +0.003 A 
ATOM     16  C   UNL     1      -5.062   5.139   0.632  0.00  0.00    +0.023 A 
ATOM     17  C   UNL     1      -4.455   4.333   1.589  0.00  0.00    +0.031 A 
BRANCH  13  18
ATOM     18  C   UNL     1      -6.438   5.232   4.654  0.00  0.00    +0.387 C 
ATOM     19  O   UNL     1      -5.843   4.617   5.516  0.00  0.00    -0.241 OA
ATOM     20  O   UNL     1      -7.536   5.946   4.971  0.00  0.00    -0.241 OA
ENDBRANCH  13  18
ENDBRANCH   9  17
ENDBRANCH   8   9
ENDBRANCH   1   8
BRANCH   6  21
ATOM     21  O   UNL     1      -3.324   0.679  -0.375  0.00  0.00    -0.487 OA
BRANCH  21  22
ATOM     22  C   UNL     1      -3.514  -0.733  -0.477  0.00  0.00    +0.267 C 
BRANCH  22  23
ATOM     23  C   UNL     1      -4.989  -1.045  -0.448  0.00  0.00    +0.025 A 
ATOM     24  C   UNL     1      -5.909  -0.021  -0.330  0.00  0.00    +0.010 A 
ATOM     25  C   UNL     1      -7.262  -0.306  -0.310  0.00  0.00    +0.001 A 
ATOM     26  C   UNL     1      -7.694  -1.617  -0.395  0.00  0.00    +0.003 A 
ATOM     27  C   UNL     1      -6.776  -2.642  -0.507  0.00  0.00    +0.039 A 
ATOM     28  C   UNL     1      -5.420  -2.357  -0.534  0.00  0.00    +0.130 A 
ATOM     29  F   UNL     1      -4.521  -3.359  -0.643  0.00  0.00    -0.205 F 
ENDBRANCH  22  23
ENDBRANCH  21  22
ENDBRANCH   6  21
TORSDOF 7
