REMARK  Name = ZINC40014297
REMARK  13 active torsions:
REMARK  status: ('A' for Active; 'I' for Inactive)
REMARK    1  A    between atoms: C_1  and  C_2
REMARK    2  A    between atoms: C_2  and  C_3
REMARK    3  A    between atoms: C_3  and  C_4
REMARK    4  A    between atoms: C_4  and  N_5
REMARK    5  A    between atoms: N_5  and  C_6
REMARK    6  A    between atoms: N_5  and  C_10
REMARK    7  A    between atoms: C_6  and  C_7
REMARK    8  A    between atoms: C_7  and  C_8
REMARK    9  A    between atoms: C_8  and  C_9
REMARK   10  A    between atoms: C_10  and  C_11
REMARK   11  A    between atoms: C_11  and  C_12
REMARK   12  A    between atoms: C_12  and  N_13
REMARK   13  A    between atoms: C_14  and  C_30
REMARK                            x       y       z     vdW  Elec       q    Type
REMARK                         _______ _______ _______ _____ _____    ______ ____
ROOT
ATOM      1  N   UNL     1      -2.042  -5.995  -3.175  0.00  0.00    -0.284 N 
ATOM      2  C   UNL     1      -2.937  -6.324  -2.054  0.00  0.00    +0.147 C 
ATOM      3  C   UNL     1      -4.290  -6.520  -2.657  0.00  0.00    +0.072 A 
ATOM      4  C   UNL     1      -5.577  -6.871  -2.050  0.00  0.00    +0.199 A 
ATOM      5  O   UNL     1      -5.762  -6.895  -0.845  0.00  0.00    -0.287 OA
ATOM      6  C   UNL     1      -6.634  -7.194  -3.041  0.00  0.00    +0.067 A 
ATOM      7  C   UNL     1      -7.850  -7.737  -2.624  0.00  0.00    +0.053 A 
ATOM      8  C   UNL     1      -8.818  -8.036  -3.559  0.00  0.00    +0.124 A 
ATOM      9  C   UNL     1      -8.580  -7.797  -4.908  0.00  0.00    +0.042 A 
ATOM     10  C   UNL     1      -7.385  -7.260  -5.329  0.00  0.00    +0.050 A 
ATOM     11  C   UNL     1      -6.391  -6.947  -4.402  0.00  0.00    +0.140 A 
ATOM     12  O   UNL     1      -5.229  -6.410  -4.842  0.00  0.00    -0.450 OA
ATOM     13  C   UNL     1      -4.179  -6.315  -4.003  0.00  0.00    +0.199 A 
ATOM     14  C   UNL     1      -2.775  -5.987  -4.307  0.00  0.00    +0.283 C 
ATOM     15  O   UNL     1      -2.341  -5.747  -5.416  0.00  0.00    -0.267 OA
ATOM     16  F   UNL     1      -9.998  -8.562  -3.165  0.00  0.00    -0.205 F 
ENDROOT
BRANCH   2  17
ATOM     17  C   UNL     1      -2.480  -7.591  -1.378  0.00  0.00    +0.013 A 
ATOM     18  C   UNL     1      -1.646  -8.469  -2.046  0.00  0.00    +0.008 A 
ATOM     19  C   UNL     1      -1.226  -9.631  -1.425  0.00  0.00    +0.001 A 
ATOM     20  C   UNL     1      -1.640  -9.916  -0.137  0.00  0.00    +0.003 A 
ATOM     21  C   UNL     1      -2.473  -9.040   0.532  0.00  0.00    +0.039 A 
ATOM     22  C   UNL     1      -2.890  -7.873  -0.086  0.00  0.00    +0.129 A 
ATOM     23  F   UNL     1      -3.700  -7.014   0.569  0.00  0.00    -0.205 F 
ENDBRANCH   2  17
BRANCH   1  24
ATOM     24  C   UNL     1      -0.606  -5.719  -3.078  0.00  0.00    +0.107 C 
BRANCH  24  25
ATOM     25  C   UNL     1      -0.390  -4.221  -2.851  0.00  0.00    +0.000 C 
BRANCH  25  26
ATOM     26  C   UNL     1       1.109  -3.932  -2.749  0.00  0.00    -0.077 C 
BRANCH  26  27
ATOM     27  N   UNL     1       1.317  -2.495  -2.531  0.00  0.00    +0.380 N 
ATOM     28  H   UNL     1       0.856  -1.974  -3.261  0.00  0.00    -0.082 HD
BRANCH  27  29
ATOM     29  C   UNL     1       0.758  -2.111  -1.228  0.00  0.00    -0.079 C 
BRANCH  29  30
ATOM     30  C   UNL     1       0.846  -0.593  -1.062  0.00  0.00    -0.019 C 
BRANCH  30  32
ATOM     31  C   UNL     1       0.232   1.339   0.399  0.00  0.00    +0.004 C 
ATOM     32  C   UNL     1       0.144  -0.179   0.234  0.00  0.00    -0.005 C 
ENDBRANCH  30  32
ENDBRANCH  29  30
ENDBRANCH  27  29
BRANCH  27  33
ATOM     33  C   UNL     1       2.756  -2.199  -2.552  0.00  0.00    -0.079 C 
BRANCH  33  34
ATOM     34  C   UNL     1       3.310  -2.463  -3.954  0.00  0.00    -0.019 C 
BRANCH  34  35
ATOM     35  C   UNL     1       4.776  -2.030  -4.013  0.00  0.00    -0.005 C 
ATOM     36  C   UNL     1       5.330  -2.294  -5.414  0.00  0.00    +0.004 C 
ENDBRANCH  34  35
ENDBRANCH  33  34
ENDBRANCH  27  33
ENDBRANCH  26  27
ENDBRANCH  25  26
ENDBRANCH  24  25
ENDBRANCH   1  24
TORSDOF 11
