REMARK  Name = ZINC20116702
REMARK  17 active torsions:
REMARK  status: ('A' for Active; 'I' for Inactive)
REMARK    1  A    between atoms: C_1  and  C_2
REMARK    2  A    between atoms: C_2  and  N_3
REMARK    3  A    between atoms: N_3  and  C_4
REMARK    4  A    between atoms: N_3  and  C_6
REMARK    5  A    between atoms: C_4  and  C_5
REMARK    6  A    between atoms: C_6  and  C_7
REMARK    7  A    between atoms: C_7  and  C_9
REMARK    8  A    between atoms: C_7  and  C_10
REMARK    9  A    between atoms: C_10  and  N_11
REMARK   10  A    between atoms: C_12  and  C_14
REMARK   11  A    between atoms: C_14  and  S_15
REMARK   12  A    between atoms: S_15  and  C_16
REMARK   13  A    between atoms: C_20  and  C_34
REMARK   14  A    between atoms: C_21  and  C_26
REMARK   15  A    between atoms: C_22  and  C_25
REMARK   16  A    between atoms: C_26  and  C_27
REMARK   17  A    between atoms: C_30  and  C_33
REMARK                            x       y       z     vdW  Elec       q    Type
REMARK                         _______ _______ _______ _____ _____    ______ ____
ROOT
ATOM      1  C   UNL     1      -2.959   4.304   4.601  0.00  0.00    +0.211 A 
ATOM      2  N   UNL     1      -2.559   5.572   4.664  0.00  0.00    -0.183 NA
ATOM      3  C   UNL     1      -1.372   5.638   5.258  0.00  0.00    +0.254 A 
ATOM      4  N   UNL     1      -0.562   6.665   5.540  0.00  0.00    -0.216 NA
ATOM      5  C   UNL     1       0.587   6.469   6.147  0.00  0.00    +0.047 A 
ATOM      6  C   UNL     1       0.983   5.177   6.510  0.00  0.00    -0.001 A 
ATOM      7  C   UNL     1       0.166   4.129   6.227  0.00  0.00    +0.049 A 
ATOM      8  N   UNL     1      -1.012   4.363   5.593  0.00  0.00    -0.200 N 
ATOM      9  N   UNL     1      -2.053   3.530   5.162  0.00  0.00    -0.137 NA
ATOM     10  C   UNL     1       0.565   2.725   6.605  0.00  0.00    +0.066 C 
ATOM     11  C   UNL     1       1.482   7.642   6.455  0.00  0.00    +0.066 C 
ENDROOT
BRANCH   1  12
ATOM     12  S   UNL     1      -4.474   3.748   3.893  0.00  0.00    -0.075 S 
BRANCH  12  13
ATOM     13  C   UNL     1      -5.264   5.269   3.299  0.00  0.00    +0.173 C 
BRANCH  13  15
ATOM     14  N   UNL     1      -7.357   5.912   2.146  0.00  0.00    -0.314 N 
ATOM     15  C   UNL     1      -6.588   4.932   2.661  0.00  0.00    +0.223 C 
ATOM     16  O   UNL     1      -6.961   3.779   2.612  0.00  0.00    -0.275 OA
ATOM     17  H   UNL     1      -7.018   6.957   2.190  0.00  0.00    +0.149 HD
BRANCH  14  18
ATOM     18  C   UNL     1      -8.643   5.584   1.526  0.00  0.00    +0.105 C 
BRANCH  18  19
ATOM     19  C   UNL     1      -9.310   6.867   1.025  0.00  0.00    -0.014 C 
ATOM     20  C   UNL     1      -9.651   7.763   2.218  0.00  0.00    +0.007 C 
BRANCH  19  21
ATOM     21  C   UNL     1     -10.592   6.513   0.269  0.00  0.00    -0.074 C 
BRANCH  21  22
ATOM     22  N   UNL     1     -11.168   7.732  -0.314  0.00  0.00    +0.380 N 
ATOM     23  H   UNL     1     -11.256   8.481   0.487  0.00  0.00    -0.082 HD
BRANCH  22  25
ATOM     24  C   UNL     1     -10.137   7.267  -2.486  0.00  0.00    -0.017 C 
ATOM     25  C   UNL     1     -10.290   8.285  -1.353  0.00  0.00    -0.082 C 
ENDBRANCH  22  25
BRANCH  22  26
ATOM     26  C   UNL     1     -12.515   7.477  -0.843  0.00  0.00    -0.082 C 
ATOM     27  C   UNL     1     -13.188   8.807  -1.185  0.00  0.00    -0.017 C 
ENDBRANCH  22  26
ENDBRANCH  21  22
ENDBRANCH  19  21
ENDBRANCH  18  19
ENDBRANCH  14  18
ENDBRANCH  13  15
ENDBRANCH  12  13
ENDBRANCH   1  12
BRANCH   6  28
ATOM     28  C   UNL     1       2.300   4.950   7.207  0.00  0.00    +0.073 C 
BRANCH  28  29
ATOM     29  C   UNL     1       2.076   4.889   8.696  0.00  0.00    -0.043 A 
ATOM     30  C   UNL     1       2.026   6.056   9.436  0.00  0.00    +0.004 A 
ATOM     31  C   UNL     1       1.816   5.999  10.802  0.00  0.00    +0.003 A 
ATOM     32  C   UNL     1       1.666   4.776  11.428  0.00  0.00    -0.050 A 
ATOM     33  C   UNL     1       1.721   3.610  10.689  0.00  0.00    +0.003 A 
ATOM     34  C   UNL     1       1.927   3.666   9.323  0.00  0.00    +0.004 A 
ATOM     35  C   UNL     1       1.443   4.715  12.917  0.00  0.00    +0.044 C 
ENDBRANCH  28  29
ENDBRANCH   6  28
TORSDOF 11
