REMARK  Name = ZINC36308004
REMARK  16 active torsions:
REMARK  status: ('A' for Active; 'I' for Inactive)
REMARK    1  A    between atoms: C_1  and  C_2
REMARK    2  A    between atoms: C_2  and  C_3
REMARK    3  A    between atoms: C_2  and  C_4
REMARK    4  A    between atoms: C_5  and  C_23
REMARK    5  A    between atoms: C_6  and  O_15
REMARK    6  A    between atoms: N_7  and  C_9
REMARK    7  A    between atoms: O_15  and  C_16
REMARK    8  A    between atoms: C_23  and  N_24
REMARK    9  A    between atoms: N_24  and  C_25
REMARK   10  A    between atoms: N_24  and  C_34
REMARK   11  A    between atoms: C_25  and  C_26
REMARK   12  A    between atoms: C_26  and  C_28
REMARK   13  A    between atoms: C_26  and  O_33
REMARK   14  A    between atoms: C_28  and  O_29
REMARK   15  A    between atoms: O_29  and  C_30
REMARK   16  A    between atoms: C_30  and  C_31
REMARK                            x       y       z     vdW  Elec       q    Type
REMARK                         _______ _______ _______ _____ _____    ______ ____
ROOT
ATOM      1  C   UNL     1       0.389  -0.392  -0.762  0.00  0.00    +0.071 A 
ATOM      2  C   UNL     1       1.334  -1.398  -0.982  0.00  0.00    +0.021 A 
ATOM      3  C   UNL     1       1.286  -1.736  -2.298  0.00  0.00    +0.225 A 
ATOM      4  N   UNL     1       0.335  -0.960  -2.884  0.00  0.00    -0.200 N 
ATOM      5  N   UNL     1      -0.212  -0.133  -1.895  0.00  0.00    -0.168 NA
ENDROOT
BRANCH   4   6
ATOM      6  C   UNL     1      -0.035  -0.987  -4.236  0.00  0.00    +0.069 A 
ATOM      7  C   UNL     1       0.938  -1.073  -5.222  0.00  0.00    +0.028 A 
ATOM      8  C   UNL     1       0.570  -1.100  -6.553  0.00  0.00    +0.002 A 
ATOM      9  C   UNL     1      -0.766  -1.040  -6.904  0.00  0.00    +0.000 A 
ATOM     10  C   UNL     1      -1.738  -0.954  -5.924  0.00  0.00    +0.002 A 
ATOM     11  C   UNL     1      -1.376  -0.933  -4.591  0.00  0.00    +0.028 A 
ENDBRANCH   4   6
BRANCH   1  13
ATOM     12  C   UNL     1       0.363   1.781   0.434  0.00  0.00    +0.014 C 
ATOM     13  C   UNL     1       0.106   0.278   0.559  0.00  0.00    +0.034 C 
ATOM     14  C   UNL     1      -1.355   0.041   0.948  0.00  0.00    +0.014 C 
ENDBRANCH   1  13
BRANCH   3  15
ATOM     15  O   UNL     1       2.048  -2.675  -2.914  0.00  0.00    -0.438 OA
BRANCH  15  16
ATOM     16  C   UNL     1       3.264  -2.298  -3.391  0.00  0.00    +0.133 A 
ATOM     17  C   UNL     1       3.734  -1.013  -3.156  0.00  0.00    +0.046 A 
ATOM     18  C   UNL     1       4.970  -0.631  -3.640  0.00  0.00    +0.006 A 
ATOM     19  C   UNL     1       5.739  -1.527  -4.359  0.00  0.00    +0.038 A 
ATOM     20  C   UNL     1       5.273  -2.809  -4.596  0.00  0.00    +0.127 A 
ATOM     21  C   UNL     1       4.038  -3.198  -4.107  0.00  0.00    +0.084 A 
ATOM     22  F   UNL     1       6.027  -3.683  -5.298  0.00  0.00    -0.205 F 
ENDBRANCH  15  16
ENDBRANCH   3  15
BRANCH   2  23
ATOM     23  C   UNL     1       2.246  -2.001   0.056  0.00  0.00    -0.035 C 
BRANCH  23  24
ATOM     24  N   UNL     1       1.585  -3.158   0.675  0.00  0.00    +0.386 N 
ATOM     25  H   UNL     1       0.688  -2.876   1.042  0.00  0.00    -0.081 HD
BRANCH  24  26
ATOM     26  C   UNL     1       1.393  -4.210  -0.333  0.00  0.00    -0.068 C 
ATOM     27  C   UNL     1      -0.026  -4.432  -0.861  0.00  0.00    -0.017 C 
ATOM     28  C   UNL     1       0.607  -5.454   0.086  0.00  0.00    -0.017 C 
ENDBRANCH  24  26
BRANCH  24  29
ATOM     29  C   UNL     1       2.421  -3.673   1.767  0.00  0.00    -0.044 C 
BRANCH  29  30
ATOM     30  C   UNL     1       2.505  -2.628   2.881  0.00  0.00    +0.124 C 
BRANCH  30  31
ATOM     31  O   UNL     1       1.194  -2.358   3.382  0.00  0.00    -0.391 OA
ATOM     32  H   UNL     1       0.747  -3.132   3.750  0.00  0.00    +0.210 HD
ENDBRANCH  30  31
BRANCH  30  33
ATOM     33  C   UNL     1       3.384  -3.160   4.015  0.00  0.00    +0.189 C 
BRANCH  33  34
ATOM     34  O   UNL     1       3.558  -2.142   5.002  0.00  0.00    -0.373 OA
BRANCH  34  35
ATOM     35  C   UNL     1       4.368  -2.538   6.110  0.00  0.00    +0.186 C 
BRANCH  35  36
ATOM     36  C   UNL     1       4.484  -1.393   7.083  0.00  0.00    -0.007 C 
ATOM     37  C   UNL     1       4.341  -1.608   8.367  0.00  0.00    +0.006 C 
ENDBRANCH  35  36
ENDBRANCH  34  35
ENDBRANCH  33  34
ENDBRANCH  30  33
ENDBRANCH  29  30
ENDBRANCH  24  29
ENDBRANCH  23  24
ENDBRANCH   2  23
TORSDOF 14
