REMARK  Name = ZINC00955891
REMARK  11 active torsions:
REMARK  status: ('A' for Active; 'I' for Inactive)
REMARK    1  A    between atoms: C_1  and  C_2
REMARK    2  A    between atoms: C_2  and  O_3
REMARK    3  A    between atoms: O_3  and  C_4
REMARK    4  A    between atoms: C_4  and  C_6
REMARK    5  A    between atoms: C_7  and  C_33
REMARK    6  A    between atoms: C_14  and  C_16
REMARK    7  A    between atoms: C_19  and  O_24
REMARK    8  A    between atoms: C_20  and  O_22
REMARK    9  A    between atoms: O_22  and  C_23
REMARK   10  A    between atoms: O_24  and  C_25
REMARK   11  A    between atoms: C_25  and  C_26
REMARK                            x       y       z     vdW  Elec       q    Type
REMARK                         _______ _______ _______ _____ _____    ______ ____
ROOT
ATOM      1  C   UNL     1      -4.178  -1.178   1.831  0.00  0.00    -0.015 A 
ATOM      2  C   UNL     1      -4.421  -2.192   2.740  0.00  0.00    +0.010 A 
ATOM      3  C   UNL     1      -4.604  -1.896   4.078  0.00  0.00    +0.050 A 
ATOM      4  C   UNL     1      -4.543  -0.581   4.511  0.00  0.00    +0.162 A 
ATOM      5  C   UNL     1      -4.299   0.439   3.597  0.00  0.00    +0.162 A 
ATOM      6  C   UNL     1      -4.112   0.135   2.258  0.00  0.00    +0.055 A 
ENDROOT
BRANCH   1  15
ATOM      7  C   UNL     1      -2.799  -2.429   0.223  0.00  0.00    +0.082 C 
ATOM      8  C   UNL     1      -2.919  -3.729  -0.087  0.00  0.00    +0.020 C 
ATOM      9  N   UNL     1      -4.138  -4.320  -0.310  0.00  0.00    -0.286 N 
ATOM     10  C   UNL     1      -5.235  -3.483  -0.459  0.00  0.00    +0.240 A 
ATOM     11  N   UNL     1      -6.443  -3.726  -0.879  0.00  0.00    -0.092 NA
ATOM     12  N   UNL     1      -7.148  -2.647  -0.862  0.00  0.00    -0.021 NA
ATOM     13  N   UNL     1      -6.441  -1.653  -0.430  0.00  0.00    -0.042 NA
ATOM     14  N   UNL     1      -5.174  -2.162  -0.150  0.00  0.00    -0.201 N 
ATOM     15  C   UNL     1      -3.980  -1.506   0.374  0.00  0.00    +0.181 C 
ATOM     16  C   UNL     1      -1.673  -4.569  -0.196  0.00  0.00    +0.061 C 
ATOM     17  H   UNL     1      -4.229  -5.284  -0.362  0.00  0.00    +0.155 HD
BRANCH   7  18
ATOM     18  C   UNL     1      -1.504  -1.902   0.423  0.00  0.00    +0.339 C 
ATOM     19  O   UNL     1      -0.999  -1.188  -0.424  0.00  0.00    -0.245 OA
BRANCH  18  20
ATOM     20  O   UNL     1      -0.825  -2.190   1.554  0.00  0.00    -0.462 OA
BRANCH  20  22
ATOM     21  C   UNL     1       1.087  -2.058   3.026  0.00  0.00    +0.048 C 
ATOM     22  C   UNL     1       0.479  -1.623   1.691  0.00  0.00    +0.229 C 
ENDBRANCH  20  22
ENDBRANCH  18  20
ENDBRANCH   7  18
ENDBRANCH   1  15
BRANCH   5  23
ATOM     23  O   UNL     1      -4.239   1.731   4.017  0.00  0.00    -0.491 OA
ATOM     24  C   UNL     1      -3.984   2.725   3.023  0.00  0.00    +0.277 C 
ENDBRANCH   5  23
BRANCH   4  25
ATOM     25  O   UNL     1      -4.724  -0.288   5.827  0.00  0.00    -0.484 OA
BRANCH  25  26
ATOM     26  C   UNL     1      -4.971  -1.386   6.708  0.00  0.00    +0.264 C 
BRANCH  26  27
ATOM     27  C   UNL     1      -5.144  -0.872   8.114  0.00  0.00    -0.010 A 
ATOM     28  C   UNL     1      -4.045  -0.747   8.944  0.00  0.00    +0.008 A 
ATOM     29  C   UNL     1      -4.203  -0.276  10.233  0.00  0.00    +0.020 A 
ATOM     30  C   UNL     1      -5.461   0.070  10.694  0.00  0.00    +0.041 A 
ATOM     31  C   UNL     1      -6.560  -0.056   9.863  0.00  0.00    +0.020 A 
ATOM     32  C   UNL     1      -6.400  -0.521   8.572  0.00  0.00    +0.008 A 
ATOM     33 CL   UNL     1      -5.660   0.661  12.314  0.00  0.00    -0.084 Cl
ENDBRANCH  26  27
ENDBRANCH  25  26
ENDBRANCH   4  25
TORSDOF 8
