REMARK  Name = ZINC22278480
REMARK  13 active torsions:
REMARK  status: ('A' for Active; 'I' for Inactive)
REMARK    1  A    between atoms: C_1  and  C_2
REMARK    2  A    between atoms: C_6  and  N_8
REMARK    3  A    between atoms: C_9  and  C_11
REMARK    4  A    between atoms: C_11  and  N_12
REMARK    5  A    between atoms: N_12  and  C_13
REMARK    6  A    between atoms: N_12  and  S_22
REMARK    7  A    between atoms: C_18  and  O_19
REMARK    8  A    between atoms: O_19  and  C_20
REMARK    9  A    between atoms: S_22  and  C_25
REMARK   10  A    between atoms: C_28  and  O_33
REMARK   11  A    between atoms: C_29  and  O_31
REMARK   12  A    between atoms: O_31  and  C_32
REMARK   13  A    between atoms: O_33  and  C_34
REMARK                            x       y       z     vdW  Elec       q    Type
REMARK                         _______ _______ _______ _____ _____    ______ ____
ROOT
ATOM      1  N   UNL     1       2.430   7.940   0.332  0.00  0.00    -0.191 N 
ENDROOT
BRANCH   1   2
ATOM      2  C   UNL     1       3.162   8.181  -0.837  0.00  0.00    +0.095 A 
ATOM      3  C   UNL     1       3.031   9.392  -1.502  0.00  0.00    +0.048 A 
ATOM      4  C   UNL     1       3.756   9.628  -2.656  0.00  0.00    +0.043 A 
ATOM      5  C   UNL     1       4.612   8.659  -3.149  0.00  0.00    +0.024 A 
ATOM      6  C   UNL     1       4.747   7.451  -2.491  0.00  0.00    +0.049 A 
ATOM      7  C   UNL     1       4.029   7.209  -1.331  0.00  0.00    +0.143 A 
ATOM      8 CL   UNL     1       3.591  11.143  -3.487  0.00  0.00    -0.083 Cl
BRANCH   7   9
ATOM      9  O   UNL     1       4.165   6.023  -0.680  0.00  0.00    -0.493 OA
ATOM     10  C   UNL     1       5.072   5.073  -1.244  0.00  0.00    +0.277 C 
ENDBRANCH   7   9
ENDBRANCH   1   2
BRANCH   1  11
ATOM     11  S   UNL     1       3.114   8.228   1.812  0.00  0.00    +0.075 S 
ATOM     12  O   UNL     1       4.141   9.188   1.605  0.00  0.00    -0.150 OA
ATOM     13  O   UNL     1       2.042   8.442   2.720  0.00  0.00    -0.150 OA
BRANCH  11  14
ATOM     14  C   UNL     1       3.911   6.739   2.316  0.00  0.00    +0.112 A 
ATOM     15  C   UNL     1       3.216   5.800   3.054  0.00  0.00    +0.032 A 
ATOM     16  C   UNL     1       3.835   4.628   3.447  0.00  0.00    +0.051 A 
ATOM     17  C   UNL     1       5.159   4.398   3.110  0.00  0.00    +0.162 A 
ATOM     18  C   UNL     1       5.861   5.346   2.372  0.00  0.00    +0.163 A 
ATOM     19  C   UNL     1       5.233   6.516   1.976  0.00  0.00    +0.078 A 
BRANCH  18  20
ATOM     20  O   UNL     1       7.161   5.124   2.039  0.00  0.00    -0.491 OA
ATOM     21  C   UNL     1       7.818   6.140   1.279  0.00  0.00    +0.277 C 
ENDBRANCH  18  20
BRANCH  17  22
ATOM     22  O   UNL     1       5.771   3.248   3.501  0.00  0.00    -0.491 OA
ATOM     23  C   UNL     1       4.989   2.321   4.256  0.00  0.00    +0.277 C 
ENDBRANCH  17  22
ENDBRANCH  11  14
ENDBRANCH   1  11
BRANCH   1  24
ATOM     24  C   UNL     1       1.058   7.433   0.245  0.00  0.00    +0.227 C 
BRANCH  24  26
ATOM     25  N   UNL     1      -0.069   5.242   0.029  0.00  0.00    -0.284 N 
ATOM     26  C   UNL     1       1.085   5.931   0.123  0.00  0.00    +0.236 C 
ATOM     27  O   UNL     1       2.146   5.342   0.111  0.00  0.00    -0.274 OA
ATOM     28  H   UNL     1      -1.027   5.779  -0.036  0.00  0.00    +0.155 HD
BRANCH  25  34
ATOM     29  C   UNL     1      -2.164   0.966   1.255  0.00  0.00    +0.044 C 
ATOM     30  C   UNL     1      -1.052   1.745   0.601  0.00  0.00    -0.049 A 
ATOM     31  C   UNL     1      -0.011   1.076  -0.016  0.00  0.00    +0.003 A 
ATOM     32  C   UNL     1       1.009   1.787  -0.622  0.00  0.00    +0.002 A 
ATOM     33  C   UNL     1       0.992   3.168  -0.609  0.00  0.00    +0.023 A 
ATOM     34  C   UNL     1      -0.050   3.842   0.014  0.00  0.00    +0.034 A 
ATOM     35  C   UNL     1      -1.072   3.126   0.622  0.00  0.00    +0.026 A 
ENDBRANCH  25  34
ENDBRANCH  24  26
ENDBRANCH   1  24
TORSDOF 9
