REMARK  Name = ZINC15047599
REMARK  7 active torsions:
REMARK  status: ('A' for Active; 'I' for Inactive)
REMARK    1  A    between atoms: C_1  and  C_2
REMARK    2  A    between atoms: C_2  and  C_4
REMARK    3  A    between atoms: C_2  and  N_17
REMARK    4  A    between atoms: N_6  and  C_7
REMARK    5  A    between atoms: C_10  and  S_13
REMARK    6  A    between atoms: S_13  and  N_16
REMARK    7  A    between atoms: C_21  and  C_22
REMARK                            x       y       z     vdW  Elec       q    Type
REMARK                         _______ _______ _______ _____ _____    ______ ____
ROOT
ATOM      1  C   UNL     1       1.126  -2.427   1.134  0.00  0.00    +0.238 C 
ATOM      2  O   UNL     1       0.329  -1.883   1.870  0.00  0.00    -0.273 OA
ATOM      3  N   UNL     1       1.557  -3.673   1.411  0.00  0.00    -0.284 N 
ATOM      4  H   UNL     1       2.134  -4.137   0.784  0.00  0.00    +0.155 HD
ENDROOT
BRANCH   3   5
ATOM      5  C   UNL     1       1.173  -4.298   2.602  0.00  0.00    +0.034 A 
ATOM      6  C   UNL     1       0.985  -3.545   3.754  0.00  0.00    +0.025 A 
ATOM      7  C   UNL     1       0.600  -4.165   4.927  0.00  0.00    +0.030 A 
ATOM      8  C   UNL     1       0.414  -5.535   4.959  0.00  0.00    +0.105 A 
ATOM      9  C   UNL     1       0.606  -6.288   3.815  0.00  0.00    +0.030 A 
ATOM     10  C   UNL     1       0.985  -5.674   2.637  0.00  0.00    +0.025 A 
BRANCH   8  11
ATOM     11  S   UNL     1      -0.069  -6.322   6.459  0.00  0.00    +0.056 S 
ATOM     12  O   UNL     1      -0.713  -5.331   7.248  0.00  0.00    -0.153 OA
ATOM     13  O   UNL     1      -0.707  -7.537   6.093  0.00  0.00    -0.153 OA
BRANCH  11  14
ATOM     14  N   UNL     1       1.318  -6.739   7.262  0.00  0.00    -0.204 NA
ATOM     15  H   UNL     1       2.183  -6.534   6.874  0.00  0.00    +0.144 HD
ATOM     16  H   UNL     1       1.265  -7.188   8.120  0.00  0.00    +0.144 HD
ENDBRANCH  11  14
ENDBRANCH   8  11
ENDBRANCH   3   5
BRANCH   1  18
ATOM     17  C   UNL     1       1.269  -2.511  -1.340  0.00  0.00    +0.038 C 
ATOM     18  C   UNL     1       1.633  -1.708  -0.089  0.00  0.00    +0.166 C 
BRANCH  18  19
ATOM     19  N   UNL     1       1.018  -0.380  -0.165  0.00  0.00    -0.244 N 
ATOM     20  C   UNL     1       1.787   0.695  -0.150  0.00  0.00    +0.259 C 
ATOM     21  O   UNL     1       2.999   0.598  -0.074  0.00  0.00    -0.269 OA
ATOM     22  C   UNL     1       1.154   1.973  -0.227  0.00  0.00    +0.078 C 
ATOM     23  C   UNL     1       1.711   3.217  -0.230  0.00  0.00    +0.035 C 
ATOM     24  S   UNL     1      -0.566   1.496  -0.316  0.00  0.00    -0.061 S 
ATOM     25  C   UNL     1      -0.326  -0.273  -0.250  0.00  0.00    +0.121 C 
ATOM     26  S   UNL     1      -1.502  -1.517  -0.283  0.00  0.00    -0.027 S 
BRANCH  23  27
ATOM     27  C   UNL     1       0.884   4.361  -0.314  0.00  0.00    +0.013 A 
ATOM     28  C   UNL     1       1.244   5.704  -0.332  0.00  0.00    +0.015 A 
ATOM     29  C   UNL     1       0.226   6.621  -0.420  0.00  0.00    +0.008 A 
ATOM     30  C   UNL     1      -1.058   6.183  -0.484  0.00  0.00    +0.046 A 
ATOM     31  S   UNL     1      -0.894   4.458  -0.431  0.00  0.00    -0.097 S 
ENDBRANCH  23  27
ENDBRANCH  18  19
ENDBRANCH   1  18
TORSDOF 6
