REMARK  Name = ZINC64979762
REMARK  7 active torsions:
REMARK  status: ('A' for Active; 'I' for Inactive)
REMARK    1  A    between atoms: C_1  and  C_2
REMARK    2  A    between atoms: C_2  and  C_3
REMARK    3  A    between atoms: C_3  and  N_4
REMARK    4  A    between atoms: C_8  and  N_20
REMARK    5  A    between atoms: C_21  and  C_23
REMARK    6  A    between atoms: C_23  and  N_24
REMARK    7  A    between atoms: C_25  and  C_27
REMARK                            x       y       z     vdW  Elec       q    Type
REMARK                         _______ _______ _______ _____ _____    ______ ____
ROOT
ATOM      1  N   UNL     1       0.775  -2.003   1.232  0.00  0.00    -0.266 N 
ATOM      2  C   UNL     1      -0.310  -2.596   1.866  0.00  0.00    +0.050 A 
ATOM      3  C   UNL     1      -0.715  -2.094   3.100  0.00  0.00    +0.026 A 
ATOM      4  C   UNL     1      -1.788  -2.650   3.766  0.00  0.00    +0.025 A 
ATOM      5  C   UNL     1      -2.477  -3.719   3.209  0.00  0.00    +0.035 A 
ATOM      6  C   UNL     1      -2.081  -4.227   1.980  0.00  0.00    +0.040 A 
ATOM      7  C   UNL     1      -1.001  -3.669   1.312  0.00  0.00    +0.036 A 
ATOM      8  S   UNL     1      -0.512  -4.334  -0.245  0.00  0.00    -0.087 S 
ATOM      9  C   UNL     1       1.142  -4.873   0.034  0.00  0.00    +0.025 A 
ATOM     10  C   UNL     1       1.473  -6.210  -0.142  0.00  0.00    +0.016 A 
ATOM     11  C   UNL     1       2.768  -6.636   0.073  0.00  0.00    +0.001 A 
ATOM     12  C   UNL     1       3.742  -5.732   0.465  0.00  0.00    +0.001 A 
ATOM     13  C   UNL     1       3.430  -4.403   0.644  0.00  0.00    +0.014 A 
ATOM     14  C   UNL     1       2.120  -3.952   0.433  0.00  0.00    +0.051 A 
ATOM     15  C   UNL     1       1.805  -2.539   0.632  0.00  0.00    +0.252 C 
ATOM     16  O   UNL     1       2.616  -1.754   0.180  0.00  0.00    -0.270 OA
ENDROOT
BRANCH   5  17
ATOM     17  N   UNL     1      -3.567  -4.283   3.885  0.00  0.00    -0.284 N 
ATOM     18  C   UNL     1      -4.621  -4.754   3.190  0.00  0.00    +0.234 C 
ATOM     19  O   UNL     1      -4.590  -4.767   1.978  0.00  0.00    -0.274 OA
ATOM     20  H   UNL     1      -3.563  -4.334   4.854  0.00  0.00    +0.155 HD
BRANCH  18  21
ATOM     21  C   UNL     1      -5.837  -5.264   3.919  0.00  0.00    +0.200 C 
BRANCH  21  22
ATOM     22  N   UNL     1      -6.835  -5.717   2.947  0.00  0.00    -0.302 N 
ATOM     23  C   UNL     1      -8.012  -6.218   3.372  0.00  0.00    +0.251 C 
ATOM     24  O   UNL     1      -8.246  -6.293   4.564  0.00  0.00    -0.270 OA
ATOM     25  H   UNL     1      -6.648  -5.657   1.997  0.00  0.00    +0.150 HD
BRANCH  23  26
ATOM     26  C   UNL     1      -9.010  -6.671   2.399  0.00  0.00    +0.074 A 
ATOM     27  C   UNL     1     -10.270  -7.205   2.624  0.00  0.00    +0.021 A 
ATOM     28  C   UNL     1     -10.985  -7.541   1.499  0.00  0.00    +0.008 A 
ATOM     29  C   UNL     1     -10.430  -7.335   0.279  0.00  0.00    +0.046 A 
ATOM     30  S   UNL     1      -8.924  -6.672   0.619  0.00  0.00    -0.092 S 
ENDBRANCH  23  26
ENDBRANCH  21  22
ENDBRANCH  18  21
ENDBRANCH   5  17
BRANCH   1  31
ATOM     31  C   UNL     1       0.759  -0.538   1.231  0.00  0.00    +0.114 C 
BRANCH  31  33
ATOM     32  C   UNL     1       0.008   1.493  -0.014  0.00  0.00    +0.005 C 
ATOM     33  C   UNL     1       0.024  -0.037  -0.013  0.00  0.00    +0.016 C 
ENDBRANCH  31  33
ENDBRANCH   1  31
TORSDOF 6
