REMARK  Name = ZINC14843307
REMARK  6 active torsions:
REMARK  status: ('A' for Active; 'I' for Inactive)
REMARK    1  A    between atoms: C_6  and  C_7
REMARK    2  A    between atoms: C_9  and  C_12
REMARK    3  A    between atoms: C_12  and  C_13
REMARK    4  A    between atoms: C_13  and  C_14
REMARK    5  A    between atoms: N_16  and  N_17
REMARK    6  A    between atoms: C_18  and  C_20
REMARK                            x       y       z     vdW  Elec       q    Type
REMARK                         _______ _______ _______ _____ _____    ______ ____
ROOT
ATOM      1  C   UNL     1      -7.281   1.168   2.100  0.00  0.00    +0.230 C 
ATOM      2  O   UNL     1      -6.886   1.865   3.009  0.00  0.00    -0.274 OA
ATOM      3  N   UNL     1      -6.457   0.859   1.079  0.00  0.00    -0.234 N 
ATOM      4  H   UNL     1      -6.774   0.301   0.352  0.00  0.00    +0.173 HD
ENDROOT
BRANCH   3   5
ATOM      5  N   UNL     1      -5.143   1.344   1.069  0.00  0.00    -0.234 N 
ATOM      6  C   UNL     1      -4.318   1.035   0.049  0.00  0.00    +0.235 C 
ATOM      7  O   UNL     1      -4.714   0.337  -0.861  0.00  0.00    -0.274 OA
ATOM      8  H   UNL     1      -4.826   1.902   1.797  0.00  0.00    +0.173 HD
BRANCH   6   9
ATOM      9  C   UNL     1      -2.904   1.556   0.038  0.00  0.00    +0.049 C 
ATOM     10  C   UNL     1      -2.188   1.063  -1.221  0.00  0.00    +0.019 C 
ATOM     11  C   UNL     1      -0.753   1.593  -1.232  0.00  0.00    -0.009 C 
ATOM     12  C   UNL     1      -0.013   1.086   0.008  0.00  0.00    +0.007 C 
ATOM     13  C   UNL     1      -0.729   1.579   1.267  0.00  0.00    -0.009 C 
ATOM     14  C   UNL     1      -2.164   1.050   1.278  0.00  0.00    +0.019 C 
ATOM     15  C   UNL     1      -0.750   3.109   1.275  0.00  0.00    +0.007 C 
ATOM     16  C   UNL     1      -1.490   3.616   0.036  0.00  0.00    -0.009 C 
ATOM     17  C   UNL     1      -0.773   3.123  -1.223  0.00  0.00    +0.007 C 
ATOM     18  C   UNL     1      -2.925   3.086   0.047  0.00  0.00    +0.019 C 
ENDBRANCH   6   9
ENDBRANCH   3   5
BRANCH   1  19
ATOM     19  C   UNL     1      -8.695   0.646   2.110  0.00  0.00    +0.107 C 
BRANCH  19  20
ATOM     20  C   UNL     1      -9.411   1.139   3.369  0.00  0.00    +0.108 C 
BRANCH  20  23
ATOM     21  C   UNL     1     -12.566  -0.555   3.677  0.00  0.00    +0.202 A 
ATOM     22  N   UNL     1     -11.234  -0.510   3.905  0.00  0.00    -0.191 NA
ATOM     23  C   UNL     1     -10.825   0.618   3.380  0.00  0.00    +0.228 A 
ATOM     24  O   UNL     1     -11.898   1.222   2.861  0.00  0.00    -0.338 OA
ATOM     25  N   UNL     1     -12.885   0.538   3.033  0.00  0.00    -0.056 NA
BRANCH  21  31
ATOM     26  C   UNL     1     -13.008  -2.757   4.760  0.00  0.00    +0.013 A 
ATOM     27  C   UNL     1     -13.875  -3.763   5.137  0.00  0.00    +0.021 A 
ATOM     28  C   UNL     1     -15.222  -3.669   4.833  0.00  0.00    +0.041 A 
ATOM     29  C   UNL     1     -15.708  -2.565   4.153  0.00  0.00    +0.021 A 
ATOM     30  C   UNL     1     -14.850  -1.552   3.776  0.00  0.00    +0.013 A 
ATOM     31  C   UNL     1     -13.493  -1.641   4.080  0.00  0.00    +0.023 A 
ATOM     32 CL   UNL     1     -16.306  -4.940   5.305  0.00  0.00    -0.084 Cl
ENDBRANCH  21  31
ENDBRANCH  20  23
ENDBRANCH  19  20
ENDBRANCH   1  19
TORSDOF 6
