REMARK  Name = ZINC15771436
REMARK  6 active torsions:
REMARK  status: ('A' for Active; 'I' for Inactive)
REMARK    1  A    between atoms: N_9  and  C_10
REMARK    2  A    between atoms: C_10  and  C_12
REMARK    3  A    between atoms: C_10  and  N_65
REMARK    4  A    between atoms: C_18  and  C_20
REMARK    5  A    between atoms: C_18  and  N_26
REMARK    6  A    between atoms: C_18  and  N_65
REMARK                            x       y       z     vdW  Elec       q    Type
REMARK                         _______ _______ _______ _____ _____    ______ ____
ROOT
ATOM      1  N   UNL     1       0.908  -2.393   0.972  0.00  0.00    +0.409 N 
ATOM      2  H   UNL     1      -0.105  -2.452   0.811  0.00  0.00    -0.080 HD
ATOM      3  H   UNL     1       1.101  -1.666   1.670  0.00  0.00    -0.080 HD
ENDROOT
BRANCH   1   4
ATOM      4  C   UNL     1       1.583  -2.047  -0.293  0.00  0.00    +0.060 C 
BRANCH   4  13
ATOM      5  C   UNL     1       5.389   1.471  -1.229  0.00  0.00    +0.002 A 
ATOM      6  C   UNL     1       5.448   0.101  -1.452  0.00  0.00    +0.002 A 
ATOM      7  C   UNL     1       4.378  -0.697  -1.160  0.00  0.00    +0.029 A 
ATOM      8  C   UNL     1       3.218  -0.135  -0.636  0.00  0.00    +0.087 A 
ATOM      9  C   UNL     1       3.152   1.250  -0.408  0.00  0.00    +0.113 A 
ATOM     10  C   UNL     1       4.264   2.047  -0.717  0.00  0.00    +0.032 A 
ATOM     11  N   UNL     1       1.933   1.525   0.096  0.00  0.00    -0.130 NA
ATOM     12  N   UNL     1       1.240   0.446   0.202  0.00  0.00    -0.066 NA
ATOM     13  N   UNL     1       2.002  -0.643  -0.247  0.00  0.00    -0.258 N 
ENDBRANCH   4  13
BRANCH   4  14
ATOM     14  C   UNL     1       0.613  -2.252  -1.458  0.00  0.00    -0.004 C 
ATOM     15  C   UNL     1       0.271  -3.738  -1.582  0.00  0.00    +0.003 C 
ATOM     16  C   UNL     1      -0.699  -3.943  -2.747  0.00  0.00    +0.000 C 
ATOM     17  C   UNL     1      -0.046  -3.461  -4.044  0.00  0.00    +0.000 C 
ATOM     18  C   UNL     1       0.297  -1.974  -3.921  0.00  0.00    +0.000 C 
ATOM     19  C   UNL     1       1.266  -1.770  -2.756  0.00  0.00    +0.003 C 
ENDBRANCH   4  14
ENDBRANCH   1   4
BRANCH   1  20
ATOM     20  C   UNL     1       1.397  -3.691   1.474  0.00  0.00    +0.060 C 
BRANCH  20  21
ATOM     21  N   UNL     1       0.254  -4.515   1.876  0.00  0.00    -0.258 N 
ATOM     22  C   UNL     1       0.058  -5.846   1.593  0.00  0.00    +0.087 A 
ATOM     23  C   UNL     1       0.789  -6.803   0.896  0.00  0.00    +0.029 A 
ATOM     24  C   UNL     1       0.309  -8.078   0.790  0.00  0.00    +0.002 A 
ATOM     25  C   UNL     1      -0.902  -8.429   1.371  0.00  0.00    +0.002 A 
ATOM     26  C   UNL     1      -1.637  -7.509   2.060  0.00  0.00    +0.032 A 
ATOM     27  C   UNL     1      -1.169  -6.194   2.184  0.00  0.00    +0.113 A 
ATOM     28  N   UNL     1      -1.659  -5.093   2.788  0.00  0.00    -0.130 NA
ATOM     29  N   UNL     1      -0.854  -4.102   2.632  0.00  0.00    -0.066 NA
ENDBRANCH  20  21
BRANCH  20  30
ATOM     30  C   UNL     1       2.307  -3.458   2.682  0.00  0.00    -0.004 C 
ATOM     31  C   UNL     1       3.551  -2.684   2.241  0.00  0.00    +0.003 C 
ATOM     32  C   UNL     1       4.461  -2.450   3.448  0.00  0.00    +0.000 C 
ATOM     33  C   UNL     1       4.882  -3.798   4.038  0.00  0.00    +0.000 C 
ATOM     34  C   UNL     1       3.638  -4.572   4.479  0.00  0.00    +0.000 C 
ATOM     35  C   UNL     1       2.728  -4.806   3.271  0.00  0.00    +0.003 C 
ENDBRANCH  20  30
ENDBRANCH   1  20
TORSDOF 6
