REMARK  Name = ZINC09128484
REMARK  7 active torsions:
REMARK  status: ('A' for Active; 'I' for Inactive)
REMARK    1  A    between atoms: N_9  and  S_10
REMARK    2  A    between atoms: S_10  and  C_13
REMARK    3  A    between atoms: C_17  and  C_19
REMARK    4  A    between atoms: C_19  and  O_21
REMARK    5  A    between atoms: O_21  and  C_22
REMARK    6  A    between atoms: C_22  and  C_23
REMARK    7  A    between atoms: N_25  and  C_26
REMARK                            x       y       z     vdW  Elec       q    Type
REMARK                         _______ _______ _______ _____ _____    ______ ____
ROOT
ATOM      1  C   UNL     1      -4.314  -4.352   0.020  0.00  0.00    +0.109 A 
ATOM      2  C   UNL     1      -5.420  -3.521   0.036  0.00  0.00    +0.029 A 
ATOM      3  C   UNL     1      -5.261  -2.147   0.042  0.00  0.00    +0.003 A 
ATOM      4  C   UNL     1      -3.996  -1.595   0.037  0.00  0.00    +0.015 A 
ATOM      5  C   UNL     1      -2.876  -2.428   0.017  0.00  0.00    +0.061 A 
ATOM      6  C   UNL     1      -3.043  -3.814   0.011  0.00  0.00    +0.043 A 
ENDROOT
BRANCH   1   7
ATOM      7  S   UNL     1      -4.528  -6.101   0.014  0.00  0.00    +0.075 S 
ATOM      8  O   UNL     1      -5.818  -6.350  -0.526  0.00  0.00    -0.150 OA
ATOM      9  O   UNL     1      -3.346  -6.652  -0.552  0.00  0.00    -0.150 OA
BRANCH   7  18
ATOM     10  C   UNL     1      -1.518  -7.805   4.153  0.00  0.00    +0.000 A 
ATOM     11  C   UNL     1      -1.156  -7.445   2.868  0.00  0.00    +0.002 A 
ATOM     12  C   UNL     1      -2.114  -7.034   1.966  0.00  0.00    +0.025 A 
ATOM     13  C   UNL     1      -3.458  -6.978   2.343  0.00  0.00    +0.054 A 
ATOM     14  C   UNL     1      -3.810  -7.337   3.635  0.00  0.00    -0.023 A 
ATOM     15  C   UNL     1      -2.845  -7.744   4.536  0.00  0.00    +0.005 A 
ATOM     16  C   UNL     1      -5.308  -7.195   3.782  0.00  0.00    +0.058 C 
ATOM     17  C   UNL     1      -5.786  -6.699   2.407  0.00  0.00    +0.136 C 
ATOM     18  N   UNL     1      -4.572  -6.595   1.594  0.00  0.00    -0.202 N 
ENDBRANCH   7  18
ENDBRANCH   1   7
BRANCH   5  19
ATOM     19  C   UNL     1      -1.518  -1.844   0.007  0.00  0.00    +0.340 C 
ATOM     20  O   UNL     1      -0.545  -2.571  -0.006  0.00  0.00    -0.245 OA
BRANCH  19  21
ATOM     21  O   UNL     1      -1.360  -0.507   0.012  0.00  0.00    -0.452 OA
BRANCH  21  22
ATOM     22  C   UNL     1       0.002  -0.004   0.002  0.00  0.00    +0.328 C 
BRANCH  22  23
ATOM     23  C   UNL     1      -0.018   1.503   0.010  0.00  0.00    +0.251 C 
ATOM     24  O   UNL     1      -1.077   2.095   0.018  0.00  0.00    -0.272 OA
ATOM     25  N   UNL     1       1.139   2.192   0.003  0.00  0.00    -0.307 N 
ATOM     26  H   UNL     1       1.986   1.719  -0.008  0.00  0.00    +0.149 HD
BRANCH  25  27
ATOM     27  C   UNL     1       1.120   3.657   0.011  0.00  0.00    +0.035 C 
ATOM     28  C   UNL     1       0.380   4.164  -1.228  0.00  0.00    +0.029 C 
ATOM     29  C   UNL     1       0.359   5.694  -1.220  0.00  0.00    -0.008 C 
ATOM     30  C   UNL     1       1.794   6.224  -1.231  0.00  0.00    +0.007 C 
ATOM     31  C   UNL     1       2.534   5.717   0.009  0.00  0.00    -0.008 C 
ATOM     32  C   UNL     1       2.555   4.187   0.000  0.00  0.00    +0.029 C 
ATOM     33  C   UNL     1       1.818   6.210   1.267  0.00  0.00    +0.007 C 
ATOM     34  C   UNL     1       0.383   5.681   1.278  0.00  0.00    -0.008 C 
ATOM     35  C   UNL     1      -0.357   6.187   0.039  0.00  0.00    +0.007 C 
ATOM     36  C   UNL     1       0.404   4.151   1.270  0.00  0.00    +0.029 C 
ENDBRANCH  25  27
ENDBRANCH  22  23
ENDBRANCH  21  22
ENDBRANCH  19  21
ENDBRANCH   5  19
TORSDOF 7
