REMARK  Name = ZINC63425826
REMARK  14 active torsions:
REMARK  status: ('A' for Active; 'I' for Inactive)
REMARK    1  A    between atoms: C_1  and  C_2
REMARK    2  A    between atoms: C_2  and  C_3
REMARK    3  A    between atoms: C_3  and  C_4
REMARK    4  A    between atoms: C_4  and  S_5
REMARK    5  A    between atoms: S_5  and  C_6
REMARK    6  A    between atoms: C_10  and  C_13
REMARK    7  A    between atoms: C_13  and  C_15
REMARK    8  A    between atoms: C_13  and  N_25
REMARK    9  A    between atoms: C_15  and  C_16
REMARK   10  A    between atoms: C_26  and  O_28
REMARK   11  A    between atoms: O_28  and  C_29
REMARK   12  A    between atoms: C_29  and  C_30
REMARK   13  A    between atoms: C_29  and  C_31
REMARK   14  A    between atoms: C_29  and  C_32
REMARK                            x       y       z     vdW  Elec       q    Type
REMARK                         _______ _______ _______ _____ _____    ______ ____
ROOT
ATOM      1  C   UNL     1       0.423  -7.288  -2.398  0.00  0.00    +0.133 C 
ENDROOT
BRANCH   1   5
ATOM      2  C   UNL     1       1.197  -4.328  -2.796  0.00  0.00    +0.319 C 
ATOM      3  N   UNL     1       2.090  -4.694  -1.688  0.00  0.00    -0.146 NA
ATOM      4  N   UNL     1       1.590  -5.612  -1.025  0.00  0.00    -0.155 NA
ATOM      5  C   UNL     1       0.291  -5.995  -1.592  0.00  0.00    +0.280 C 
ATOM      6  O   UNL     1      -0.083  -4.901  -2.458  0.00  0.00    -0.316 OA
BRANCH   2   7
ATOM      7  S   UNL     1       1.064  -2.524  -2.927  0.00  0.00    -0.105 S 
BRANCH   7   8
ATOM      8  C   UNL     1       0.468  -2.007  -1.294  0.00  0.00    +0.073 C 
BRANCH   8   9
ATOM      9  C   UNL     1       0.309  -0.486  -1.266  0.00  0.00    +0.010 C 
BRANCH   9  11
ATOM     10  C   UNL     1      -0.352   1.471   0.140  0.00  0.00    +0.004 C 
ATOM     11  C   UNL     1      -0.194  -0.051   0.112  0.00  0.00    -0.003 C 
ENDBRANCH   9  11
ENDBRANCH   8   9
ENDBRANCH   7   8
ENDBRANCH   2   7
ENDBRANCH   1   5
BRANCH   1  12
ATOM     12  N   UNL     1       1.535  -7.162  -3.344  0.00  0.00    -0.274 N 
ATOM     13  C   UNL     1       1.301  -7.212  -4.670  0.00  0.00    +0.401 C 
ATOM     14  O   UNL     1       0.160  -7.274  -5.084  0.00  0.00    -0.226 OA
ATOM     15  H   UNL     1       2.440  -7.043  -3.016  0.00  0.00    +0.152 HD
BRANCH  13  16
ATOM     16  O   UNL     1       2.331  -7.193  -5.537  0.00  0.00    -0.445 OA
BRANCH  16  17
ATOM     17  C   UNL     1       2.009  -7.249  -6.928  0.00  0.00    +0.107 C 
ATOM     18  C   UNL     1       1.137  -6.048  -7.299  0.00  0.00    +0.055 C 
ATOM     19  C   UNL     1       3.298  -7.218  -7.752  0.00  0.00    +0.055 C 
ATOM     20  C   UNL     1       1.246  -8.543  -7.224  0.00  0.00    +0.055 C 
ENDBRANCH  16  17
ENDBRANCH  13  16
ENDBRANCH   1  12
BRANCH   1  21
ATOM     21  C   UNL     1       0.693  -8.456  -1.448  0.00  0.00    +0.060 C 
BRANCH  21  22
ATOM     22  C   UNL     1       0.702  -9.746  -2.227  0.00  0.00    -0.040 C 
ATOM     23  C   UNL     1       1.782 -10.385  -2.730  0.00  0.00    -0.001 A 
ATOM     24  C   UNL     1       3.218 -10.081  -2.705  0.00  0.00    +0.010 A 
ATOM     25  C   UNL     1       4.079 -10.929  -3.311  0.00  0.00    +0.001 A 
ATOM     26  C   UNL     1       3.636 -12.089  -3.962  0.00  0.00    +0.002 A 
ATOM     27  C   UNL     1       2.333 -12.435  -4.028  0.00  0.00    +0.026 A 
ATOM     28  C   UNL     1       1.340 -11.616  -3.424  0.00  0.00    +0.043 A 
ATOM     29  N   UNL     1       0.036 -11.733  -3.352  0.00  0.00    -0.380 N 
ATOM     30  C   UNL     1      -0.496 -10.592  -2.599  0.00  0.00    +0.144 C 
ATOM     31  H   UNL     1      -0.488 -12.456  -3.730  0.00  0.00    +0.160 HD
ENDBRANCH  21  22
ENDBRANCH   1  21
TORSDOF 10
