REMARK  Name = ZINC09273042
REMARK  8 active torsions:
REMARK  status: ('A' for Active; 'I' for Inactive)
REMARK    1  A    between atoms: C_1  and  C_2
REMARK    2  A    between atoms: C_5  and  C_8
REMARK    3  A    between atoms: C_11  and  S_19
REMARK    4  A    between atoms: N_12  and  C_13
REMARK    5  A    between atoms: S_19  and  C_20
REMARK    6  A    between atoms: C_20  and  C_21
REMARK    7  A    between atoms: N_23  and  N_24
REMARK    8  A    between atoms: C_25  and  C_26
REMARK                            x       y       z     vdW  Elec       q    Type
REMARK                         _______ _______ _______ _____ _____    ______ ____
ROOT
ATOM      1  C   UNL     1      -1.512   1.760  -0.287  0.00  0.00    +0.169 A 
ATOM      2  N   UNL     1      -1.251   0.591   0.251  0.00  0.00    -0.128 NA
ATOM      3  N   UNL     1      -2.342   0.029   0.633  0.00  0.00    -0.122 NA
ATOM      4  C   UNL     1      -3.369   0.804   0.363  0.00  0.00    +0.197 A 
ATOM      5  N   UNL     1      -2.877   1.937  -0.227  0.00  0.00    -0.270 N 
ENDROOT
BRANCH   1  10
ATOM      6  C   UNL     1       2.324   5.465  -2.450  0.00  0.00    +0.044 C 
ATOM      7  C   UNL     1       1.319   4.493  -1.885  0.00  0.00    -0.050 A 
ATOM      8  C   UNL     1      -0.022   4.633  -2.192  0.00  0.00    +0.004 A 
ATOM      9  C   UNL     1      -0.947   3.746  -1.679  0.00  0.00    +0.012 A 
ATOM     10  C   UNL     1      -0.526   2.710  -0.845  0.00  0.00    +0.020 A 
ATOM     11  C   UNL     1       0.830   2.571  -0.542  0.00  0.00    +0.012 A 
ATOM     12  C   UNL     1       1.744   3.465  -1.062  0.00  0.00    +0.004 A 
ENDBRANCH   1  10
BRANCH   5  13
ATOM     13  C   UNL     1      -3.609   3.044  -0.678  0.00  0.00    +0.051 A 
ATOM     14  C   UNL     1      -3.713   4.179   0.115  0.00  0.00    +0.026 A 
ATOM     15  C   UNL     1      -4.430   5.270  -0.336  0.00  0.00    +0.002 A 
ATOM     16  C   UNL     1      -5.053   5.229  -1.569  0.00  0.00    +0.000 A 
ATOM     17  C   UNL     1      -4.956   4.097  -2.359  0.00  0.00    +0.002 A 
ATOM     18  C   UNL     1      -4.235   3.005  -1.916  0.00  0.00    +0.026 A 
ENDBRANCH   5  13
BRANCH   4  19
ATOM     19  S   UNL     1      -5.061   0.454   0.704  0.00  0.00    -0.076 S 
BRANCH  19  20
ATOM     20  C   UNL     1      -4.896  -1.176   1.474  0.00  0.00    +0.174 C 
BRANCH  20  21
ATOM     21  C   UNL     1      -6.259  -1.690   1.860  0.00  0.00    +0.242 C 
ATOM     22  O   UNL     1      -7.246  -1.020   1.637  0.00  0.00    -0.273 OA
ATOM     23  N   UNL     1      -6.383  -2.893   2.453  0.00  0.00    -0.206 N 
ATOM     24  H   UNL     1      -5.594  -3.429   2.632  0.00  0.00    +0.177 HD
BRANCH  23  25
ATOM     25  N   UNL     1      -7.650  -3.371   2.812  0.00  0.00    -0.187 NA
ATOM     26  C   UNL     1      -7.782  -4.578   3.279  0.00  0.00    +0.145 C 
BRANCH  26  27
ATOM     27  C   UNL     1      -6.649  -5.508   3.237  0.00  0.00    +0.033 A 
ATOM     28  C   UNL     1      -6.587  -6.827   3.652  0.00  0.00    +0.018 A 
ATOM     29  C   UNL     1      -5.398  -7.503   3.508  0.00  0.00    +0.023 A 
ATOM     30  C   UNL     1      -4.329  -6.859   2.968  0.00  0.00    +0.055 A 
ATOM     31  S   UNL     1      -4.992  -5.237   2.630  0.00  0.00    -0.080 S 
ATOM     32 BR   UNL     1      -2.585  -7.518   2.649  0.00  0.00    -0.043 Br
ENDBRANCH  26  27
ENDBRANCH  23  25
ENDBRANCH  20  21
ENDBRANCH  19  20
ENDBRANCH   4  19
TORSDOF 7
