REMARK  Name = ZINC23857990
REMARK  7 active torsions:
REMARK  status: ('A' for Active; 'I' for Inactive)
REMARK    1  A    between atoms: C_1  and  N_2
REMARK    2  A    between atoms: C_9  and  C_11
REMARK    3  A    between atoms: C_11  and  C_13
REMARK    4  A    between atoms: C_11  and  N_27
REMARK    5  A    between atoms: C_13  and  N_14
REMARK    6  A    between atoms: C_15  and  C_17
REMARK    7  A    between atoms: C_21  and  N_23
REMARK                            x       y       z     vdW  Elec       q    Type
REMARK                         _______ _______ _______ _____ _____    ______ ____
ROOT
ATOM      1  C   UNL     1      -3.338   6.103  -1.097  0.00  0.00    -0.020 C 
ENDROOT
BRANCH   1  10
ATOM      2  C   UNL     1       0.331   1.851   2.108  0.00  0.00    +0.129 C 
ATOM      3  N   UNL     1      -0.387   1.663   0.840  0.00  0.00    -0.332 N 
ATOM      4  C   UNL     1       0.558   1.443  -0.276  0.00  0.00    +0.109 C 
ATOM      5  C   UNL     1      -0.188   2.056  -1.483  0.00  0.00    +0.056 C 
ATOM      6  C   UNL     1      -1.100   3.076  -0.832  0.00  0.00    -0.025 A 
ATOM      7  C   UNL     1      -1.166   2.787   0.526  0.00  0.00    +0.033 A 
ATOM      8  C   UNL     1      -1.944   3.594   1.355  0.00  0.00    +0.023 A 
ATOM      9  C   UNL     1      -2.641   4.661   0.827  0.00  0.00    +0.004 A 
ATOM     10  C   UNL     1      -2.573   4.938  -0.526  0.00  0.00    -0.059 A 
ATOM     11  C   UNL     1      -1.800   4.143  -1.354  0.00  0.00    +0.007 A 
ENDBRANCH   1  10
BRANCH   1  12
ATOM     12  N   UNL     1      -3.067   7.306  -0.298  0.00  0.00    +0.385 N 
ATOM     13  C   UNL     1      -1.687   7.303   0.205  0.00  0.00    -0.078 C 
ATOM     14  C   UNL     1      -1.396   8.632   0.906  0.00  0.00    -0.019 C 
ATOM     15  C   UNL     1      -2.381   8.820   2.063  0.00  0.00    -0.004 C 
ATOM     16  C   UNL     1      -3.811   8.770   1.519  0.00  0.00    -0.019 C 
ATOM     17  C   UNL     1      -4.032   7.438   0.800  0.00  0.00    -0.078 C 
ATOM     18  H   UNL     1      -3.183   8.182  -0.954  0.00  0.00    -0.081 HD
ENDBRANCH   1  12
BRANCH   1  19
ATOM     19  C   UNL     1      -4.836   5.796  -1.063  0.00  0.00    +0.094 C 
BRANCH  19  20
ATOM     20  N   UNL     1      -5.580   6.925  -1.628  0.00  0.00    -0.313 N 
ATOM     21  C   UNL     1      -6.913   6.834  -1.801  0.00  0.00    +0.244 C 
ATOM     22  O   UNL     1      -7.499   5.816  -1.490  0.00  0.00    -0.270 OA
ATOM     23  H   UNL     1      -5.049   7.846  -1.910  0.00  0.00    +0.149 HD
BRANCH  21  24
ATOM     24  C   UNL     1      -7.663   7.973  -2.371  0.00  0.00    +0.039 A 
ATOM     25  C   UNL     1      -6.994   9.147  -2.725  0.00  0.00    +0.014 A 
ATOM     26  C   UNL     1      -7.698  10.204  -3.261  0.00  0.00    +0.023 A 
ATOM     27  C   UNL     1      -9.068  10.108  -3.438  0.00  0.00    +0.071 A 
ATOM     28  C   UNL     1      -9.739   8.949  -3.084  0.00  0.00    +0.145 A 
ATOM     29  C   UNL     1      -9.044   7.883  -2.553  0.00  0.00    +0.047 A 
ATOM     30 CL   UNL     1      -9.949  11.446  -4.107  0.00  0.00    -0.081 Cl
BRANCH  28  31
ATOM     31  N   UNL     1     -11.203   8.854  -3.277  0.00  0.00    +0.058 N 
ATOM     32  O   UNL     1     -11.793   7.835  -2.967  0.00  0.00    -0.126 OA
ATOM     33  O   UNL     1     -11.817   9.795  -3.747  0.00  0.00    -0.126 OA
ENDBRANCH  28  31
ENDBRANCH  21  24
ENDBRANCH  19  20
ENDBRANCH   1  19
TORSDOF 6
