REMARK  Name = ZINC39353140
REMARK  4 active torsions:
REMARK  status: ('A' for Active; 'I' for Inactive)
REMARK    1  A    between atoms: C_3  and  N_8
REMARK    2  A    between atoms: C_12  and  C_13
REMARK    3  A    between atoms: C_16  and  S_18
REMARK    4  A    between atoms: S_18  and  C_19
REMARK                            x       y       z     vdW  Elec       q    Type
REMARK                         _______ _______ _______ _____ _____    ______ ____
ROOT
ATOM      1  N   UNL     1       3.760   1.876   1.594  0.00  0.00    -0.216 N 
ATOM      2  C   UNL     1       4.737   1.488   0.745  0.00  0.00    +0.262 C 
ATOM      3  O   UNL     1       4.509   0.701  -0.156  0.00  0.00    -0.269 OA
ATOM      4  C   UNL     1       6.082   2.045   0.942  0.00  0.00    +0.105 C 
ATOM      5  C   UNL     1       7.145   1.690   0.101  0.00  0.00    +0.064 C 
ATOM      6  C   UNL     1       6.265   2.957   2.015  0.00  0.00    +0.274 C 
ATOM      7  O   UNL     1       7.478   3.505   2.248  0.00  0.00    -0.268 OA
ATOM      8  N   UNL     1       5.233   3.264   2.783  0.00  0.00    -0.153 NA
ATOM      9  C   UNL     1       4.024   2.749   2.580  0.00  0.00    +0.171 C 
ATOM     10  S   UNL     1       2.749   3.214   3.625  0.00  0.00    -0.016 S 
ENDROOT
BRANCH   1  13
ATOM     11  C   UNL     1       0.917  -0.458   1.594  0.00  0.00    +0.003 A 
ATOM     12  C   UNL     1       2.197   0.040   1.745  0.00  0.00    +0.024 A 
ATOM     13  C   UNL     1       2.464   1.368   1.442  0.00  0.00    +0.045 A 
ATOM     14  C   UNL     1       1.443   2.193   0.988  0.00  0.00    +0.044 A 
ATOM     15  C   UNL     1       0.165   1.689   0.840  0.00  0.00    +0.043 A 
ATOM     16  C   UNL     1      -0.098   0.364   1.143  0.00  0.00    +0.020 A 
ATOM     17 CL   UNL     1      -1.113   2.719   0.273  0.00  0.00    -0.083 Cl
ENDBRANCH   1  13
BRANCH   5  18
ATOM     18  C   UNL     1       8.354   2.376   0.180  0.00  0.00    +0.130 A 
ATOM     19  C   UNL     1       9.625   1.803   0.147  0.00  0.00    +0.050 A 
ATOM     20  C   UNL     1      10.537   2.844   0.252  0.00  0.00    +0.057 A 
ATOM     21  C   UNL     1       9.808   4.017   0.346  0.00  0.00    +0.165 A 
ATOM     22  O   UNL     1       8.501   3.717   0.296  0.00  0.00    -0.449 OA
BRANCH  21  23
ATOM     23  S   UNL     1      10.485   5.637   0.500  0.00  0.00    -0.046 S 
BRANCH  23  24
ATOM     24  C   UNL     1      10.806   6.142  -1.213  0.00  0.00    +0.240 C 
ATOM     25  N   UNL     1       9.534   6.176  -1.986  0.00  0.00    -0.275 NA
ATOM     26  C   UNL     1      10.004   5.796  -3.326  0.00  0.00    +0.128 C 
ATOM     27  C   UNL     1       8.882   5.228  -4.152  0.00  0.00    -0.002 C 
ATOM     28  C   UNL     1       9.177   4.177  -4.932  0.00  0.00    -0.002 C 
ATOM     29  C   UNL     1      10.521   3.613  -4.974  0.00  0.00    +0.002 C 
ATOM     30  C   UNL     1      11.487   3.939  -4.087  0.00  0.00    +0.025 C 
ATOM     31  C   UNL     1      11.207   4.904  -3.073  0.00  0.00    +0.060 C 
ATOM     32  N   UNL     1      11.656   5.147  -1.885  0.00  0.00    -0.256 NA
ATOM     33  H   UNL     1       8.875   5.501  -1.629  0.00  0.00    +0.126 HD
ENDBRANCH  23  24
ENDBRANCH  21  23
ENDBRANCH   5  18
TORSDOF 4
