REMARK  Name = ZINC51093307
REMARK  2 active torsions:
REMARK  status: ('A' for Active; 'I' for Inactive)
REMARK    1  A    between atoms: C_11  and  C_13
REMARK    2  A    between atoms: N_19  and  N_20
REMARK                            x       y       z     vdW  Elec       q    Type
REMARK                         _______ _______ _______ _____ _____    ______ ____
ROOT
ATOM      1  C   UNL     1      -0.074   1.161  -0.639  0.00  0.00    +0.000 A 
ATOM      2  C   UNL     1       0.980   1.697   0.078  0.00  0.00    +0.002 A 
ATOM      3  C   UNL     1       2.223   1.100   0.025  0.00  0.00    +0.024 A 
ATOM      4  C   UNL     1       2.415  -0.040  -0.748  0.00  0.00    +0.040 A 
ATOM      5  C   UNL     1       1.357  -0.579  -1.464  0.00  0.00    -0.026 A 
ATOM      6  C   UNL     1       0.114   0.029  -1.407  0.00  0.00    +0.005 A 
ATOM      7  C   UNL     1       1.525  -1.818  -2.303  0.00  0.00    +0.038 C 
ATOM      8  C   UNL     1       2.998  -2.037  -2.646  0.00  0.00    +0.024 C 
ATOM      9  C   UNL     1       3.822  -1.980  -1.353  0.00  0.00    +0.114 C 
ATOM     10  N   UNL     1       3.685  -0.629  -0.792  0.00  0.00    -0.267 N 
ATOM     11  C   UNL     1       4.764   0.033  -0.329  0.00  0.00    +0.251 C 
ATOM     12  O   UNL     1       4.662   1.194   0.016  0.00  0.00    -0.270 OA
ENDROOT
BRANCH  11  13
ATOM     13  C   UNL     1       6.073  -0.654  -0.240  0.00  0.00    +0.042 A 
ATOM     14  C   UNL     1       6.148  -2.026   0.029  0.00  0.00    +0.033 A 
ATOM     15  C   UNL     1       7.386  -2.630   0.103  0.00  0.00    +0.113 A 
ATOM     16  N   UNL     1       8.493  -1.935  -0.075  0.00  0.00    -0.239 NA
ATOM     17  C   UNL     1       8.471  -0.637  -0.332  0.00  0.00    +0.133 A 
ATOM     18  C   UNL     1       7.264   0.048  -0.429  0.00  0.00    +0.057 A 
ATOM     19  N   UNL     1       9.667   0.048  -0.512  0.00  0.00    -0.268 N 
ATOM     20  H   UNL     1       9.657   1.000  -0.701  0.00  0.00    +0.167 HD
BRANCH  19  21
ATOM     21  N   UNL     1      10.856  -0.618  -0.424  0.00  0.00    -0.255 NA
ATOM     22  H   UNL     1      10.884  -1.394  -1.068  0.00  0.00    +0.140 HD
ATOM     23  H   UNL     1      11.633   0.007  -0.577  0.00  0.00    +0.140 HD
ENDBRANCH  19  21
ENDBRANCH  11  13
TORSDOF 2
