REMARK  Name = ZINC50530946
REMARK  7 active torsions:
REMARK  status: ('A' for Active; 'I' for Inactive)
REMARK    1  A    between atoms: C_1  and  C_2
REMARK    2  A    between atoms: C_5  and  N_17
REMARK    3  A    between atoms: C_6  and  C_16
REMARK    4  A    between atoms: C_7  and  O_8
REMARK    5  A    between atoms: O_8  and  C_9
REMARK    6  A    between atoms: C_9  and  C_10
REMARK    7  A    between atoms: N_13  and  C_15
REMARK                            x       y       z     vdW  Elec       q    Type
REMARK                         _______ _______ _______ _____ _____    ______ ____
ROOT
ATOM      1  C   UNL     1      -0.018   1.503   0.010  0.00  0.00    +0.047 C 
ATOM      2  C   UNL     1       0.002  -0.004   0.002  0.00  0.00    -0.008 A 
ATOM      3  C   UNL     1       0.006  -0.688  -1.199  0.00  0.00    +0.009 A 
ATOM      4  C   UNL     1       0.025  -2.069  -1.211  0.00  0.00    +0.023 A 
ATOM      5  C   UNL     1       0.041  -2.774  -0.014  0.00  0.00    +0.031 A 
ATOM      6  C   UNL     1       0.037  -2.089   1.193  0.00  0.00    +0.012 A 
ATOM      7  C   UNL     1       0.023  -0.703   1.200  0.00  0.00    +0.129 A 
ATOM      8  C   UNL     1       0.054  -2.851   2.493  0.00  0.00    +0.049 C 
ENDROOT
BRANCH   5   9
ATOM      9  N   UNL     1       0.059  -4.171  -0.026  0.00  0.00    -0.358 N 
ATOM     10  H   UNL     1       0.062  -4.649  -0.870  0.00  0.00    +0.142 HD
ATOM     11  H   UNL     1       0.070  -4.663   0.810  0.00  0.00    +0.142 HD
ENDBRANCH   5   9
BRANCH   7  12
ATOM     12  O   UNL     1       0.025  -0.030   2.381  0.00  0.00    -0.487 OA
BRANCH  12  13
ATOM     13  C   UNL     1      -1.248   0.274   2.956  0.00  0.00    +0.267 C 
BRANCH  13  14
ATOM     14  C   UNL     1      -1.049   1.018   4.252  0.00  0.00    +0.027 A 
ATOM     15  C   UNL     1      -0.915   0.441   5.519  0.00  0.00    +0.141 A 
ATOM     16  N   UNL     1      -0.759   1.403   6.391  0.00  0.00    -0.180 NA
ATOM     17  N   UNL     1      -0.788   2.625   5.706  0.00  0.00    -0.274 N 
ATOM     18  C   UNL     1      -0.962   2.360   4.394  0.00  0.00    +0.115 A 
ATOM     19  C   UNL     1      -0.649   3.954   6.306  0.00  0.00    +0.172 C 
ENDBRANCH  13  14
ENDBRANCH  12  13
ENDBRANCH   7  12
TORSDOF 4
