REMARK  Name = ZINC39777975
REMARK  8 active torsions:
REMARK  status: ('A' for Active; 'I' for Inactive)
REMARK    1  A    between atoms: C_1  and  C_2
REMARK    2  A    between atoms: C_2  and  O_3
REMARK    3  A    between atoms: O_3  and  C_4
REMARK    4  A    between atoms: C_4  and  C_6
REMARK    5  A    between atoms: C_8  and  N_17
REMARK    6  A    between atoms: C_19  and  C_30
REMARK    7  A    between atoms: C_25  and  O_28
REMARK    8  A    between atoms: O_28  and  C_29
REMARK                            x       y       z     vdW  Elec       q    Type
REMARK                         _______ _______ _______ _____ _____    ______ ____
ROOT
ATOM      1  N   UNL     1      -0.764  -1.801  -3.508  0.00  0.00    -0.342 N 
ATOM      2  C   UNL     1      -1.415  -0.775  -3.987  0.00  0.00    +0.207 A 
ATOM      3  C   UNL     1      -2.851  -0.577  -3.689  0.00  0.00    +0.078 A 
ATOM      4  C   UNL     1      -3.327   0.712  -3.717  0.00  0.00    +0.028 A 
ATOM      5  C   UNL     1      -2.374   1.779  -4.040  0.00  0.00    +0.022 A 
ATOM      6  C   UNL     1      -2.707   3.123  -3.831  0.00  0.00    +0.012 A 
ATOM      7  C   UNL     1      -1.795   4.108  -4.139  0.00  0.00    +0.004 A 
ATOM      8  C   UNL     1      -0.550   3.777  -4.653  0.00  0.00    +0.049 A 
ATOM      9  C   UNL     1      -0.206   2.453  -4.867  0.00  0.00    +0.163 A 
ATOM     10  C   UNL     1      -1.114   1.444  -4.564  0.00  0.00    +0.179 A 
ATOM     11  O   UNL     1      -0.794   0.145  -4.769  0.00  0.00    -0.435 OA
ATOM     12  H   UNL     1      -1.222  -2.450  -2.951  0.00  0.00    +0.164 HD
ENDROOT
BRANCH   3  13
ATOM     13  C   UNL     1      -3.735  -1.715  -3.374  0.00  0.00    +0.144 A 
ATOM     14  N   UNL     1      -5.072  -1.620  -3.092  0.00  0.00    -0.338 N 
ATOM     15  H   UNL     1      -5.599  -0.806  -3.065  0.00  0.00    +0.167 HD
ATOM     16  C   UNL     1      -5.531  -2.902  -2.855  0.00  0.00    +0.066 A 
ATOM     17  C   UNL     1      -6.769  -3.436  -2.528  0.00  0.00    +0.028 A 
ATOM     18  C   UNL     1      -6.902  -4.798  -2.353  0.00  0.00    +0.002 A 
ATOM     19  C   UNL     1      -5.806  -5.636  -2.502  0.00  0.00    +0.002 A 
ATOM     20  C   UNL     1      -4.580  -5.129  -2.823  0.00  0.00    +0.030 A 
ATOM     21  C   UNL     1      -4.421  -3.751  -3.006  0.00  0.00    +0.089 A 
ATOM     22  N   UNL     1      -3.360  -2.972  -3.327  0.00  0.00    -0.228 NA
ENDBRANCH   3  13
BRANCH   1  24
ATOM     23  C   UNL     1       1.468  -2.353  -2.550  0.00  0.00    +0.157 C 
ATOM     24  C   UNL     1       0.658  -1.973  -3.813  0.00  0.00    +0.162 C 
ATOM     25  S   UNL     1       0.960  -3.493  -4.808  0.00  0.00    -0.104 S 
ATOM     26  C   UNL     1       1.374  -4.595  -3.476  0.00  0.00    -0.012 C 
ATOM     27  C   UNL     1       1.591  -3.849  -2.401  0.00  0.00    -0.044 C 
ATOM     28  C   UNL     1       1.957  -4.487  -1.063  0.00  0.00    +0.032 C 
ATOM     29  C   UNL     1       1.573  -5.966  -1.091  0.00  0.00    +0.005 C 
ATOM     30  C   UNL     1       2.178  -6.628  -2.333  0.00  0.00    +0.005 C 
ATOM     31  C   UNL     1       1.454  -6.094  -3.568  0.00  0.00    +0.042 C 
BRANCH  23  32
ATOM     32  C   UNL     1       0.775  -1.794  -1.334  0.00  0.00    +0.317 C 
ATOM     33  O   UNL     1      -0.116  -2.416  -0.806  0.00  0.00    -0.250 OA
BRANCH  32  34
ATOM     34  O   UNL     1       1.149  -0.604  -0.838  0.00  0.00    -0.464 OA
BRANCH  34  36
ATOM     35  C   UNL     1       1.010   1.227   0.734  0.00  0.00    +0.048 C 
ATOM     36  C   UNL     1       0.449  -0.134   0.317  0.00  0.00    +0.229 C 
ENDBRANCH  34  36
ENDBRANCH  32  34
ENDBRANCH  23  32
ENDBRANCH   1  24
BRANCH   9  37
ATOM     37  O   UNL     1       1.018   2.140  -5.372  0.00  0.00    -0.491 OA
ATOM     38  C   UNL     1       1.898   3.228  -5.659  0.00  0.00    +0.277 C 
ENDBRANCH   9  37
TORSDOF 6
