REMARK  Name = ZINC63485911
REMARK  10 active torsions:
REMARK  status: ('A' for Active; 'I' for Inactive)
REMARK    1  A    between atoms: C_1  and  C_2
REMARK    2  A    between atoms: C_7  and  O_31
REMARK    3  A    between atoms: C_13  and  C_15
REMARK    4  A    between atoms: C_15  and  C_16
REMARK    5  A    between atoms: N_18  and  C_19
REMARK    6  A    between atoms: C_19  and  C_20
REMARK    7  A    between atoms: C_20  and  C_21
REMARK    8  A    between atoms: O_31  and  C_32
REMARK    9  A    between atoms: C_32  and  C_33
REMARK   10  A    between atoms: C_33  and  C_35
REMARK                            x       y       z     vdW  Elec       q    Type
REMARK                         _______ _______ _______ _____ _____    ______ ____
ROOT
ATOM      1  C   UNL     1       0.290   0.271   2.476  0.00  0.00    +0.111 C 
ENDROOT
BRANCH   1  13
ATOM      2  C   UNL     1      -0.019   1.526   0.010  0.00  0.00    +0.013 C 
ATOM      3  C   UNL     1       0.002  -0.004   0.002  0.00  0.00    +0.034 C 
ATOM      4  C   UNL     1      -1.413  -0.524   0.009  0.00  0.00    -0.001 A 
ATOM      5  C   UNL     1      -2.362   0.134  -0.759  0.00  0.00    +0.011 A 
ATOM      6  C   UNL     1      -3.668  -0.310  -0.789  0.00  0.00    +0.046 A 
ATOM      7  C   UNL     1      -4.039  -1.424  -0.048  0.00  0.00    +0.124 A 
ATOM      8  C   UNL     1      -3.095  -2.082   0.722  0.00  0.00    +0.092 A 
ATOM      9  C   UNL     1      -1.781  -1.631   0.754  0.00  0.00    +0.139 A 
ATOM     10  O   UNL     1      -0.889  -2.295   1.540  0.00  0.00    -0.425 OA
ATOM     11  C   UNL     1       0.414  -1.979   1.408  0.00  0.00    +0.316 C 
ATOM     12  O   UNL     1       1.276  -2.826   1.423  0.00  0.00    -0.250 OA
ATOM     13  C   UNL     1       0.747  -0.510   1.241  0.00  0.00    +0.114 C 
BRANCH   7  14
ATOM     14  O   UNL     1      -5.323  -1.866  -0.078  0.00  0.00    -0.488 OA
BRANCH  14  15
ATOM     15  C   UNL     1      -6.241  -1.136  -0.895  0.00  0.00    +0.259 C 
BRANCH  15  16
ATOM     16  C   UNL     1      -7.607  -1.768  -0.803  0.00  0.00    -0.043 C 
ATOM     17  C   UNL     1      -7.790  -2.825  -0.052  0.00  0.00    +0.011 C 
ATOM     18  C   UNL     1      -8.761  -1.183  -1.577  0.00  0.00    +0.042 C 
ENDBRANCH  15  16
ENDBRANCH  14  15
ENDBRANCH   7  14
ENDBRANCH   1  13
BRANCH   1  19
ATOM     19  C   UNL     1       1.113  -0.147   3.667  0.00  0.00    +0.214 C 
ATOM     20  O   UNL     1       1.980  -0.986   3.541  0.00  0.00    -0.276 OA
ATOM     21  N   UNL     1       0.886   0.412   4.872  0.00  0.00    -0.315 N 
ATOM     22  H   UNL     1       0.193   1.083   4.973  0.00  0.00    +0.149 HD
BRANCH  21  23
ATOM     23  C   UNL     1       1.687   0.006   6.030  0.00  0.00    +0.108 C 
BRANCH  23  24
ATOM     24  C   UNL     1       1.230   0.786   7.264  0.00  0.00    +0.052 C 
BRANCH  24  25
ATOM     25  C   UNL     1       2.053   0.369   8.456  0.00  0.00    -0.040 C 
ATOM     26  C   UNL     1       3.162   0.979   8.932  0.00  0.00    +0.000 A 
ATOM     27  C   UNL     1       3.905   2.169   8.500  0.00  0.00    +0.030 A 
ATOM     28  C   UNL     1       5.005   2.543   9.194  0.00  0.00    +0.042 A 
ATOM     29  C   UNL     1       5.451   1.824  10.313  0.00  0.00    +0.022 A 
ATOM     30  C   UNL     1       4.821   0.722  10.769  0.00  0.00    +0.027 A 
ATOM     31  C   UNL     1       3.653   0.238  10.116  0.00  0.00    +0.043 A 
ATOM     32  N   UNL     1       2.878  -0.790  10.362  0.00  0.00    -0.380 N 
ATOM     33  C   UNL     1       1.803  -0.814   9.364  0.00  0.00    +0.144 C 
ATOM     34 CL   UNL     1       5.886   3.950   8.686  0.00  0.00    -0.084 Cl
ATOM     35  H   UNL     1       2.995  -1.427  11.085  0.00  0.00    +0.160 HD
ENDBRANCH  24  25
ENDBRANCH  23  24
ENDBRANCH  21  23
ENDBRANCH   1  19
TORSDOF 8
