REMARK  Name = ZINC22017526
REMARK  8 active torsions:
REMARK  status: ('A' for Active; 'I' for Inactive)
REMARK    1  A    between atoms: C_1  and  O_2
REMARK    2  A    between atoms: O_2  and  C_3
REMARK    3  A    between atoms: C_5  and  C_13
REMARK    4  A    between atoms: C_7  and  O_11
REMARK    5  A    between atoms: C_8  and  O_9
REMARK    6  A    between atoms: O_9  and  C_10
REMARK    7  A    between atoms: O_11  and  C_12
REMARK    8  A    between atoms: N_31  and  C_34
REMARK                            x       y       z     vdW  Elec       q    Type
REMARK                         _______ _______ _______ _____ _____    ______ ____
ROOT
ATOM      1  C   UNL     1      -1.162   2.248   0.006  0.00  0.00    +0.153 C 
ATOM      2  C   UNL     1      -0.889   3.386  -0.958  0.00  0.00    +0.046 A 
ATOM      3  C   UNL     1       0.310   3.603  -1.539  0.00  0.00    -0.015 A 
ATOM      4  C   UNL     1       0.162   4.780  -2.376  0.00  0.00    +0.003 A 
ATOM      5  C   UNL     1       1.054   5.469  -3.203  0.00  0.00    +0.010 A 
ATOM      6  C   UNL     1       0.563   6.567  -3.865  0.00  0.00    +0.001 A 
ATOM      7  C   UNL     1      -0.752   6.981  -3.729  0.00  0.00    +0.002 A 
ATOM      8  C   UNL     1      -1.655   6.318  -2.917  0.00  0.00    +0.026 A 
ATOM      9  C   UNL     1      -1.184   5.200  -2.231  0.00  0.00    +0.047 A 
ATOM     10  N   UNL     1      -1.789   4.333  -1.367  0.00  0.00    -0.356 N 
ATOM     11  H   UNL     1      -2.823   4.307  -0.994  0.00  0.00    +0.166 HD
ATOM     12  C   UNL     1       1.550   2.768  -1.344  0.00  0.00    +0.069 C 
ATOM     13  C   UNL     1       1.413   1.944  -0.058  0.00  0.00    +0.167 C 
ATOM     14  N   UNL     1       0.037   1.401  -0.009  0.00  0.00    -0.288 N 
ATOM     15  C   UNL     1       0.135   0.070  -0.004  0.00  0.00    +0.144 C 
ATOM     16  S   UNL     1      -1.206  -0.987   0.117  0.00  0.00    -0.018 S 
ATOM     17  N   UNL     1       1.407  -0.343  -0.106  0.00  0.00    -0.249 N 
ATOM     18  C   UNL     1       2.266   0.695  -0.160  0.00  0.00    +0.242 C 
ATOM     19  O   UNL     1       3.472   0.641  -0.269  0.00  0.00    -0.273 OA
ENDROOT
BRANCH   1  22
ATOM     20  C   UNL     1      -0.580   3.919   3.345  0.00  0.00    +0.165 A 
ATOM     21  C   UNL     1      -0.369   3.420   2.069  0.00  0.00    +0.055 A 
ATOM     22  C   UNL     1      -1.396   2.789   1.393  0.00  0.00    -0.014 A 
ATOM     23  C   UNL     1      -2.639   2.658   1.982  0.00  0.00    +0.055 A 
ATOM     24  C   UNL     1      -2.857   3.149   3.261  0.00  0.00    +0.165 A 
ATOM     25  C   UNL     1      -1.827   3.784   3.944  0.00  0.00    +0.204 A 
BRANCH  20  27
ATOM     26  C   UNL     1       1.685   4.641   3.334  0.00  0.00    +0.277 C 
ATOM     27  O   UNL     1       0.431   4.539   4.011  0.00  0.00    -0.491 OA
ENDBRANCH  20  27
BRANCH  25  28
ATOM     28  O   UNL     1      -2.039   4.272   5.197  0.00  0.00    -0.488 OA
ATOM     29  C   UNL     1      -2.498   5.621   5.299  0.00  0.00    +0.277 C 
ENDBRANCH  25  28
BRANCH  24  30
ATOM     30  O   UNL     1      -4.079   3.015   3.842  0.00  0.00    -0.491 OA
ATOM     31  C   UNL     1      -5.091   2.352   3.081  0.00  0.00    +0.277 C 
ENDBRANCH  24  30
ENDBRANCH   1  22
BRANCH  17  32
ATOM     32  C   UNL     1       1.813  -1.750  -0.153  0.00  0.00    +0.083 C 
ATOM     33  C   UNL     1       1.169  -2.427  -1.364  0.00  0.00    +0.023 C 
ATOM     34  C   UNL     1       1.594  -3.896  -1.413  0.00  0.00    +0.002 C 
ATOM     35  C   UNL     1       1.139  -4.601  -0.133  0.00  0.00    +0.000 C 
ATOM     36  C   UNL     1       1.783  -3.924   1.078  0.00  0.00    +0.002 C 
ATOM     37  C   UNL     1       1.359  -2.455   1.127  0.00  0.00    +0.023 C 
ENDBRANCH  17  32
TORSDOF 5
