REMARK  Name = ZINC08840491
REMARK  11 active torsions:
REMARK  status: ('A' for Active; 'I' for Inactive)
REMARK    1  A    between atoms: C_1  and  C_2
REMARK    2  A    between atoms: C_2  and  C_3
REMARK    3  A    between atoms: C_3  and  S_4
REMARK    4  A    between atoms: S_4  and  N_7
REMARK    5  A    between atoms: C_13  and  N_17
REMARK    6  A    between atoms: N_17  and  S_18
REMARK    7  A    between atoms: S_18  and  C_21
REMARK    8  A    between atoms: C_23  and  C_30
REMARK    9  A    between atoms: C_26  and  O_27
REMARK   10  A    between atoms: O_27  and  C_28
REMARK   11  A    between atoms: C_28  and  C_29
REMARK                            x       y       z     vdW  Elec       q    Type
REMARK                         _______ _______ _______ _____ _____    ______ ____
ROOT
ATOM      1  N   UNL     1       2.269   2.338   0.146  0.00  0.00    -0.177 NA
ATOM      2  C   UNL     1       0.829   2.049   0.054  0.00  0.00    +0.114 C 
ATOM      3  C   UNL     1       0.657   0.532  -0.013  0.00  0.00    +0.052 C 
ATOM      4  C   UNL     1       1.482  -0.149   1.048  0.00  0.00    -0.042 A 
ATOM      5  C   UNL     1       1.127  -1.445   1.404  0.00  0.00    +0.006 A 
ATOM      6  C   UNL     1       1.843  -2.133   2.360  0.00  0.00    +0.025 A 
ATOM      7  C   UNL     1       2.931  -1.526   2.974  0.00  0.00    +0.048 A 
ATOM      8  C   UNL     1       3.282  -0.232   2.622  0.00  0.00    +0.029 A 
ATOM      9  C   UNL     1       2.555   0.457   1.662  0.00  0.00    -0.027 A 
ATOM     10  C   UNL     1       2.975   1.870   1.344  0.00  0.00    +0.144 C 
ENDROOT
BRANCH   1  11
ATOM     11  S   UNL     1       3.062   3.157  -1.055  0.00  0.00    +0.032 S 
ATOM     12  O   UNL     1       4.412   2.726  -0.958  0.00  0.00    -0.158 OA
ATOM     13  O   UNL     1       2.303   2.902  -2.229  0.00  0.00    -0.158 OA
BRANCH  11  14
ATOM     14  C   UNL     1       2.929   4.906  -0.593  0.00  0.00    +0.185 C 
BRANCH  14  16
ATOM     15  C   UNL     1       3.523   7.241  -1.253  0.00  0.00    +0.005 C 
ATOM     16  C   UNL     1       3.634   5.766  -1.643  0.00  0.00    +0.021 C 
ENDBRANCH  14  16
ENDBRANCH  11  14
ENDBRANCH   1  11
BRANCH   7  17
ATOM     17  N   UNL     1       3.667  -2.215   3.942  0.00  0.00    -0.216 N 
ATOM     18  H   UNL     1       3.917  -1.772   4.767  0.00  0.00    +0.174 HD
BRANCH  17  19
ATOM     19  S   UNL     1       4.111  -3.788   3.678  0.00  0.00    +0.076 S 
ATOM     20  O   UNL     1       4.894  -4.182   4.797  0.00  0.00    -0.150 OA
ATOM     21  O   UNL     1       2.935  -4.483   3.289  0.00  0.00    -0.150 OA
BRANCH  19  22
ATOM     22  C   UNL     1       5.187  -3.799   2.283  0.00  0.00    +0.150 A 
ATOM     23  C   UNL     1       4.799  -4.427   1.115  0.00  0.00    +0.036 A 
ATOM     24  C   UNL     1       5.642  -4.435   0.020  0.00  0.00    -0.048 A 
ATOM     25  C   UNL     1       6.877  -3.815   0.090  0.00  0.00    +0.007 A 
ATOM     26  C   UNL     1       7.270  -3.187   1.256  0.00  0.00    +0.048 A 
ATOM     27  C   UNL     1       6.423  -3.172   2.354  0.00  0.00    +0.147 A 
ATOM     28  C   UNL     1       5.216  -5.120  -1.253  0.00  0.00    +0.044 C 
BRANCH  27  29
ATOM     29  O   UNL     1       6.805  -2.550   3.500  0.00  0.00    -0.490 OA
BRANCH  29  30
ATOM     30  C   UNL     1       8.138  -2.037   3.546  0.00  0.00    +0.226 C 
ATOM     31  C   UNL     1       8.423  -1.482   4.944  0.00  0.00    +0.048 C 
ENDBRANCH  29  30
ENDBRANCH  27  29
ENDBRANCH  19  22
ENDBRANCH  17  19
ENDBRANCH   7  17
TORSDOF 8
