REMARK  Name = ZINC08899569
REMARK  9 active torsions:
REMARK  status: ('A' for Active; 'I' for Inactive)
REMARK    1  A    between atoms: C_1  and  O_2
REMARK    2  A    between atoms: O_2  and  C_3
REMARK    3  A    between atoms: C_6  and  N_10
REMARK    4  A    between atoms: C_11  and  C_13
REMARK    5  A    between atoms: C_13  and  C_15
REMARK    6  A    between atoms: C_13  and  S_21
REMARK    7  A    between atoms: S_21  and  C_22
REMARK    8  A    between atoms: C_25  and  C_28
REMARK    9  A    between atoms: N_26  and  N_27
REMARK                            x       y       z     vdW  Elec       q    Type
REMARK                         _______ _______ _______ _____ _____    ______ ____
ROOT
ATOM      1  C   UNL     1      -2.728   0.162   0.035  0.00  0.00    +0.170 C 
ENDROOT
BRANCH   1   2
ATOM      2  C   UNL     1      -2.694   0.959  -1.244  0.00  0.00    -0.025 A 
ATOM      3  C   UNL     1      -2.848   0.320  -2.460  0.00  0.00    +0.005 A 
ATOM      4  C   UNL     1      -2.821   1.052  -3.633  0.00  0.00    +0.000 A 
ATOM      5  C   UNL     1      -2.633   2.420  -3.590  0.00  0.00    +0.000 A 
ATOM      6  C   UNL     1      -2.474   3.058  -2.374  0.00  0.00    +0.000 A 
ATOM      7  C   UNL     1      -2.505   2.327  -1.201  0.00  0.00    +0.005 A 
ENDBRANCH   1   2
BRANCH   1   9
ATOM      8  N   UNL     1      -5.137   0.149   0.596  0.00  0.00    -0.284 N 
ATOM      9  C   UNL     1      -4.059  -0.533   0.159  0.00  0.00    +0.235 C 
ATOM     10  O   UNL     1      -4.161  -1.705  -0.133  0.00  0.00    -0.274 OA
ATOM     11  H   UNL     1      -5.042   1.068   0.893  0.00  0.00    +0.155 HD
BRANCH   8  15
ATOM     12  C   UNL     1      -8.880  -1.688   0.668  0.00  0.00    +0.138 A 
ATOM     13  C   UNL     1      -8.776  -0.337   0.371  0.00  0.00    +0.049 A 
ATOM     14  C   UNL     1      -7.537   0.273   0.352  0.00  0.00    +0.027 A 
ATOM     15  C   UNL     1      -6.394  -0.468   0.620  0.00  0.00    +0.035 A 
ATOM     16  C   UNL     1      -6.498  -1.820   0.917  0.00  0.00    +0.047 A 
ATOM     17  C   UNL     1      -7.739  -2.429   0.941  0.00  0.00    +0.084 A 
ATOM     18 CL   UNL     1      -7.870  -4.119   1.312  0.00  0.00    -0.080 Cl
BRANCH  12  20
ATOM     19  C   UNL     1     -11.233  -1.464   0.400  0.00  0.00    +0.277 C 
ATOM     20  O   UNL     1     -10.101  -2.286   0.691  0.00  0.00    -0.494 OA
ENDBRANCH  12  20
ENDBRANCH   8  15
ENDBRANCH   1   9
BRANCH   1  21
ATOM     21  S   UNL     1      -1.404  -1.072   0.011  0.00  0.00    -0.067 S 
BRANCH  21  22
ATOM     22  C   UNL     1       0.003  -0.011   0.015  0.00  0.00    +0.210 A 
ATOM     23  N   UNL     1      -0.012   1.303   0.030  0.00  0.00    -0.120 NA
ATOM     24  N   UNL     1       1.190   1.759   0.028  0.00  0.00    -0.123 NA
ATOM     25  C   UNL     1       2.048   0.763   0.010  0.00  0.00    +0.217 A 
ATOM     26  N   UNL     1       1.313  -0.402   0.001  0.00  0.00    -0.221 N 
BRANCH  25  27
ATOM     27  C   UNL     1       3.515   0.872   0.002  0.00  0.00    +0.173 A 
ATOM     28  C   UNL     1       4.232   1.996  -0.281  0.00  0.00    +0.053 A 
ATOM     29  C   UNL     1       5.592   1.648  -0.169  0.00  0.00    +0.042 A 
ATOM     30  C   UNL     1       5.640   0.343   0.164  0.00  0.00    +0.196 A 
ATOM     31  O   UNL     1       4.384  -0.123   0.266  0.00  0.00    -0.460 OA
ENDBRANCH  25  27
BRANCH  26  32
ATOM     32  N   UNL     1       1.793  -1.681  -0.018  0.00  0.00    -0.294 N 
ATOM     33  H   UNL     1       1.913  -2.008  -0.965  0.00  0.00    +0.163 HD
ATOM     34  H   UNL     1       2.655  -1.751   0.501  0.00  0.00    +0.163 HD
ENDBRANCH  26  32
ENDBRANCH  21  22
ENDBRANCH   1  21
TORSDOF 8
