REMARK  Name = ZINC12566570
REMARK  2 active torsions:
REMARK  status: ('A' for Active; 'I' for Inactive)
REMARK    1  A    between atoms: C_8  and  N_9
REMARK    2  A    between atoms: N_25  and  C_28
REMARK                            x       y       z     vdW  Elec       q    Type
REMARK                         _______ _______ _______ _____ _____    ______ ____
ROOT
ATOM      1  C   UNL     1       1.171   2.105  -0.035  0.00  0.00    +0.001 A 
ATOM      2  C   UNL     1      -0.013   1.382  -0.021  0.00  0.00    +0.001 A 
ATOM      3  C   UNL     1       0.004   0.004  -0.017  0.00  0.00    +0.014 A 
ATOM      4  C   UNL     1       1.224  -0.672  -0.027  0.00  0.00    +0.046 A 
ATOM      5  C   UNL     1       2.426   0.066  -0.040  0.00  0.00    +0.000 A 
ATOM      6  C   UNL     1       2.389   1.456  -0.044  0.00  0.00    +0.009 A 
ATOM      7  C   UNL     1       3.702  -0.678  -0.050  0.00  0.00    +0.059 C 
ATOM      8  C   UNL     1       4.909  -0.016  -0.063  0.00  0.00    +0.087 C 
ATOM      9  C   UNL     1       3.645  -2.145  -0.044  0.00  0.00    +0.259 C 
ATOM     10  O   UNL     1       4.679  -2.788  -0.051  0.00  0.00    -0.269 OA
ATOM     11  N   UNL     1       2.464  -2.784  -0.031  0.00  0.00    -0.201 N 
ATOM     12  C   UNL     1       1.286  -2.139  -0.022  0.00  0.00    +0.258 C 
ATOM     13  O   UNL     1       0.253  -2.781  -0.010  0.00  0.00    -0.269 OA
ENDROOT
BRANCH   8  14
ATOM     14  N   UNL     1       6.072  -0.717   0.044  0.00  0.00    -0.304 N 
ATOM     15  C   UNL     1       7.280  -0.044   0.140  0.00  0.00    +0.134 A 
ATOM     16  C   UNL     1       8.508  -0.762   0.126  0.00  0.00    +0.051 A 
ATOM     17  C   UNL     1       8.724  -2.205   0.006  0.00  0.00    -0.025 A 
ATOM     18  C   UNL     1      10.003  -2.634   0.013  0.00  0.00    -0.004 A 
ATOM     19  S   UNL     1      10.984  -1.166   0.171  0.00  0.00    -0.073 S 
ATOM     20  C   UNL     1       9.672   0.027   0.227  0.00  0.00    +0.114 A 
ATOM     21  N   UNL     1       9.608   1.339   0.335  0.00  0.00    -0.228 NA
ATOM     22  C   UNL     1       8.438   1.949   0.346  0.00  0.00    +0.224 A 
ATOM     23  N   UNL     1       7.307   1.274   0.251  0.00  0.00    -0.220 NA
ATOM     24  C   UNL     1      10.485  -4.049  -0.091  0.00  0.00    +0.043 C 
ATOM     25  C   UNL     1       9.296  -4.987   0.165  0.00  0.00    +0.005 C 
ATOM     26  C   UNL     1       8.107  -4.513  -0.676  0.00  0.00    +0.005 C 
ATOM     27  C   UNL     1       7.569  -3.195  -0.118  0.00  0.00    +0.037 C 
ATOM     28  H   UNL     1       6.052  -1.817   0.054  0.00  0.00    +0.153 HD
ENDBRANCH   8  14
BRANCH  11  29
ATOM     29  C   UNL     1       2.461  -4.186  -0.026  0.00  0.00    +0.063 A 
ATOM     30  C   UNL     1       2.470  -4.877   1.178  0.00  0.00    +0.025 A 
ATOM     31  C   UNL     1       2.466  -6.258   1.180  0.00  0.00    +0.002 A 
ATOM     32  C   UNL     1       2.454  -6.953  -0.016  0.00  0.00    +0.002 A 
ATOM     33  C   UNL     1       2.446  -6.268  -1.217  0.00  0.00    +0.022 A 
ATOM     34  C   UNL     1       2.443  -4.886  -1.226  0.00  0.00    +0.063 A 
ATOM     35 CL   UNL     1       2.424  -4.026  -2.734  0.00  0.00    -0.082 Cl
ENDBRANCH  11  29
TORSDOF 2
