REMARK  Name = ZINC40360484
REMARK  17 active torsions:
REMARK  status: ('A' for Active; 'I' for Inactive)
REMARK    1  A    between atoms: C_1  and  C_2
REMARK    2  A    between atoms: C_2  and  C_3
REMARK    3  A    between atoms: C_3  and  C_4
REMARK    4  A    between atoms: C_4  and  C_5
REMARK    5  A    between atoms: C_5  and  C_7
REMARK    6  A    between atoms: C_5  and  C_9
REMARK    7  A    between atoms: C_7  and  C_8
REMARK    8  A    between atoms: N_11  and  C_12
REMARK    9  A    between atoms: N_11  and  C_17
REMARK   10  A    between atoms: C_12  and  C_13
REMARK   11  A    between atoms: C_13  and  N_14
REMARK   12  A    between atoms: N_14  and  C_15
REMARK   13  A    between atoms: N_14  and  C_16
REMARK   14  A    between atoms: C_17  and  C_19
REMARK   15  A    between atoms: C_17  and  C_20
REMARK   16  A    between atoms: N_30  and  C_31
REMARK   17  A    between atoms: C_36  and  C_37
REMARK                            x       y       z     vdW  Elec       q    Type
REMARK                         _______ _______ _______ _____ _____    ______ ____
ROOT
ATOM      1  C   UNL     1       1.548  -5.738  -5.564  0.00  0.00    +0.138 A 
ATOM      2  N   UNL     1       2.592  -5.367  -6.241  0.00  0.00    -0.231 NA
ATOM      3  C   UNL     1       2.529  -5.139  -7.577  0.00  0.00    +0.078 A 
ATOM      4  C   UNL     1       3.652  -4.741  -8.305  0.00  0.00    +0.028 A 
ATOM      5  C   UNL     1       3.543  -4.520  -9.660  0.00  0.00    +0.002 A 
ATOM      6  C   UNL     1       2.329  -4.689 -10.313  0.00  0.00    +0.001 A 
ATOM      7  C   UNL     1       1.207  -5.081  -9.616  0.00  0.00    +0.015 A 
ATOM      8  C   UNL     1       1.296  -5.310  -8.245  0.00  0.00    +0.065 A 
ATOM      9  C   UNL     1       0.133  -5.731  -7.450  0.00  0.00    +0.266 A 
ATOM     10  O   UNL     1      -0.958  -5.896  -7.964  0.00  0.00    -0.267 OA
ATOM     11  N   UNL     1       0.323  -5.932  -6.125  0.00  0.00    -0.263 N 
ENDROOT
BRANCH  11  12
ATOM     12  C   UNL     1      -0.751  -6.338  -5.323  0.00  0.00    +0.054 A 
ATOM     13  C   UNL     1      -1.607  -5.392  -4.775  0.00  0.00    +0.028 A 
ATOM     14  C   UNL     1      -2.665  -5.795  -3.984  0.00  0.00    +0.022 A 
ATOM     15  C   UNL     1      -2.873  -7.141  -3.739  0.00  0.00    +0.041 A 
ATOM     16  C   UNL     1      -2.022  -8.086  -4.284  0.00  0.00    +0.025 A 
ATOM     17  C   UNL     1      -0.966  -7.688  -5.080  0.00  0.00    -0.025 A 
ATOM     18  C   UNL     1      -0.043  -8.719  -5.679  0.00  0.00    +0.046 C 
ATOM     19 CL   UNL     1      -4.204  -7.644  -2.744  0.00  0.00    -0.084 Cl
ENDBRANCH  11  12
BRANCH   1  20
ATOM     20  C   UNL     1       1.701  -5.972  -4.083  0.00  0.00    +0.139 C 
ATOM     21  C   UNL     1       2.839  -6.965  -3.839  0.00  0.00    +0.036 C 
BRANCH  20  24
ATOM     22  C   UNL     1       1.182  -4.223  -2.468  0.00  0.00    +0.219 C 
ATOM     23  O   UNL     1       0.140  -4.794  -2.226  0.00  0.00    -0.275 OA
ATOM     24  N   UNL     1       2.009  -4.704  -3.418  0.00  0.00    -0.293 N 
BRANCH  22  25
ATOM     25  C   UNL     1       1.554  -2.977  -1.706  0.00  0.00    +0.075 C 
BRANCH  25  26
ATOM     26  C   UNL     1       1.060  -3.095  -0.263  0.00  0.00    +0.009 C 
ATOM     27  C   UNL     1       1.810  -4.228   0.441  0.00  0.00    +0.004 C 
ENDBRANCH  25  26
BRANCH  25  28
ATOM     28  C   UNL     1       0.903  -1.761  -2.370  0.00  0.00    +0.013 C 
BRANCH  28  29
ATOM     29  C   UNL     1       1.379  -0.485  -1.673  0.00  0.00    +0.000 C 
BRANCH  29  31
ATOM     30  C   UNL     1       1.205   2.007  -1.640  0.00  0.00    +0.004 C 
ATOM     31  C   UNL     1       0.729   0.731  -2.336  0.00  0.00    -0.003 C 
ENDBRANCH  29  31
ENDBRANCH  28  29
ENDBRANCH  25  28
ENDBRANCH  22  25
BRANCH  24  32
ATOM     32  C   UNL     1       3.215  -3.957  -3.786  0.00  0.00    +0.090 C 
BRANCH  32  33
ATOM     33  C   UNL     1       4.355  -4.333  -2.838  0.00  0.00    -0.060 C 
BRANCH  33  34
ATOM     34  N   UNL     1       5.530  -3.500  -3.131  0.00  0.00    +0.377 N 
ATOM     35  C   UNL     1       6.580  -3.769  -2.140  0.00  0.00    -0.097 C 
ATOM     36  C   UNL     1       6.031  -3.817  -4.475  0.00  0.00    -0.097 C 
ATOM     37  H   UNL     1       5.270  -2.526  -3.090  0.00  0.00    -0.083 HD
ENDBRANCH  33  34
ENDBRANCH  32  33
ENDBRANCH  24  32
ENDBRANCH  20  24
ENDBRANCH   1  20
TORSDOF 11
