REMARK  Name = ZINC59416906
REMARK  9 active torsions:
REMARK  status: ('A' for Active; 'I' for Inactive)
REMARK    1  A    between atoms: C_1  and  O_2
REMARK    2  A    between atoms: O_2  and  C_3
REMARK    3  A    between atoms: C_7  and  N_10
REMARK    4  A    between atoms: C_11  and  C_13
REMARK    5  A    between atoms: C_13  and  N_14
REMARK    6  A    between atoms: N_14  and  C_15
REMARK    7  A    between atoms: N_14  and  C_18
REMARK    8  A    between atoms: C_15  and  C_16
REMARK    9  A    between atoms: C_18  and  C_19
REMARK                            x       y       z     vdW  Elec       q    Type
REMARK                         _______ _______ _______ _____ _____    ______ ____
ROOT
ATOM      1  N   UNL     1       0.262  -2.422   4.257  0.00  0.00    -0.285 N 
ATOM      2  C   UNL     1       0.799  -2.730   5.454  0.00  0.00    +0.201 C 
ATOM      3  O   UNL     1       2.004  -2.796   5.579  0.00  0.00    -0.278 OA
ATOM      4  H   UNL     1      -0.699  -2.319   4.169  0.00  0.00    +0.155 HD
ENDROOT
BRANCH   1   9
ATOM      5  C   UNL     1       2.932  -2.983   1.785  0.00  0.00    +0.150 A 
ATOM      6  C   UNL     1       2.725  -1.909   0.930  0.00  0.00    +0.062 A 
ATOM      7  C   UNL     1       1.704  -1.011   1.179  0.00  0.00    +0.036 A 
ATOM      8  C   UNL     1       0.886  -1.179   2.281  0.00  0.00    +0.041 A 
ATOM      9  C   UNL     1       1.089  -2.252   3.141  0.00  0.00    +0.065 A 
ATOM     10  C   UNL     1       2.111  -3.158   2.888  0.00  0.00    +0.083 A 
ATOM     11 BR   UNL     1       2.386  -4.623   4.051  0.00  0.00    -0.045 Br
ATOM     12 BR   UNL     1      -0.509   0.052   2.620  0.00  0.00    -0.048 Br
ATOM     13 BR   UNL     1       3.841  -1.674  -0.579  0.00  0.00    -0.046 Br
BRANCH   5  15
ATOM     14  C   UNL     1       3.623  -4.992   0.717  0.00  0.00    +0.277 C 
ATOM     15  O   UNL     1       3.937  -3.865   1.538  0.00  0.00    -0.493 OA
ENDBRANCH   5  15
ENDBRANCH   1   9
BRANCH   2  16
ATOM     16  C   UNL     1      -0.096  -2.991   6.638  0.00  0.00    +0.020 C 
BRANCH  16  17
ATOM     17  N   UNL     1       0.724  -3.159   7.845  0.00  0.00    +0.390 N 
ATOM     18  H   UNL     1       1.425  -3.866   7.679  0.00  0.00    -0.080 HD
BRANCH  17  19
ATOM     19  C   UNL     1       1.381  -1.887   8.172  0.00  0.00    -0.051 C 
BRANCH  19  20
ATOM     20  C   UNL     1       2.317  -2.089   9.336  0.00  0.00    -0.053 C 
ATOM     21  C   UNL     1       3.578  -1.751   9.228  0.00  0.00    +0.002 C 
ENDBRANCH  19  20
ENDBRANCH  17  19
BRANCH  17  22
ATOM     22  C   UNL     1      -0.132  -3.572   8.965  0.00  0.00    -0.051 C 
BRANCH  22  23
ATOM     23  C   UNL     1      -0.694  -4.943   8.690  0.00  0.00    -0.053 C 
ATOM     24  C   UNL     1      -0.521  -5.908   9.558  0.00  0.00    +0.002 C 
ENDBRANCH  22  23
ENDBRANCH  17  22
ENDBRANCH  16  17
ENDBRANCH   2  16
TORSDOF 8
