REMARK  Name = ZINC39558552
REMARK  5 active torsions:
REMARK  status: ('A' for Active; 'I' for Inactive)
REMARK    1  A    between atoms: C_1  and  C_2
REMARK    2  A    between atoms: C_9  and  C_14
REMARK    3  A    between atoms: N_16  and  C_17
REMARK    4  A    between atoms: C_17  and  C_18
REMARK    5  A    between atoms: N_20  and  C_21
REMARK                            x       y       z     vdW  Elec       q    Type
REMARK                         _______ _______ _______ _____ _____    ______ ____
ROOT
ATOM      1  C   UNL     1      -0.824  -6.371   1.679  0.00  0.00    +0.245 C 
ATOM      2  O   UNL     1      -1.914  -6.699   1.250  0.00  0.00    -0.270 OA
ATOM      3  N   UNL     1       0.003  -7.300   2.198  0.00  0.00    -0.303 N 
ATOM      4  H   UNL     1       0.872  -7.038   2.541  0.00  0.00    +0.150 HD
ENDROOT
BRANCH   1  12
ATOM      5  C   UNL     1      -0.025   1.525   0.007  0.00  0.00    +0.029 C 
ATOM      6  C   UNL     1      -0.006  -0.005  -0.000  0.00  0.00    +0.134 C 
ATOM      7  C   UNL     1      -1.417  -0.527   0.029  0.00  0.00    +0.230 C 
ATOM      8  O   UNL     1      -2.298   0.180  -0.414  0.00  0.00    -0.274 OA
ATOM      9  N   UNL     1      -1.752  -1.720   0.512  0.00  0.00    -0.284 N 
ATOM     10  C   UNL     1      -0.881  -2.666   1.048  0.00  0.00    +0.048 A 
ATOM     11  C   UNL     1      -1.267  -3.995   1.095  0.00  0.00    +0.037 A 
ATOM     12  C   UNL     1      -0.409  -4.957   1.632  0.00  0.00    +0.039 A 
ATOM     13  C   UNL     1       0.844  -4.581   2.127  0.00  0.00    +0.014 A 
ATOM     14  C   UNL     1       1.230  -3.260   2.080  0.00  0.00    +0.017 A 
ATOM     15  C   UNL     1       0.377  -2.304   1.543  0.00  0.00    +0.030 A 
ATOM     16  S   UNL     1       0.876  -0.611   1.470  0.00  0.00    -0.111 S 
ATOM     17  H   UNL     1      -2.693  -1.953   0.490  0.00  0.00    +0.155 HD
ENDBRANCH   1  12
BRANCH   3  18
ATOM     18  C   UNL     1      -0.410  -8.705   2.245  0.00  0.00    +0.200 C 
BRANCH  18  19
ATOM     19  C   UNL     1       0.687  -9.530   2.866  0.00  0.00    +0.234 C 
ATOM     20  O   UNL     1       1.713  -8.998   3.234  0.00  0.00    -0.274 OA
ATOM     21  N   UNL     1       0.528 -10.861   3.013  0.00  0.00    -0.284 N 
ATOM     22  H   UNL     1      -0.317 -11.277   2.781  0.00  0.00    +0.155 HD
BRANCH  21  23
ATOM     23  C   UNL     1       1.583 -11.642   3.501  0.00  0.00    +0.036 A 
ATOM     24  C   UNL     1       1.773 -12.932   3.017  0.00  0.00    +0.025 A 
ATOM     25  C   UNL     1       2.811 -13.707   3.494  0.00  0.00    +0.029 A 
ATOM     26  C   UNL     1       3.668 -13.199   4.458  0.00  0.00    +0.067 A 
ATOM     27  C   UNL     1       3.480 -11.904   4.946  0.00  0.00    +0.069 A 
ATOM     28  C   UNL     1       2.440 -11.126   4.461  0.00  0.00    +0.051 A 
ATOM     29  N   UNL     1       4.481 -11.680   5.888  0.00  0.00    -0.306 N 
ATOM     30  H   UNL     1       4.608 -10.865   6.399  0.00  0.00    +0.170 HD
ATOM     31  C   UNL     1       5.243 -12.787   5.971  0.00  0.00    +0.325 A 
ATOM     32  O   UNL     1       6.206 -12.922   6.702  0.00  0.00    -0.247 OA
ATOM     33  N   UNL     1       4.778 -13.721   5.120  0.00  0.00    -0.306 N 
ATOM     34  H   UNL     1       5.152 -14.607   4.990  0.00  0.00    +0.170 HD
ENDBRANCH  21  23
ENDBRANCH  18  19
ENDBRANCH   3  18
TORSDOF 4
