REMARK  Name = ZINC57291890
REMARK  13 active torsions:
REMARK  status: ('A' for Active; 'I' for Inactive)
REMARK    1  A    between atoms: C_1  and  C_2
REMARK    2  A    between atoms: C_2  and  C_3
REMARK    3  A    between atoms: C_2  and  N_4
REMARK    4  A    between atoms: C_5  and  C_24
REMARK    5  A    between atoms: C_8  and  S_9
REMARK    6  A    between atoms: S_9  and  C_10
REMARK    7  A    between atoms: C_10  and  C_11
REMARK    8  A    between atoms: C_11  and  C_13
REMARK    9  A    between atoms: C_16  and  O_22
REMARK   10  A    between atoms: C_17  and  O_21
REMARK   11  A    between atoms: C_18  and  O_19
REMARK   12  A    between atoms: O_19  and  C_20
REMARK   13  A    between atoms: O_22  and  C_23
REMARK                            x       y       z     vdW  Elec       q    Type
REMARK                         _______ _______ _______ _____ _____    ______ ____
ROOT
ATOM      1  N   UNL     1      -1.372  -0.511   0.012  0.00  0.00    -0.297 N 
ATOM      2  C   UNL     1      -1.971  -1.314  -0.934  0.00  0.00    +0.201 A 
ATOM      3  N   UNL     1      -3.204  -1.529  -0.532  0.00  0.00    -0.125 NA
ATOM      4  N   UNL     1      -3.413  -0.925   0.583  0.00  0.00    -0.122 NA
ATOM      5  C   UNL     1      -2.326  -0.292   0.965  0.00  0.00    +0.193 A 
ENDROOT
BRANCH   2   6
ATOM      6  C   UNL     1      -1.348  -1.832  -2.162  0.00  0.00    +0.173 A 
ATOM      7  C   UNL     1      -1.849  -2.835  -2.929  0.00  0.00    +0.061 A 
ATOM      8  C   UNL     1      -0.906  -3.009  -4.035  0.00  0.00    +0.021 A 
ATOM      9  C   UNL     1      -0.849  -3.860  -5.140  0.00  0.00    +0.011 A 
ATOM     10  C   UNL     1       0.198  -3.766  -6.014  0.00  0.00    +0.001 A 
ATOM     11  C   UNL     1       1.203  -2.832  -5.809  0.00  0.00    +0.004 A 
ATOM     12  C   UNL     1       1.164  -1.982  -4.723  0.00  0.00    +0.047 A 
ATOM     13  C   UNL     1       0.110  -2.059  -3.822  0.00  0.00    +0.136 A 
ATOM     14  O   UNL     1      -0.198  -1.378  -2.699  0.00  0.00    -0.452 OA
ENDBRANCH   2   6
BRANCH   1  16
ATOM     15  C   UNL     1      -0.019   1.526   0.010  0.00  0.00    +0.030 C 
ATOM     16  C   UNL     1       0.002  -0.004   0.002  0.00  0.00    +0.085 C 
ATOM     17  C   UNL     1       0.742  -0.511   1.242  0.00  0.00    +0.030 C 
ENDBRANCH   1  16
BRANCH   5  18
ATOM     18  S   UNL     1      -2.136   0.665   2.433  0.00  0.00    -0.078 S 
BRANCH  18  19
ATOM     19  C   UNL     1      -3.754   0.551   3.244  0.00  0.00    +0.157 C 
BRANCH  19  20
ATOM     20  C   UNL     1      -3.728   1.337   4.530  0.00  0.00    +0.177 C 
ATOM     21  O   UNL     1      -2.717   1.917   4.865  0.00  0.00    -0.291 OA
BRANCH  20  22
ATOM     22  C   UNL     1      -4.924   1.400   5.374  0.00  0.00    +0.064 A 
ATOM     23  C   UNL     1      -6.092   0.726   4.992  0.00  0.00    +0.019 A 
ATOM     24  C   UNL     1      -7.205   0.784   5.779  0.00  0.00    +0.050 A 
ATOM     25  C   UNL     1      -7.193   1.512   6.965  0.00  0.00    +0.165 A 
ATOM     26  C   UNL     1      -6.044   2.188   7.361  0.00  0.00    +0.202 A 
ATOM     27  C   UNL     1      -4.903   2.132   6.574  0.00  0.00    +0.175 A 
BRANCH  27  28
ATOM     28  O   UNL     1      -3.776   2.785   6.956  0.00  0.00    -0.491 OA
ATOM     29  C   UNL     1      -3.626   4.135   6.512  0.00  0.00    +0.277 C 
ENDBRANCH  27  28
BRANCH  26  30
ATOM     30  O   UNL     1      -6.037   2.898   8.522  0.00  0.00    -0.501 OA
ATOM     31  H   UNL     1      -5.764   2.386   9.295  0.00  0.00    +0.292 HD
ENDBRANCH  26  30
BRANCH  25  32
ATOM     32  O   UNL     1      -8.307   1.562   7.739  0.00  0.00    -0.491 OA
ATOM     33  C   UNL     1      -9.453   0.846   7.273  0.00  0.00    +0.277 C 
ENDBRANCH  25  32
ENDBRANCH  20  22
ENDBRANCH  19  20
ENDBRANCH  18  19
ENDBRANCH   5  18
TORSDOF 9
