REMARK  Name = ZINC52909811
REMARK  11 active torsions:
REMARK  status: ('A' for Active; 'I' for Inactive)
REMARK    1  A    between atoms: C_1  and  C_2
REMARK    2  A    between atoms: C_5  and  N_9
REMARK    3  A    between atoms: C_10  and  C_12
REMARK    4  A    between atoms: C_12  and  C_14
REMARK    5  A    between atoms: C_12  and  N_15
REMARK    6  A    between atoms: C_18  and  N_21
REMARK    7  A    between atoms: C_22  and  O_24
REMARK    8  A    between atoms: O_24  and  C_25
REMARK    9  A    between atoms: C_25  and  C_26
REMARK   10  A    between atoms: C_25  and  C_27
REMARK   11  A    between atoms: C_25  and  C_28
REMARK                            x       y       z     vdW  Elec       q    Type
REMARK                         _______ _______ _______ _____ _____    ______ ____
ROOT
ATOM      1  N   UNL     1      -0.114  -6.834  -2.575  0.00  0.00    +0.387 N 
ATOM      2  C   UNL     1      -0.076  -8.302  -2.572  0.00  0.00    -0.076 C 
ATOM      3  C   UNL     1       0.030  -8.816  -4.009  0.00  0.00    +0.004 C 
ATOM      4  C   UNL     1      -1.186  -8.337  -4.807  0.00  0.00    +0.073 C 
ATOM      5  C   UNL     1      -1.258  -6.809  -4.742  0.00  0.00    +0.004 C 
ATOM      6  C   UNL     1      -1.315  -6.369  -3.277  0.00  0.00    -0.076 C 
ATOM      7  H   UNL     1       0.707  -6.480  -3.043  0.00  0.00    -0.081 HD
ENDROOT
BRANCH   4   8
ATOM      8  N   UNL     1      -1.054  -8.762  -6.203  0.00  0.00    -0.278 N 
ATOM      9  C   UNL     1      -2.154  -8.918  -6.966  0.00  0.00    +0.401 C 
ATOM     10  O   UNL     1      -3.255  -8.707  -6.497  0.00  0.00    -0.226 OA
ATOM     11  H   UNL     1      -0.176  -8.931  -6.577  0.00  0.00    +0.152 HD
BRANCH   9  12
ATOM     12  O   UNL     1      -2.033  -9.309  -8.249  0.00  0.00    -0.445 OA
BRANCH  12  13
ATOM     13  C   UNL     1      -3.240  -9.454  -9.000  0.00  0.00    +0.107 C 
ATOM     14  C   UNL     1      -3.976  -8.114  -9.046  0.00  0.00    +0.055 C 
ATOM     15  C   UNL     1      -2.904  -9.901 -10.424  0.00  0.00    +0.055 C 
ATOM     16  C   UNL     1      -4.132 -10.503  -8.333  0.00  0.00    +0.055 C 
ENDBRANCH  12  13
ENDBRANCH   9  12
ENDBRANCH   4   8
BRANCH   1  17
ATOM     17  C   UNL     1      -0.136  -6.343  -1.191  0.00  0.00    +0.016 C 
ATOM     18  C   UNL     1       1.083  -6.882  -0.439  0.00  0.00    -0.004 C 
BRANCH  17  20
ATOM     19  N   UNL     1      -0.659  -4.149  -0.176  0.00  0.00    -0.286 N 
ATOM     20  C   UNL     1      -0.100  -4.837  -1.191  0.00  0.00    +0.203 C 
ATOM     21  O   UNL     1       0.431  -4.243  -2.106  0.00  0.00    -0.277 OA
ATOM     22  H   UNL     1      -1.027  -4.623   0.586  0.00  0.00    +0.155 HD
BRANCH  19  27
ATOM     23  C   UNL     1      -0.856   1.519  -0.360  0.00  0.00    +0.044 C 
ATOM     24  C   UNL     1      -0.804   0.014  -0.311  0.00  0.00    -0.049 A 
ATOM     25  C   UNL     1       0.224  -0.662  -0.943  0.00  0.00    +0.005 A 
ATOM     26  C   UNL     1       0.275  -2.042  -0.900  0.00  0.00    +0.025 A 
ATOM     27  C   UNL     1      -0.707  -2.751  -0.221  0.00  0.00    +0.052 A 
ATOM     28  C   UNL     1      -1.739  -2.069   0.414  0.00  0.00    +0.062 A 
ATOM     29  C   UNL     1      -1.781  -0.688   0.371  0.00  0.00    +0.025 A 
ATOM     30 CL   UNL     1      -2.969  -2.950   1.265  0.00  0.00    -0.082 Cl
ENDBRANCH  19  27
ENDBRANCH  17  20
ENDBRANCH   1  17
TORSDOF 6
