REMARK  Name = ZINC01838265
REMARK  10 active torsions:
REMARK  status: ('A' for Active; 'I' for Inactive)
REMARK    1  A    between atoms: C_1  and  C_2
REMARK    2  A    between atoms: C_13  and  O_30
REMARK    3  A    between atoms: C_17  and  C_29
REMARK    4  A    between atoms: C_22  and  C_28
REMARK    5  A    between atoms: C_23  and  C_25
REMARK    6  A    between atoms: C_25  and  C_27
REMARK    7  A    between atoms: O_30  and  C_31
REMARK    8  A    between atoms: C_31  and  C_33
REMARK    9  A    between atoms: C_33  and  C_34
REMARK   10  A    between atoms: C_34  and  N_35
REMARK                            x       y       z     vdW  Elec       q    Type
REMARK                         _______ _______ _______ _____ _____    ______ ____
ROOT
ATOM      1  C   UNL     1      -0.115   1.356  -0.182  0.00  0.00    +0.008 C 
ATOM      2  C   UNL     1       0.025  -0.164  -0.069  0.00  0.00    -0.003 C 
ATOM      3  C   UNL     1       0.876  -0.714  -1.228  0.00  0.00    +0.008 C 
ATOM      4  C   UNL     1       2.176  -1.274  -0.591  0.00  0.00    -0.000 C 
ATOM      5  C   UNL     1       3.204  -0.149  -0.571  0.00  0.00    +0.000 C 
ATOM      6  C   UNL     1       3.587   0.284  -1.982  0.00  0.00    +0.031 C 
ATOM      7  C   UNL     1       4.485  -0.733  -2.619  0.00  0.00    -0.027 C 
ATOM      8  C   UNL     1       5.254  -1.532  -1.945  0.00  0.00    -0.064 C 
ATOM      9  C   UNL     1       6.180  -2.458  -2.715  0.00  0.00    +0.075 C 
ATOM     10  C   UNL     1       7.613  -2.180  -2.249  0.00  0.00    +0.180 C 
ATOM     11  C   UNL     1       7.703  -2.338  -0.732  0.00  0.00    +0.046 C 
ATOM     12  C   UNL     1       6.778  -1.354  -0.024  0.00  0.00    +0.015 C 
ATOM     13  C   UNL     1       5.316  -1.575  -0.443  0.00  0.00    -0.008 C 
ATOM     14  C   UNL     1       4.442  -0.535   0.219  0.00  0.00    +0.003 C 
ATOM     15  C   UNL     1       4.074  -0.858   1.657  0.00  0.00    +0.005 C 
ATOM     16  C   UNL     1       2.878  -1.765   1.829  0.00  0.00    +0.008 C 
ATOM     17  C   UNL     1       1.753  -1.629   0.843  0.00  0.00    -0.019 C 
ATOM     18  C   UNL     1       0.746  -0.538   1.240  0.00  0.00    +0.064 C 
ATOM     19  C   UNL     1       0.996  -2.968   0.797  0.00  0.00    +0.012 C 
ATOM     20  C   UNL     1       4.916  -2.982  -0.003  0.00  0.00    +0.016 C 
ENDROOT
BRANCH  18  21
ATOM     21  C   UNL     1      -0.247  -1.086   2.233  0.00  0.00    +0.134 C 
ATOM     22  O   UNL     1      -1.245  -1.645   1.845  0.00  0.00    -0.297 OA
ATOM     23  C   UNL     1       0.005  -0.936   3.712  0.00  0.00    +0.086 C 
ENDBRANCH  18  21
BRANCH  10  24
ATOM     24  O   UNL     1       8.503  -3.106  -2.878  0.00  0.00    -0.461 OA
BRANCH  24  25
ATOM     25  C   UNL     1       9.031  -2.738  -4.056  0.00  0.00    +0.306 C 
ATOM     26  O   UNL     1       8.748  -1.666  -4.537  0.00  0.00    -0.251 OA
BRANCH  25  27
ATOM     27  C   UNL     1       9.978  -3.661  -4.778  0.00  0.00    +0.102 C 
BRANCH  27  28
ATOM     28  C   UNL     1      10.431  -3.007  -6.085  0.00  0.00    -0.068 C 
BRANCH  28  29
ATOM     29  N   UNL     1      11.354  -3.907  -6.789  0.00  0.00    +0.380 N 
ATOM     30  C   UNL     1      12.572  -4.079  -5.989  0.00  0.00    -0.079 C 
ATOM     31  C   UNL     1      13.503  -5.079  -6.679  0.00  0.00    -0.019 C 
ATOM     32  C   UNL     1      13.873  -4.550  -8.068  0.00  0.00    -0.004 C 
ATOM     33  C   UNL     1      12.590  -4.303  -8.867  0.00  0.00    -0.019 C 
ATOM     34  C   UNL     1      11.694  -3.332  -8.096  0.00  0.00    -0.079 C 
ATOM     35  H   UNL     1      10.912  -4.804  -6.922  0.00  0.00    -0.082 HD
ENDBRANCH  28  29
ENDBRANCH  27  28
ENDBRANCH  25  27
ENDBRANCH  24  25
ENDBRANCH  10  24
TORSDOF 6
