REMARK  Name = ZINC12832915
REMARK  17 active torsions:
REMARK  status: ('A' for Active; 'I' for Inactive)
REMARK    1  A    between atoms: C_1  and  C_2
REMARK    2  A    between atoms: C_7  and  C_15
REMARK    3  A    between atoms: C_13  and  C_14
REMARK    4  A    between atoms: C_15  and  N_73
REMARK    5  A    between atoms: C_16  and  C_17
REMARK    6  A    between atoms: C_16  and  N_73
REMARK    7  A    between atoms: C_17  and  C_18
REMARK    8  A    between atoms: C_21  and  O_26
REMARK    9  A    between atoms: C_22  and  O_24
REMARK   10  A    between atoms: O_24  and  C_25
REMARK   11  A    between atoms: O_26  and  C_27
REMARK   12  A    between atoms: C_28  and  C_29
REMARK   13  A    between atoms: C_28  and  N_73
REMARK   14  A    between atoms: N_33  and  C_34
REMARK   15  A    between atoms: C_34  and  C_35
REMARK   16  A    between atoms: C_34  and  C_36
REMARK   17  A    between atoms: C_34  and  C_37
REMARK                            x       y       z     vdW  Elec       q    Type
REMARK                         _______ _______ _______ _____ _____    ______ ____
ROOT
ATOM      1  N   UNL     1      -0.568   1.266  -2.625  0.00  0.00    +0.387 N 
ATOM      2  H   UNL     1       0.401   1.443  -2.916  0.00  0.00    -0.081 HD
ENDROOT
BRANCH   1   3
ATOM      3  C   UNL     1      -1.483   1.933  -3.574  0.00  0.00    -0.037 C 
BRANCH   3  10
ATOM      4  C   UNL     1      -0.310  -0.968 -10.911  0.00  0.00    +0.044 C 
ATOM      5  C   UNL     1      -0.704  -0.577  -9.509  0.00  0.00    -0.046 A 
ATOM      6  C   UNL     1      -1.749  -1.239  -8.880  0.00  0.00    +0.004 A 
ATOM      7  C   UNL     1      -2.122  -0.900  -7.610  0.00  0.00    +0.010 A 
ATOM      8  C   UNL     1      -1.444   0.122  -6.938  0.00  0.00    -0.001 A 
ATOM      9  C   UNL     1      -1.814   0.507  -5.574  0.00  0.00    +0.017 A 
ATOM     10  C   UNL     1      -1.125   1.510  -4.975  0.00  0.00    +0.001 A 
ATOM     11  C   UNL     1      -0.070   2.153  -5.656  0.00  0.00    +0.251 A 
ATOM     12  O   UNL     1       0.539   3.049  -5.097  0.00  0.00    -0.268 OA
ATOM     13  N   UNL     1       0.280   1.804  -6.907  0.00  0.00    -0.322 N 
ATOM     14  H   UNL     1       1.010   2.267  -7.346  0.00  0.00    +0.169 HD
ATOM     15  C   UNL     1      -0.384   0.796  -7.573  0.00  0.00    +0.052 A 
ATOM     16  C   UNL     1      -0.022   0.434  -8.867  0.00  0.00    -0.024 A 
ATOM     17  C   UNL     1       1.110   1.145  -9.562  0.00  0.00    +0.046 C 
ENDBRANCH   3  10
ENDBRANCH   1   3
BRANCH   1  18
ATOM     18  C   UNL     1      -0.767   1.809  -1.264  0.00  0.00    -0.073 C 
BRANCH  18  19
ATOM     19  C   UNL     1       0.336   1.269  -0.352  0.00  0.00    +0.017 C 
BRANCH  19  20
ATOM     20  C   UNL     1       0.160   1.831   1.036  0.00  0.00    -0.045 A 
ATOM     21  C   UNL     1       0.779   3.017   1.383  0.00  0.00    +0.007 A 
ATOM     22  C   UNL     1       0.615   3.539   2.653  0.00  0.00    +0.049 A 
ATOM     23  C   UNL     1      -0.161   2.868   3.584  0.00  0.00    +0.161 A 
ATOM     24  C   UNL     1      -0.780   1.671   3.235  0.00  0.00    +0.162 A 
ATOM     25  C   UNL     1      -0.616   1.156   1.959  0.00  0.00    +0.053 A 
BRANCH  24  26
ATOM     26  O   UNL     1      -1.543   1.008   4.145  0.00  0.00    -0.491 OA
ATOM     27  C   UNL     1      -2.148  -0.214   3.717  0.00  0.00    +0.277 C 
ENDBRANCH  24  26
BRANCH  23  28
ATOM     28  O   UNL     1      -0.319   3.377   4.835  0.00  0.00    -0.491 OA
ATOM     29  C   UNL     1       0.346   4.610   5.121  0.00  0.00    +0.277 C 
ENDBRANCH  23  28
ENDBRANCH  19  20
ENDBRANCH  18  19
ENDBRANCH   1  18
BRANCH   1  30
ATOM     30  C   UNL     1      -0.812  -0.192  -2.628  0.00  0.00    +0.001 C 
BRANCH  30  31
ATOM     31  C   UNL     1      -2.210  -0.494  -2.155  0.00  0.00    +0.136 A 
ATOM     32  N   UNL     1      -3.134   0.378  -1.835  0.00  0.00    -0.115 NA
ATOM     33  N   UNL     1      -4.189  -0.271  -1.482  0.00  0.00    -0.023 NA
ATOM     34  N   UNL     1      -3.963  -1.535  -1.569  0.00  0.00    -0.043 NA
ATOM     35  N   UNL     1      -2.755  -1.714  -1.986  0.00  0.00    -0.226 N 
BRANCH  35  36
ATOM     36  C   UNL     1      -2.099  -3.001  -2.226  0.00  0.00    +0.059 C 
ATOM     37  C   UNL     1      -0.935  -3.171  -1.247  0.00  0.00    +0.036 C 
ATOM     38  C   UNL     1      -3.107  -4.133  -2.022  0.00  0.00    +0.036 C 
ATOM     39  C   UNL     1      -1.568  -3.043  -3.661  0.00  0.00    +0.036 C 
ENDBRANCH  35  36
ENDBRANCH  30  31
ENDBRANCH   1  30
TORSDOF 10
