REMARK  Name = ZINC40811396
REMARK  9 active torsions:
REMARK  status: ('A' for Active; 'I' for Inactive)
REMARK    1  A    between atoms: C_1  and  C_2
REMARK    2  A    between atoms: C_6  and  C_8
REMARK    3  A    between atoms: N_10  and  N_11
REMARK    4  A    between atoms: C_18  and  C_38
REMARK    5  A    between atoms: C_19  and  C_21
REMARK    6  A    between atoms: C_21  and  O_23
REMARK    7  A    between atoms: O_23  and  C_24
REMARK    8  A    between atoms: C_27  and  C_30
REMARK    9  A    between atoms: C_33  and  C_36
REMARK                            x       y       z     vdW  Elec       q    Type
REMARK                         _______ _______ _______ _____ _____    ______ ____
ROOT
ATOM      1  N   UNL     1       0.209  -4.933   3.627  0.00  0.00    -0.184 NA
ATOM      2  C   UNL     1       0.182  -6.230   3.622  0.00  0.00    +0.070 C 
ATOM      3  C   UNL     1       0.163  -7.042   2.335  0.00  0.00    +0.058 C 
ATOM      4  C   UNL     1      -0.839  -8.189   2.506  0.00  0.00    +0.014 C 
ATOM      5  C   UNL     1      -0.373  -9.154   3.600  0.00  0.00    +0.075 C 
ATOM      6  C   UNL     1      -0.086  -8.380   4.861  0.00  0.00    +0.115 A 
ATOM      7  C   UNL     1       0.175  -7.028   4.868  0.00  0.00    +0.042 A 
ATOM      8  C   UNL     1       0.399  -6.648   6.197  0.00  0.00    +0.011 A 
ATOM      9  C   UNL     1       0.274  -7.786   6.946  0.00  0.00    +0.215 A 
ATOM     10  O   UNL     1      -0.026  -8.816   6.117  0.00  0.00    -0.452 OA
ATOM     11  C   UNL     1       0.715  -5.263   6.701  0.00  0.00    +0.048 C 
ENDROOT
BRANCH   1  14
ATOM     12  C   UNL     1       0.243  -2.881   2.420  0.00  0.00    +0.263 C 
ATOM     13  O   UNL     1       0.263  -2.276   3.475  0.00  0.00    -0.268 OA
ATOM     14  N   UNL     1       0.215  -4.228   2.416  0.00  0.00    -0.203 N 
ATOM     15  H   UNL     1       0.199  -4.710   1.574  0.00  0.00    +0.178 HD
BRANCH  12  21
ATOM     16  C   UNL     1       0.311   1.453  -0.052  0.00  0.00    +0.044 C 
ATOM     17  C   UNL     1       0.281  -0.054  -0.052  0.00  0.00    -0.050 A 
ATOM     18  C   UNL     1       0.259  -0.744  -1.251  0.00  0.00    +0.003 A 
ATOM     19  C   UNL     1       0.231  -2.127  -1.259  0.00  0.00    +0.001 A 
ATOM     20  C   UNL     1       0.226  -2.828  -0.070  0.00  0.00    +0.013 A 
ATOM     21  C   UNL     1       0.249  -2.137   1.143  0.00  0.00    +0.039 A 
ATOM     22  C   UNL     1       0.282  -0.741   1.144  0.00  0.00    +0.016 A 
ENDBRANCH  12  21
ENDBRANCH   1  14
BRANCH   9  23
ATOM     23  C   UNL     1       0.424  -7.874   8.401  0.00  0.00    +0.380 C 
ATOM     24  O   UNL     1       0.684  -6.876   9.047  0.00  0.00    -0.241 OA
BRANCH  23  25
ATOM     25  O   UNL     1       0.275  -9.061   9.024  0.00  0.00    -0.420 OA
BRANCH  25  26
ATOM     26  C   UNL     1       0.524  -9.116  10.359  0.00  0.00    +0.132 A 
ATOM     27  C   UNL     1      -0.414  -8.628  11.259  0.00  0.00    +0.047 A 
ATOM     28  C   UNL     1      -0.165  -8.682  12.614  0.00  0.00    +0.012 A 
ATOM     29  C   UNL     1       1.031  -9.229  13.080  0.00  0.00    -0.018 A 
ATOM     30  C   UNL     1       1.970  -9.719  12.173  0.00  0.00    +0.012 A 
ATOM     31  C   UNL     1       1.713  -9.666  10.820  0.00  0.00    +0.047 A 
BRANCH  29  32
ATOM     32  C   UNL     1       1.302  -9.288  14.536  0.00  0.00    -0.018 A 
ATOM     33  C   UNL     1       0.358  -8.802  15.441  0.00  0.00    +0.010 A 
ATOM     34  C   UNL     1       0.609  -8.857  16.794  0.00  0.00    +0.019 A 
ATOM     35  C   UNL     1       1.810  -9.400  17.259  0.00  0.00    +0.052 A 
ATOM     36  C   UNL     1       2.754  -9.887  16.351  0.00  0.00    +0.019 A 
ATOM     37  C   UNL     1       2.499  -9.836  15.000  0.00  0.00    +0.010 A 
BRANCH  35  38
ATOM     38  C   UNL     1       2.072  -9.457  18.666  0.00  0.00    +0.099 C 
ATOM     39  N   UNL     1       2.281  -9.502  19.782  0.00  0.00    -0.191 NA
ENDBRANCH  35  38
ENDBRANCH  29  32
ENDBRANCH  25  26
ENDBRANCH  23  25
ENDBRANCH   9  23
TORSDOF 7
