REMARK  Name = ZINC08867513
REMARK  7 active torsions:
REMARK  status: ('A' for Active; 'I' for Inactive)
REMARK    1  A    between atoms: C_4  and  C_7
REMARK    2  A    between atoms: C_7  and  C_8
REMARK    3  A    between atoms: C_13  and  N_14
REMARK    4  A    between atoms: C_13  and  N_62
REMARK    5  A    between atoms: N_22  and  C_23
REMARK    6  A    between atoms: C_26  and  O_29
REMARK    7  A    between atoms: O_29  and  C_30
REMARK                            x       y       z     vdW  Elec       q    Type
REMARK                         _______ _______ _______ _____ _____    ______ ____
ROOT
ATOM      1  N   UNL     1      -2.498   6.572  -2.325  0.00  0.00    -0.282 N 
ATOM      2  C   UNL     1      -2.043   7.801  -1.857  0.00  0.00    +0.044 A 
ATOM      3  C   UNL     1      -2.402   9.103  -2.185  0.00  0.00    +0.024 A 
ATOM      4  C   UNL     1      -1.787  10.170  -1.561  0.00  0.00    +0.002 A 
ATOM      5  C   UNL     1      -0.807   9.960  -0.605  0.00  0.00    +0.001 A 
ATOM      6  C   UNL     1      -0.437   8.674  -0.266  0.00  0.00    +0.012 A 
ATOM      7  C   UNL     1      -1.055   7.592  -0.885  0.00  0.00    +0.027 A 
ATOM      8  C   UNL     1      -0.892   6.127  -0.761  0.00  0.00    +0.135 C 
ATOM      9  N   UNL     1      -0.072   5.477   0.032  0.00  0.00    -0.242 NA
ATOM     10  C   UNL     1      -1.863   5.552  -1.723  0.00  0.00    +0.268 C 
ATOM     11  O   UNL     1      -2.052   4.369  -1.930  0.00  0.00    -0.268 OA
ENDROOT
BRANCH   9  12
ATOM     12  C   UNL     1      -0.054   4.120   0.025  0.00  0.00    +0.065 A 
ATOM     13  C   UNL     1       1.168   3.433   0.009  0.00  0.00    +0.031 A 
ATOM     14  C   UNL     1       1.181   2.062   0.002  0.00  0.00    +0.048 A 
ATOM     15  C   UNL     1      -0.016   1.353   0.009  0.00  0.00    +0.130 A 
ATOM     16  C   UNL     1      -1.232   2.029   0.019  0.00  0.00    +0.048 A 
ATOM     17  C   UNL     1      -1.257   3.400   0.032  0.00  0.00    +0.031 A 
BRANCH  15  18
ATOM     18  O   UNL     1       0.002  -0.004   0.002  0.00  0.00    -0.406 OA
BRANCH  18  19
ATOM     19  C   UNL     1      -1.262  -0.670   0.011  0.00  0.00    +0.575 C 
ATOM     20  F   UNL     1      -1.993  -0.298  -1.123  0.00  0.00    -0.133 F 
ATOM     21  F   UNL     1      -1.060  -2.054   0.001  0.00  0.00    -0.133 F 
ATOM     22  F   UNL     1      -1.971  -0.310   1.162  0.00  0.00    -0.133 F 
ENDBRANCH  18  19
ENDBRANCH  15  18
ENDBRANCH   9  12
BRANCH   1  23
ATOM     23  C   UNL     1      -3.536   6.411  -3.346  0.00  0.00    +0.039 C 
BRANCH  23  29
ATOM     24  C   UNL     1      -7.565   5.432  -2.302  0.00  0.00    -0.010 C 
ATOM     25  C   UNL     1      -7.249   6.819  -2.868  0.00  0.00    -0.015 C 
ATOM     26  C   UNL     1      -5.915   6.766  -3.617  0.00  0.00    -0.076 C 
ATOM     27  C   UNL     1      -5.110   4.991  -2.178  0.00  0.00    -0.076 C 
ATOM     28  C   UNL     1      -6.420   4.990  -1.386  0.00  0.00    -0.015 C 
ATOM     29  N   UNL     1      -4.851   6.359  -2.675  0.00  0.00    +0.390 N 
ATOM     30  H   UNL     1      -4.846   7.007  -1.879  0.00  0.00    -0.080 HD
BRANCH  24  31
ATOM     31  C   UNL     1      -8.867   5.492  -1.500  0.00  0.00    +0.038 C 
BRANCH  31  35
ATOM     32  C   UNL     1      -9.930   1.559  -0.214  0.00  0.00    +0.000 A 
ATOM     33  C   UNL     1      -9.130   2.355   0.585  0.00  0.00    +0.000 A 
ATOM     34  C   UNL     1      -8.786   3.628   0.169  0.00  0.00    +0.003 A 
ATOM     35  C   UNL     1      -9.241   4.104  -1.046  0.00  0.00    -0.047 A 
ATOM     36  C   UNL     1     -10.045   3.310  -1.843  0.00  0.00    +0.003 A 
ATOM     37  C   UNL     1     -10.385   2.036  -1.429  0.00  0.00    +0.000 A 
ENDBRANCH  31  35
ENDBRANCH  24  31
ENDBRANCH  23  29
ENDBRANCH   1  23
TORSDOF 7
