REMARK  Name = ZINC06998931
REMARK  5 active torsions:
REMARK  status: ('A' for Active; 'I' for Inactive)
REMARK    1  A    between atoms: C_1  and  C_2
REMARK    2  A    between atoms: C_2  and  C_20
REMARK    3  A    between atoms: N_3  and  N_4
REMARK    4  A    between atoms: C_7  and  C_10
REMARK    5  A    between atoms: C_23  and  N_26
REMARK                            x       y       z     vdW  Elec       q    Type
REMARK                         _______ _______ _______ _____ _____    ______ ____
ROOT
ATOM      1  N   UNL     1      -6.109   1.404  -0.157  0.00  0.00    -0.215 N 
ATOM      2  C   UNL     1      -4.811   0.929  -0.071  0.00  0.00    +0.178 A 
ATOM      3  N   UNL     1      -3.674   1.601  -0.066  0.00  0.00    -0.224 NA
ATOM      4  C   UNL     1      -2.508   0.978   0.020  0.00  0.00    +0.080 A 
ATOM      5  C   UNL     1      -2.482  -0.386   0.116  0.00  0.00    +0.077 A 
ATOM      6  S   UNL     1      -4.231  -0.755   0.070  0.00  0.00    -0.059 S 
ATOM      7  H   UNL     1      -6.273   2.357  -0.229  0.00  0.00    +0.176 HD
ENDROOT
BRANCH   4   8
ATOM      8  C   UNL     1      -1.244   1.752   0.018  0.00  0.00    +0.002 A 
ATOM      9  C   UNL     1      -0.013   1.076   0.008  0.00  0.00    +0.010 A 
ATOM     10  C   UNL     1       1.159   1.762   0.001  0.00  0.00    +0.009 A 
ATOM     11  C   UNL     1       1.151   3.168   0.008  0.00  0.00    -0.018 A 
ATOM     12  C   UNL     1       2.349   3.901  -0.001  0.00  0.00    +0.008 A 
ATOM     13  C   UNL     1       2.308   5.262   0.006  0.00  0.00    +0.001 A 
ATOM     14  C   UNL     1       1.093   5.944   0.021  0.00  0.00    +0.001 A 
ATOM     15  C   UNL     1      -0.088   5.268   0.029  0.00  0.00    +0.008 A 
ATOM     16  C   UNL     1      -0.086   3.862   0.023  0.00  0.00    -0.017 A 
ATOM     17  C   UNL     1      -1.286   3.134   0.030  0.00  0.00    +0.018 A 
ENDBRANCH   4   8
BRANCH   1  20
ATOM     18  C   UNL     1      -8.657   2.434  -0.332  0.00  0.00    +0.068 C 
ATOM     19  C   UNL     1      -8.403   0.953  -0.219  0.00  0.00    +0.063 C 
ATOM     20  N   UNL     1      -7.186   0.507  -0.139  0.00  0.00    -0.185 NA
BRANCH  19  21
ATOM     21  C   UNL     1      -9.535   0.010  -0.201  0.00  0.00    -0.002 A 
ATOM     22  C   UNL     1     -10.846   0.487  -0.281  0.00  0.00    +0.011 A 
ATOM     23  C   UNL     1     -11.902  -0.398  -0.269  0.00  0.00    +0.023 A 
ATOM     24  C   UNL     1     -11.665  -1.764  -0.166  0.00  0.00    +0.025 A 
ATOM     25  C   UNL     1     -10.362  -2.243  -0.079  0.00  0.00    +0.023 A 
ATOM     26  C   UNL     1      -9.301  -1.364  -0.096  0.00  0.00    +0.011 A 
BRANCH  24  27
ATOM     27  N   UNL     1     -12.738  -2.657  -0.148  0.00  0.00    -0.358 N 
ATOM     28  H   UNL     1     -12.574  -3.610  -0.075  0.00  0.00    +0.142 HD
ATOM     29  H   UNL     1     -13.647  -2.324  -0.208  0.00  0.00    +0.142 HD
ENDBRANCH  24  27
ENDBRANCH  19  21
ENDBRANCH   1  20
TORSDOF 4
