REMARK  Name = ZINC12872063
REMARK  13 active torsions:
REMARK  status: ('A' for Active; 'I' for Inactive)
REMARK    1  A    between atoms: C_1  and  C_2
REMARK    2  A    between atoms: C_10  and  C_23
REMARK    3  A    between atoms: C_15  and  C_16
REMARK    4  A    between atoms: C_15  and  O_19
REMARK    5  A    between atoms: C_16  and  C_18
REMARK    6  A    between atoms: O_19  and  C_20
REMARK    7  A    between atoms: C_20  and  C_22
REMARK    8  A    between atoms: C_24  and  C_41
REMARK    9  A    between atoms: C_27  and  O_31
REMARK   10  A    between atoms: O_31  and  C_32
REMARK   11  A    between atoms: C_32  and  C_34
REMARK   12  A    between atoms: C_34  and  C_35
REMARK   13  A    between atoms: C_35  and  N_85
REMARK                            x       y       z     vdW  Elec       q    Type
REMARK                         _______ _______ _______ _____ _____    ______ ____
ROOT
ATOM      1  C   UNL     1       3.722   3.975  -0.252  0.00  0.00    +0.044 C 
ATOM      2  C   UNL     1       3.350   3.341  -1.567  0.00  0.00    -0.051 C 
ATOM      3  C   UNL     1       4.285   3.173  -2.493  0.00  0.00    -0.019 C 
ATOM      4  C   UNL     1       4.006   2.687  -3.877  0.00  0.00    +0.020 C 
ATOM      5  C   UNL     1       2.672   1.958  -3.976  0.00  0.00    +0.006 C 
ATOM      6  C   UNL     1       2.781   0.631  -3.216  0.00  0.00    +0.005 C 
ATOM      7  C   UNL     1       3.856  -0.246  -3.839  0.00  0.00    +0.011 C 
ATOM      8  C   UNL     1       5.203   0.424  -3.944  0.00  0.00    +0.018 C 
ATOM      9  C   UNL     1       5.147   1.864  -4.457  0.00  0.00    +0.006 C 
ATOM     10  C   UNL     1       6.488   2.485  -3.985  0.00  0.00    +0.009 C 
ATOM     11  C   UNL     1       6.871   1.725  -2.701  0.00  0.00    +0.057 C 
ATOM     12  C   UNL     1       5.984   0.467  -2.627  0.00  0.00    +0.176 C 
ATOM     13  C   UNL     1       6.041  -0.398  -4.946  0.00  0.00    +0.016 C 
ATOM     14  C   UNL     1       1.576   2.794  -3.298  0.00  0.00    -0.003 C 
ATOM     15  C   UNL     1       1.957   2.924  -1.846  0.00  0.00    -0.039 C 
ATOM     16  C   UNL     1       1.128   2.670  -0.856  0.00  0.00    +0.021 C 
ATOM     17  C   UNL     1      -0.299   2.247  -1.055  0.00  0.00    +0.200 C 
ATOM     18  C   UNL     1      -0.779   2.658  -2.447  0.00  0.00    +0.050 C 
ATOM     19  C   UNL     1       0.216   2.146  -3.488  0.00  0.00    +0.015 C 
ATOM     20  C   UNL     1       1.530   4.188  -3.926  0.00  0.00    +0.016 C 
ENDROOT
BRANCH  12  21
ATOM     21  C   UNL     1       6.857  -0.761  -2.509  0.00  0.00    +0.174 C 
ATOM     22  O   UNL     1       7.996  -0.733  -2.907  0.00  0.00    -0.293 OA
ATOM     23  C   UNL     1       6.305  -2.021  -1.893  0.00  0.00    +0.090 C 
ENDBRANCH  12  21
BRANCH  12  24
ATOM     24  O   UNL     1       5.094   0.544  -1.486  0.00  0.00    -0.450 OA
BRANCH  24  25
ATOM     25  C   UNL     1       5.662   0.578  -0.271  0.00  0.00    +0.305 C 
ATOM     26  O   UNL     1       6.865   0.642  -0.168  0.00  0.00    -0.251 OA
ATOM     27  C   UNL     1       4.802   0.537   0.965  0.00  0.00    +0.136 C 
ENDBRANCH  24  25
ENDBRANCH  12  24
BRANCH  17  28
ATOM     28  O   UNL     1      -0.398   0.806  -0.913  0.00  0.00    -0.457 OA
BRANCH  28  29
ATOM     29  C   UNL     1      -0.641   0.330   0.319  0.00  0.00    +0.306 C 
ATOM     30  O   UNL     1      -0.767   1.092   1.247  0.00  0.00    -0.251 OA
BRANCH  29  31
ATOM     31  C   UNL     1      -0.756  -1.156   0.543  0.00  0.00    +0.102 C 
BRANCH  31  32
ATOM     32  C   UNL     1      -1.032  -1.428   2.023  0.00  0.00    -0.068 C 
BRANCH  32  38
ATOM     33  C   UNL     1      -2.322  -3.423   1.555  0.00  0.00    -0.079 C 
ATOM     34  C   UNL     1      -2.327  -4.948   1.682  0.00  0.00    -0.019 C 
ATOM     35  C   UNL     1      -2.355  -5.331   3.164  0.00  0.00    -0.004 C 
ATOM     36  C   UNL     1      -1.144  -4.710   3.866  0.00  0.00    -0.019 C 
ATOM     37  C   UNL     1      -1.173  -3.192   3.675  0.00  0.00    -0.079 C 
ATOM     38  N   UNL     1      -1.120  -2.889   2.230  0.00  0.00    +0.380 N 
ATOM     39  H   UNL     1      -0.287  -3.333   1.827  0.00  0.00    -0.082 HD
ENDBRANCH  32  38
ENDBRANCH  31  32
ENDBRANCH  29  31
ENDBRANCH  28  29
ENDBRANCH  17  28
TORSDOF 8
