REMARK  Name = ZINC15081142
REMARK  12 active torsions:
REMARK  status: ('A' for Active; 'I' for Inactive)
REMARK    1  A    between atoms: C_1  and  C_2
REMARK    2  A    between atoms: C_5  and  C_8
REMARK    3  A    between atoms: C_10  and  C_31
REMARK    4  A    between atoms: C_15  and  C_29
REMARK    5  A    between atoms: C_15  and  O_30
REMARK    6  A    between atoms: C_16  and  C_18
REMARK    7  A    between atoms: N_20  and  C_21
REMARK    8  A    between atoms: C_26  and  O_27
REMARK    9  A    between atoms: O_27  and  C_28
REMARK   10  A    between atoms: N_33  and  C_34
REMARK   11  A    between atoms: C_39  and  O_40
REMARK   12  A    between atoms: O_40  and  C_41
REMARK                            x       y       z     vdW  Elec       q    Type
REMARK                         _______ _______ _______ _____ _____    ______ ____
ROOT
ATOM      1  C   UNL     1      -0.335   1.183  -0.031  0.00  0.00    +0.053 C 
ATOM      2  C   UNL     1      -0.937   1.236  -1.440  0.00  0.00    +0.149 C 
ATOM      3  C   UNL     1       0.050   0.623  -2.408  0.00  0.00    +0.148 C 
ATOM      4  O   UNL     1      -0.294  -0.243  -3.176  0.00  0.00    -0.296 OA
ATOM      5  C   UNL     1       1.478   1.121  -2.389  0.00  0.00    +0.110 C 
ATOM      6  C   UNL     1       1.992   1.071  -0.946  0.00  0.00    +0.082 C 
ATOM      7  C   UNL     1       1.040   1.853  -0.040  0.00  0.00    +0.115 C 
ATOM      8  C   UNL     1       3.387   1.695  -0.880  0.00  0.00    +0.042 C 
ENDROOT
BRANCH   1  13
ATOM      9  C   UNL     1      -3.809   3.959   3.659  0.00  0.00    +0.044 C 
ATOM     10  C   UNL     1      -2.904   3.235   2.696  0.00  0.00    -0.050 A 
ATOM     11  C   UNL     1      -3.238   1.970   2.251  0.00  0.00    +0.003 A 
ATOM     12  C   UNL     1      -2.407   1.306   1.368  0.00  0.00    +0.004 A 
ATOM     13  C   UNL     1      -1.242   1.907   0.931  0.00  0.00    -0.042 A 
ATOM     14  C   UNL     1      -0.904   3.170   1.380  0.00  0.00    +0.004 A 
ATOM     15  C   UNL     1      -1.738   3.836   2.259  0.00  0.00    +0.003 A 
ENDBRANCH   1  13
BRANCH   7  16
ATOM     16  C   UNL     1       1.592   1.881   1.362  0.00  0.00    +0.224 C 
ATOM     17  O   UNL     1       1.147   1.131   2.204  0.00  0.00    -0.275 OA
ATOM     18  N   UNL     1       2.580   2.740   1.679  0.00  0.00    -0.282 N 
ATOM     19  H   UNL     1       2.895   3.382   1.023  0.00  0.00    +0.155 HD
BRANCH  18  20
ATOM     20  C   UNL     1       3.154   2.707   2.957  0.00  0.00    +0.076 A 
ATOM     21  C   UNL     1       3.073   1.555   3.726  0.00  0.00    +0.027 A 
ATOM     22  C   UNL     1       3.639   1.525   4.986  0.00  0.00    +0.002 A 
ATOM     23  C   UNL     1       4.287   2.640   5.484  0.00  0.00    +0.004 A 
ATOM     24  C   UNL     1       4.372   3.792   4.724  0.00  0.00    +0.047 A 
ATOM     25  C   UNL     1       3.812   3.829   3.457  0.00  0.00    +0.141 A 
BRANCH  25  26
ATOM     26  O   UNL     1       3.900   4.958   2.706  0.00  0.00    -0.493 OA
ATOM     27  C   UNL     1       4.589   6.069   3.282  0.00  0.00    +0.277 C 
ENDBRANCH  25  26
ENDBRANCH  18  20
ENDBRANCH   7  16
BRANCH   2  28
ATOM     28  C   UNL     1      -1.198   2.670  -1.824  0.00  0.00    +0.228 C 
ATOM     29  O   UNL     1      -0.732   3.571  -1.159  0.00  0.00    -0.275 OA
ATOM     30  N   UNL     1      -1.949   2.951  -2.907  0.00  0.00    -0.282 N 
ATOM     31  H   UNL     1      -2.370   2.233  -3.405  0.00  0.00    +0.155 HD
BRANCH  30  32
ATOM     32  C   UNL     1      -2.122   4.281  -3.314  0.00  0.00    +0.076 A 
ATOM     33  C   UNL     1      -1.123   5.215  -3.081  0.00  0.00    +0.027 A 
ATOM     34  C   UNL     1      -1.293   6.525  -3.488  0.00  0.00    +0.002 A 
ATOM     35  C   UNL     1      -2.462   6.910  -4.118  0.00  0.00    +0.004 A 
ATOM     36  C   UNL     1      -3.465   5.986  -4.348  0.00  0.00    +0.047 A 
ATOM     37  C   UNL     1      -3.300   4.670  -3.948  0.00  0.00    +0.141 A 
BRANCH  37  38
ATOM     38  O   UNL     1      -4.284   3.760  -4.174  0.00  0.00    -0.493 OA
ATOM     39  C   UNL     1      -5.464   4.230  -4.830  0.00  0.00    +0.277 C 
ENDBRANCH  37  38
ENDBRANCH  30  32
ENDBRANCH   2  28
BRANCH   6  40
ATOM     40  O   UNL     1       2.057  -0.288  -0.510  0.00  0.00    -0.388 OA
ATOM     41  H   UNL     1       2.644  -0.844  -1.040  0.00  0.00    +0.210 HD
ENDBRANCH   6  40
TORSDOF 8
