REMARK  Name = ZINC39909814
REMARK  11 active torsions:
REMARK  status: ('A' for Active; 'I' for Inactive)
REMARK    1  A    between atoms: C_1  and  C_2
REMARK    2  A    between atoms: C_2  and  C_3
REMARK    3  A    between atoms: C_3  and  C_4
REMARK    4  A    between atoms: C_4  and  C_5
REMARK    5  A    between atoms: C_8  and  N_11
REMARK    6  A    between atoms: N_13  and  C_28
REMARK    7  A    between atoms: C_17  and  C_18
REMARK    8  A    between atoms: C_31  and  C_34
REMARK    9  A    between atoms: C_34  and  C_35
REMARK   10  A    between atoms: C_35  and  C_36
REMARK   11  A    between atoms: C_36  and  C_37
REMARK                            x       y       z     vdW  Elec       q    Type
REMARK                         _______ _______ _______ _____ _____    ______ ____
ROOT
ATOM      1  N   UNL     1       2.538  -4.792   6.444  0.00  0.00    -0.225 NA
ATOM      2  C   UNL     1       2.767  -3.822   7.298  0.00  0.00    +0.173 C 
ATOM      3  N   UNL     1       3.804  -3.702   8.200  0.00  0.00    -0.214 N 
ATOM      4  C   UNL     1       3.886  -2.650   8.997  0.00  0.00    +0.263 C 
ATOM      5  O   UNL     1       4.793  -2.526   9.798  0.00  0.00    -0.269 OA
ATOM      6  C   UNL     1       2.820  -1.627   8.865  0.00  0.00    +0.078 C 
ATOM      7  C   UNL     1       2.651  -0.441   9.556  0.00  0.00    +0.026 C 
ATOM      8  S   UNL     1       1.815  -2.336   7.568  0.00  0.00    -0.048 S 
ENDROOT
BRANCH   7   9
ATOM      9  C   UNL     1       1.564   0.384   9.271  0.00  0.00    -0.018 C 
ATOM     10  C   UNL     1       1.253   1.607   9.867  0.00  0.00    +0.003 A 
ATOM     11  C   UNL     1       1.881   2.363  10.879  0.00  0.00    +0.010 A 
ATOM     12  C   UNL     1       1.343   3.546  11.269  0.00  0.00    +0.001 A 
ATOM     13  C   UNL     1       0.171   4.043  10.692  0.00  0.00    +0.002 A 
ATOM     14  C   UNL     1      -0.486   3.373   9.716  0.00  0.00    +0.026 A 
ATOM     15  C   UNL     1       0.017   2.127   9.254  0.00  0.00    +0.043 A 
ATOM     16  N   UNL     1      -0.425   1.295   8.335  0.00  0.00    -0.380 N 
ATOM     17  C   UNL     1       0.478   0.144   8.245  0.00  0.00    +0.149 C 
ATOM     18  H   UNL     1      -1.223   1.425   7.799  0.00  0.00    +0.160 HD
ENDBRANCH   7   9
BRANCH   1  22
ATOM     19  C   UNL     1      -0.754  -4.614   3.944  0.00  0.00    -0.047 A 
ATOM     20  C   UNL     1       0.479  -4.984   3.435  0.00  0.00    +0.006 A 
ATOM     21  C   UNL     1       1.580  -5.046   4.262  0.00  0.00    +0.028 A 
ATOM     22  C   UNL     1       1.450  -4.733   5.618  0.00  0.00    +0.067 A 
ATOM     23  C   UNL     1       0.203  -4.359   6.125  0.00  0.00    +0.028 A 
ATOM     24  C   UNL     1      -0.889  -4.298   5.285  0.00  0.00    +0.006 A 
BRANCH  19  25
ATOM     25  C   UNL     1      -1.953  -4.549   3.034  0.00  0.00    +0.035 C 
BRANCH  25  26
ATOM     26  C   UNL     1      -2.059  -3.148   2.430  0.00  0.00    +0.004 C 
BRANCH  26  28
ATOM     27  C   UNL     1      -3.383  -1.680   0.901  0.00  0.00    +0.004 C 
ATOM     28  C   UNL     1      -3.276  -3.082   1.505  0.00  0.00    -0.003 C 
ENDBRANCH  26  28
ENDBRANCH  25  26
ENDBRANCH  19  25
ENDBRANCH   1  22
BRANCH   3  29
ATOM     29  C   UNL     1       4.779  -4.705   8.274  0.00  0.00    +0.044 A 
ATOM     30  C   UNL     1       4.608  -5.780   9.136  0.00  0.00    +0.024 A 
ATOM     31  C   UNL     1       5.571  -6.767   9.205  0.00  0.00    +0.005 A 
ATOM     32  C   UNL     1       6.705  -6.686   8.418  0.00  0.00    -0.047 A 
ATOM     33  C   UNL     1       6.878  -5.617   7.558  0.00  0.00    +0.005 A 
ATOM     34  C   UNL     1       5.916  -4.629   7.480  0.00  0.00    +0.024 A 
BRANCH  32  35
ATOM     35  C   UNL     1       7.754  -7.765   8.496  0.00  0.00    +0.035 C 
BRANCH  35  36
ATOM     36  C   UNL     1       7.435  -8.862   7.478  0.00  0.00    +0.004 C 
BRANCH  36  37
ATOM     37  C   UNL     1       8.500  -9.957   7.558  0.00  0.00    -0.003 C 
ATOM     38  C   UNL     1       8.181 -11.054   6.540  0.00  0.00    +0.004 C 
ENDBRANCH  36  37
ENDBRANCH  35  36
ENDBRANCH  32  35
ENDBRANCH   3  29
TORSDOF 9
