REMARK  Name = ZINC14982464
REMARK  10 active torsions:
REMARK  status: ('A' for Active; 'I' for Inactive)
REMARK    1  A    between atoms: C_4  and  C_7
REMARK    2  A    between atoms: C_7  and  C_8
REMARK    3  A    between atoms: C_8  and  S_9
REMARK    4  A    between atoms: S_9  and  C_10
REMARK    5  A    between atoms: C_13  and  C_22
REMARK    6  A    between atoms: N_14  and  C_15
REMARK    7  A    between atoms: C_15  and  C_16
REMARK    8  A    between atoms: C_27  and  C_28
REMARK    9  A    between atoms: C_27  and  N_68
REMARK   10  A    between atoms: C_33  and  O_34
REMARK                            x       y       z     vdW  Elec       q    Type
REMARK                         _______ _______ _______ _____ _____    ______ ____
ROOT
ATOM      1  C   UNL     1      -0.022   1.758   0.012  0.00  0.00    +0.192 A 
ATOM      2  N   UNL     1      -1.088   2.524   0.020  0.00  0.00    -0.122 NA
ATOM      3  N   UNL     1      -0.737   3.760   0.029  0.00  0.00    -0.133 NA
ATOM      4  C   UNL     1       0.563   3.856   0.017  0.00  0.00    +0.137 A 
ATOM      5  N   UNL     1       1.065   2.584   0.006  0.00  0.00    -0.303 N 
ENDROOT
BRANCH   4   6
ATOM      6  C   UNL     1       1.364   5.133   0.015  0.00  0.00    +0.054 C 
ATOM      7  C   UNL     1       1.034   5.945   1.271  0.00  0.00    -0.008 C 
ATOM      8  C   UNL     1       1.803   7.268   1.233  0.00  0.00    -0.078 C 
ATOM      9  C   UNL     1       1.781   7.279  -1.190  0.00  0.00    -0.078 C 
ATOM     10  C   UNL     1       1.010   5.957  -1.225  0.00  0.00    -0.008 C 
ATOM     11  N   UNL     1       1.400   8.024   0.028  0.00  0.00    +0.382 N 
ATOM     12  H   UNL     1       0.381   8.148   0.038  0.00  0.00    -0.081 HD
BRANCH  11  13
ATOM     13  C   UNL     1       2.044   9.354   0.029  0.00  0.00    -0.039 C 
BRANCH  13  14
ATOM     14  C   UNL     1       1.472  10.170   1.159  0.00  0.00    -0.022 A 
ATOM     15  C   UNL     1       0.478  11.097   0.909  0.00  0.00    +0.005 A 
ATOM     16  C   UNL     1      -0.047  11.846   1.945  0.00  0.00    +0.000 A 
ATOM     17  C   UNL     1       0.419  11.669   3.235  0.00  0.00    +0.004 A 
ATOM     18  C   UNL     1       1.412  10.743   3.490  0.00  0.00    +0.045 A 
ATOM     19  C   UNL     1       1.938   9.987   2.453  0.00  0.00    +0.118 A 
BRANCH  19  20
ATOM     20  O   UNL     1       2.911   9.072   2.702  0.00  0.00    -0.507 OA
ATOM     21  H   UNL     1       3.809   9.426   2.640  0.00  0.00    +0.292 HD
ENDBRANCH  19  20
ENDBRANCH  13  14
ENDBRANCH  11  13
ENDBRANCH   4   6
BRANCH   1  22
ATOM     22  S   UNL     1       0.002  -0.004   0.002  0.00  0.00    -0.086 S 
BRANCH  22  23
ATOM     23  C   UNL     1      -1.776  -0.343   0.017  0.00  0.00    +0.082 C 
BRANCH  23  24
ATOM     24  C   UNL     1      -2.007  -1.855   0.011  0.00  0.00    +0.046 C 
BRANCH  24  28
ATOM     25  C   UNL     1      -6.203  -2.654   0.047  0.00  0.00    +0.000 A 
ATOM     26  C   UNL     1      -5.536  -2.519  -1.156  0.00  0.00    +0.000 A 
ATOM     27  C   UNL     1      -4.178  -2.260  -1.167  0.00  0.00    +0.003 A 
ATOM     28  C   UNL     1      -3.487  -2.137   0.024  0.00  0.00    -0.047 A 
ATOM     29  C   UNL     1      -4.154  -2.278   1.227  0.00  0.00    +0.003 A 
ATOM     30  C   UNL     1      -5.513  -2.531   1.238  0.00  0.00    +0.000 A 
ENDBRANCH  24  28
ENDBRANCH  23  24
ENDBRANCH  22  23
ENDBRANCH   1  22
BRANCH   5  31
ATOM     31  C   UNL     1       2.476   2.191  -0.010  0.00  0.00    +0.157 C 
BRANCH  31  32
ATOM     32  C   UNL     1       2.953   2.061  -1.458  0.00  0.00    +0.138 C 
ATOM     33  C   UNL     1       4.459   1.698  -1.497  0.00  0.00    +0.035 C 
ATOM     34  C   UNL     1       4.559   1.005  -2.884  0.00  0.00    +0.031 C 
ATOM     35  C   UNL     1       3.189   0.303  -2.999  0.00  0.00    +0.160 C 
ATOM     36  O   UNL     1       2.286   0.966  -2.106  0.00  0.00    -0.375 OA
ENDBRANCH  31  32
ENDBRANCH   5  31
TORSDOF 10
