REMARK  Name = ZINC12497756
REMARK  9 active torsions:
REMARK  status: ('A' for Active; 'I' for Inactive)
REMARK    1  A    between atoms: C_1  and  C_2
REMARK    2  A    between atoms: C_2  and  O_3
REMARK    3  A    between atoms: O_3  and  C_4
REMARK    4  A    between atoms: C_7  and  N_10
REMARK    5  A    between atoms: C_15  and  C_32
REMARK    6  A    between atoms: C_17  and  C_22
REMARK    7  A    between atoms: C_17  and  C_28
REMARK    8  A    between atoms: C_28  and  O_30
REMARK    9  A    between atoms: O_30  and  C_31
REMARK                            x       y       z     vdW  Elec       q    Type
REMARK                         _______ _______ _______ _____ _____    ______ ____
ROOT
ATOM      1  N   UNL     1       1.487   5.660   2.920  0.00  0.00    -0.210 N 
ATOM      2  C   UNL     1       0.891   4.555   2.380  0.00  0.00    +0.229 C 
ATOM      3  O   UNL     1      -0.203   4.111   2.652  0.00  0.00    -0.275 OA
ATOM      4  C   UNL     1       1.863   4.005   1.384  0.00  0.00    +0.078 C 
ATOM      5  C   UNL     1       1.402   3.539   0.007  0.00  0.00    -0.019 C 
ATOM      6  C   UNL     1       3.286   5.037  -0.236  0.00  0.00    +0.070 C 
ATOM      7  C   UNL     1       2.467   5.388   0.931  0.00  0.00    +0.090 C 
ATOM      8  C   UNL     1       2.564   6.084   2.191  0.00  0.00    +0.229 C 
ATOM      9  O   UNL     1       3.416   6.875   2.534  0.00  0.00    -0.275 OA
ATOM     10  N   UNL     1       2.558   3.896  -0.864  0.00  0.00    +0.398 N 
ATOM     11  H   UNL     1       2.220   4.170  -1.794  0.00  0.00    -0.083 HD
ATOM     12  H   UNL     1       3.188   3.090  -0.953  0.00  0.00    -0.083 HD
ENDROOT
BRANCH   1  16
ATOM     13  C   UNL     1       0.187   7.502   6.431  0.00  0.00    +0.121 A 
ATOM     14  C   UNL     1      -0.474   6.381   5.949  0.00  0.00    +0.047 A 
ATOM     15  C   UNL     1      -0.045   5.772   4.787  0.00  0.00    +0.027 A 
ATOM     16  C   UNL     1       1.050   6.280   4.101  0.00  0.00    +0.044 A 
ATOM     17  C   UNL     1       1.715   7.397   4.586  0.00  0.00    +0.027 A 
ATOM     18  C   UNL     1       1.281   8.010   5.745  0.00  0.00    +0.047 A 
BRANCH  13  19
ATOM     19  O   UNL     1      -0.236   8.102   7.575  0.00  0.00    -0.492 OA
BRANCH  19  21
ATOM     20  C   UNL     1      -0.127   9.784   9.306  0.00  0.00    +0.048 C 
ATOM     21  C   UNL     1       0.492   9.251   8.012  0.00  0.00    +0.225 C 
ENDBRANCH  19  21
ENDBRANCH  13  19
ENDBRANCH   1  16
BRANCH   6  22
ATOM     22  C   UNL     1       3.373   6.201  -1.190  0.00  0.00    -0.047 A 
ATOM     23  C   UNL     1       3.370   7.495  -0.703  0.00  0.00    +0.003 A 
ATOM     24  C   UNL     1       3.455   8.562  -1.577  0.00  0.00    +0.000 A 
ATOM     25  C   UNL     1       3.531   8.336  -2.938  0.00  0.00    +0.000 A 
ATOM     26  C   UNL     1       3.530   7.043  -3.426  0.00  0.00    +0.000 A 
ATOM     27  C   UNL     1       3.450   5.975  -2.551  0.00  0.00    +0.003 A 
ENDBRANCH   6  22
BRANCH   5  28
ATOM     28  C   UNL     1       1.160   2.051   0.002  0.00  0.00    -0.023 A 
ATOM     29  C   UNL     1      -0.017   1.378   0.010  0.00  0.00    +0.009 A 
ATOM     30  C   UNL     1       0.002  -0.004   0.002  0.00  0.00    +0.008 A 
ATOM     31  C   UNL     1       1.196  -0.645  -0.013  0.00  0.00    +0.045 A 
ATOM     32  S   UNL     1       2.348   0.719  -0.017  0.00  0.00    -0.103 S 
ENDBRANCH   5  28
BRANCH   6  33
ATOM     33  C   UNL     1       4.665   4.611   0.198  0.00  0.00    +0.301 C 
ATOM     34  O   UNL     1       5.138   5.049   1.220  0.00  0.00    -0.252 OA
BRANCH  33  35
ATOM     35  O   UNL     1       5.366   3.745  -0.550  0.00  0.00    -0.469 OA
ATOM     36  C   UNL     1       6.687   3.379  -0.070  0.00  0.00    +0.280 C 
ENDBRANCH  33  35
ENDBRANCH   6  33
TORSDOF 7
