REMARK  Name = ZINC08895134
REMARK  7 active torsions:
REMARK  status: ('A' for Active; 'I' for Inactive)
REMARK    1  A    between atoms: C_1  and  C_2
REMARK    2  A    between atoms: C_4  and  N_28
REMARK    3  A    between atoms: C_7  and  N_8
REMARK    4  A    between atoms: N_8  and  C_9
REMARK    5  A    between atoms: C_9  and  N_11
REMARK    6  A    between atoms: C_12  and  C_14
REMARK    7  A    between atoms: C_17  and  C_19
REMARK                            x       y       z     vdW  Elec       q    Type
REMARK                         _______ _______ _______ _____ _____    ______ ____
ROOT
ATOM      1  N   UNL     1      -4.784   2.230  -2.488  0.00  0.00    -0.261 N 
ATOM      2  C   UNL     1      -4.383   3.288  -1.754  0.00  0.00    +0.285 C 
ATOM      3  O   UNL     1      -5.087   4.278  -1.680  0.00  0.00    -0.266 OA
ATOM      4  H   UNL     1      -4.223   1.441  -2.547  0.00  0.00    +0.157 HD
ENDROOT
BRANCH   2   5
ATOM      5  C   UNL     1      -3.102   3.245  -1.048  0.00  0.00    +0.190 A 
ATOM      6  C   UNL     1      -2.575   4.252  -0.267  0.00  0.00    +0.055 A 
ATOM      7  C   UNL     1      -1.345   3.789   0.211  0.00  0.00    +0.051 A 
ATOM      8  C   UNL     1      -1.167   2.530  -0.290  0.00  0.00    +0.137 A 
ATOM      9  O   UNL     1      -2.229   2.216  -1.051  0.00  0.00    -0.450 OA
BRANCH   8  10
ATOM     10  C   UNL     1       0.001   1.662  -0.042  0.00  0.00    +0.036 A 
ATOM     11  C   UNL     1       1.294   2.156  -0.228  0.00  0.00    +0.014 A 
ATOM     12  C   UNL     1       2.381   1.339  -0.001  0.00  0.00    +0.021 A 
ATOM     13  C   UNL     1       2.193   0.030   0.413  0.00  0.00    +0.042 A 
ATOM     14  C   UNL     1       0.915  -0.466   0.601  0.00  0.00    +0.040 A 
ATOM     15  C   UNL     1      -0.182   0.341   0.376  0.00  0.00    +0.053 A 
ATOM     16 CL   UNL     1      -1.785  -0.283   0.610  0.00  0.00    -0.083 Cl
ATOM     17 CL   UNL     1       3.567  -0.991   0.698  0.00  0.00    -0.083 Cl
ENDBRANCH   8  10
ENDBRANCH   2   5
BRANCH   1  18
ATOM     18  C   UNL     1      -5.963   2.269  -3.139  0.00  0.00    +0.141 C 
ATOM     19  S   UNL     1      -6.953   3.663  -3.034  0.00  0.00    -0.018 S 
BRANCH  18  20
ATOM     20  N   UNL     1      -6.364   1.212  -3.872  0.00  0.00    -0.296 N 
ATOM     21  H   UNL     1      -5.770   0.455  -3.997  0.00  0.00    +0.154 HD
BRANCH  20  28
ATOM     22  C   UNL     1      -6.605   0.329  -6.566  0.00  0.00    +0.046 C 
ATOM     23  C   UNL     1      -7.799   0.782  -5.766  0.00  0.00    -0.027 A 
ATOM     24  C   UNL     1      -9.056   0.777  -6.338  0.00  0.00    +0.039 A 
ATOM     25  C   UNL     1     -10.152   1.193  -5.605  0.00  0.00    +0.145 A 
ATOM     26  C   UNL     1      -9.994   1.616  -4.297  0.00  0.00    +0.073 A 
ATOM     27  C   UNL     1      -8.739   1.617  -3.717  0.00  0.00    +0.045 A 
ATOM     28  C   UNL     1      -7.636   1.206  -4.453  0.00  0.00    +0.037 A 
ATOM     29 CL   UNL     1     -11.373   2.137  -3.381  0.00  0.00    -0.081 Cl
BRANCH  25  30
ATOM     30  N   UNL     1     -11.498   1.187  -6.222  0.00  0.00    +0.058 N 
ATOM     31  O   UNL     1     -11.639   0.815  -7.373  0.00  0.00    -0.126 OA
ATOM     32  O   UNL     1     -12.465   1.553  -5.577  0.00  0.00    -0.126 OA
ENDBRANCH  25  30
ENDBRANCH  20  28
ENDBRANCH  18  20
ENDBRANCH   1  18
TORSDOF 6
