REMARK  Name = ZINC35705856
REMARK  10 active torsions:
REMARK  status: ('A' for Active; 'I' for Inactive)
REMARK    1  A    between atoms: C_1  and  C_2
REMARK    2  A    between atoms: C_5  and  C_8
REMARK    3  A    between atoms: C_8  and  N_9
REMARK    4  A    between atoms: N_9  and  C_10
REMARK    5  A    between atoms: N_9  and  C_20
REMARK    6  A    between atoms: C_10  and  C_11
REMARK    7  A    between atoms: C_20  and  C_21
REMARK    8  A    between atoms: C_23  and  C_26
REMARK    9  A    between atoms: N_28  and  C_29
REMARK   10  A    between atoms: C_29  and  C_30
REMARK                            x       y       z     vdW  Elec       q    Type
REMARK                         _______ _______ _______ _____ _____    ______ ____
ROOT
ATOM      1  N   UNL     1       1.479  -4.682  -0.091  0.00  0.00    +0.391 N 
ATOM      2  H   UNL     1       2.059  -4.247  -0.793  0.00  0.00    -0.080 HD
ENDROOT
BRANCH   1   3
ATOM      3  C   UNL     1       0.135  -4.090  -0.131  0.00  0.00    -0.042 C 
BRANCH   3   8
ATOM      4  C   UNL     1       0.535   1.645   0.457  0.00  0.00    +0.044 C 
ATOM      5  C   UNL     1       0.431   0.149   0.303  0.00  0.00    -0.050 A 
ATOM      6  C   UNL     1       0.597  -0.432  -0.940  0.00  0.00    +0.003 A 
ATOM      7  C   UNL     1       0.502  -1.804  -1.081  0.00  0.00    +0.002 A 
ATOM      8  C   UNL     1       0.240  -2.595   0.022  0.00  0.00    -0.064 A 
ATOM      9  C   UNL     1       0.075  -2.014   1.266  0.00  0.00    +0.002 A 
ATOM     10  C   UNL     1       0.175  -0.643   1.407  0.00  0.00    +0.003 A 
ENDBRANCH   3   8
ENDBRANCH   1   3
BRANCH   1  11
ATOM     11  C   UNL     1       1.387  -6.124  -0.358  0.00  0.00    -0.042 C 
BRANCH  11  12
ATOM     12  C   UNL     1       0.896  -6.344  -1.766  0.00  0.00    -0.060 A 
ATOM     13  C   UNL     1      -0.461  -6.440  -2.015  0.00  0.00    +0.005 A 
ATOM     14  C   UNL     1      -0.916  -6.641  -3.305  0.00  0.00    +0.050 A 
ATOM     15  C   UNL     1      -0.014  -6.748  -4.351  0.00  0.00    +0.166 A 
ATOM     16  C   UNL     1       1.352  -6.651  -4.099  0.00  0.00    +0.166 A 
ATOM     17  C   UNL     1       1.802  -6.444  -2.805  0.00  0.00    +0.051 A 
ATOM     18  O   UNL     1       2.024  -6.787  -5.279  0.00  0.00    -0.453 OA
ATOM     19  C   UNL     1       1.080  -7.375  -6.194  0.00  0.00    +0.466 C 
ATOM     20  O   UNL     1      -0.198  -6.945  -5.689  0.00  0.00    -0.453 OA
ENDBRANCH  11  12
ENDBRANCH   1  11
BRANCH   1  21
ATOM     21  C   UNL     1       2.071  -4.467   1.236  0.00  0.00    +0.020 C 
BRANCH  21  22
ATOM     22  C   UNL     1       3.498  -4.949   1.234  0.00  0.00    +0.179 A 
ATOM     23  N   UNL     1       4.539  -4.219   0.968  0.00  0.00    -0.210 NA
ATOM     24  C   UNL     1       5.650  -4.998   1.066  0.00  0.00    +0.163 A 
ATOM     25  C   UNL     1       5.233  -6.248   1.408  0.00  0.00    +0.230 A 
ATOM     26  O   UNL     1       3.895  -6.199   1.512  0.00  0.00    -0.449 OA
BRANCH  24  27
ATOM     27  C   UNL     1       7.043  -4.570   0.845  0.00  0.00    +0.266 C 
ATOM     28  O   UNL     1       7.942  -5.388   0.872  0.00  0.00    -0.268 OA
ATOM     29  N   UNL     1       7.320  -3.272   0.612  0.00  0.00    -0.306 N 
ATOM     30  H   UNL     1       6.615  -2.608   0.666  0.00  0.00    +0.149 HD
BRANCH  29  31
ATOM     31  C   UNL     1       8.686  -2.863   0.276  0.00  0.00    +0.140 C 
BRANCH  31  32
ATOM     32  C   UNL     1       8.752  -1.361   0.182  0.00  0.00    -0.030 A 
ATOM     33  C   UNL     1       8.509  -0.732  -1.025  0.00  0.00    +0.005 A 
ATOM     34  C   UNL     1       8.569   0.646  -1.112  0.00  0.00    +0.000 A 
ATOM     35  C   UNL     1       8.873   1.396   0.009  0.00  0.00    +0.000 A 
ATOM     36  C   UNL     1       9.115   0.768   1.216  0.00  0.00    +0.000 A 
ATOM     37  C   UNL     1       9.050  -0.610   1.304  0.00  0.00    +0.005 A 
ENDBRANCH  31  32
ENDBRANCH  29  31
ENDBRANCH  24  27
ENDBRANCH  21  22
ENDBRANCH   1  21
TORSDOF 9
