REMARK  Name = ZINC00059254
REMARK  8 active torsions:
REMARK  status: ('A' for Active; 'I' for Inactive)
REMARK    1  A    between atoms: C_1  and  C_2
REMARK    2  A    between atoms: C_3  and  C_24
REMARK    3  A    between atoms: C_4  and  C_12
REMARK    4  A    between atoms: C_6  and  C_10
REMARK    5  A    between atoms: C_7  and  N_9
REMARK    6  A    between atoms: C_15  and  C_18
REMARK    7  A    between atoms: C_24  and  O_26
REMARK    8  A    between atoms: O_26  and  C_27
REMARK                            x       y       z     vdW  Elec       q    Type
REMARK                         _______ _______ _______ _____ _____    ______ ____
ROOT
ATOM      1  C   UNL     1      -1.976   3.088   2.578  0.00  0.00    +0.087 C 
ATOM      2  C   UNL     1      -1.458   2.607   1.247  0.00  0.00    +0.115 C 
ATOM      3  C   UNL     1      -0.527   1.645   1.226  0.00  0.00    +0.087 C 
ATOM      4  C   UNL     1       0.025   1.126  -0.074  0.00  0.00    +0.105 C 
ATOM      5  C   UNL     1      -0.880   1.529  -1.207  0.00  0.00    +0.098 C 
ATOM      6  C   UNL     1      -1.801   2.509  -1.044  0.00  0.00    +0.198 C 
ATOM      7  O   UNL     1      -1.946   3.157   0.125  0.00  0.00    -0.445 OA
ENDROOT
BRANCH   4   8
ATOM      8  C   UNL     1       1.399   1.702  -0.301  0.00  0.00    -0.034 A 
ATOM      9  C   UNL     1       1.564   3.072  -0.397  0.00  0.00    +0.005 A 
ATOM     10  C   UNL     1       2.821   3.605  -0.600  0.00  0.00    +0.009 A 
ATOM     11  C   UNL     1       3.923   2.760  -0.719  0.00  0.00    -0.018 A 
ATOM     12  C   UNL     1       3.749   1.381  -0.627  0.00  0.00    +0.009 A 
ATOM     13  C   UNL     1       2.489   0.859  -0.419  0.00  0.00    +0.005 A 
BRANCH  11  14
ATOM     14  C   UNL     1       5.275   3.328  -0.944  0.00  0.00    -0.018 A 
ATOM     15  C   UNL     1       6.378   2.483  -1.058  0.00  0.00    +0.008 A 
ATOM     16  C   UNL     1       7.633   3.016  -1.271  0.00  0.00    +0.001 A 
ATOM     17  C   UNL     1       7.799   4.386  -1.361  0.00  0.00    +0.000 A 
ATOM     18  C   UNL     1       6.709   5.229  -1.244  0.00  0.00    +0.001 A 
ATOM     19  C   UNL     1       5.449   4.707  -1.035  0.00  0.00    +0.008 A 
ENDBRANCH  11  14
ENDBRANCH   4   8
BRANCH   6  20
ATOM     20  N   UNL     1      -2.609   2.848  -2.100  0.00  0.00    -0.328 N 
ATOM     21  H   UNL     1      -3.273   3.548  -1.997  0.00  0.00    +0.145 HD
ATOM     22  H   UNL     1      -2.516   2.389  -2.949  0.00  0.00    +0.145 HD
ENDBRANCH   6  20
BRANCH   5  23
ATOM     23  C   UNL     1      -0.766   0.871  -2.473  0.00  0.00    +0.101 C 
ATOM     24  N   UNL     1      -0.675   0.348  -3.478  0.00  0.00    -0.191 NA
ENDBRANCH   5  23
BRANCH   3  25
ATOM     25  C   UNL     1      -0.053   1.108   2.447  0.00  0.00    +0.339 C 
ATOM     26  O   UNL     1      -0.399  -0.004   2.798  0.00  0.00    -0.245 OA
BRANCH  25  27
ATOM     27  O   UNL     1       0.783   1.830   3.223  0.00  0.00    -0.465 OA
ATOM     28  C   UNL     1       1.222   1.226   4.441  0.00  0.00    +0.280 C 
ENDBRANCH  25  27
ENDBRANCH   3  25
TORSDOF 6
