REMARK  Name = ZINC40268543
REMARK  8 active torsions:
REMARK  status: ('A' for Active; 'I' for Inactive)
REMARK    1  A    between atoms: C_1  and  C_2
REMARK    2  A    between atoms: C_2  and  C_3
REMARK    3  A    between atoms: C_2  and  N_4
REMARK    4  A    between atoms: C_11  and  C_14
REMARK    5  A    between atoms: C_11  and  N_24
REMARK    6  A    between atoms: C_14  and  C_16
REMARK    7  A    between atoms: C_14  and  O_23
REMARK    8  A    between atoms: C_25  and  C_27
REMARK                            x       y       z     vdW  Elec       q    Type
REMARK                         _______ _______ _______ _____ _____    ______ ____
ROOT
ATOM      1  N   UNL     1       1.241  -0.975  -1.401  0.00  0.00    -0.266 N 
ATOM      2  C   UNL     1       2.484  -1.460  -1.810  0.00  0.00    +0.042 A 
ATOM      3  C   UNL     1       3.571  -1.920  -1.069  0.00  0.00    +0.024 A 
ATOM      4  C   UNL     1       4.712  -2.356  -1.710  0.00  0.00    +0.002 A 
ATOM      5  C   UNL     1       4.786  -2.340  -3.091  0.00  0.00    +0.000 A 
ATOM      6  C   UNL     1       3.711  -1.884  -3.834  0.00  0.00    +0.008 A 
ATOM      7  C   UNL     1       2.571  -1.448  -3.196  0.00  0.00    +0.009 A 
ATOM      8  C   UNL     1       1.255  -0.904  -3.701  0.00  0.00    +0.170 C 
ATOM      9  C   UNL     1       0.461  -0.633  -2.440  0.00  0.00    +0.251 C 
ATOM     10  O   UNL     1      -0.666  -0.190  -2.380  0.00  0.00    -0.272 OA
ENDROOT
BRANCH   8  11
ATOM     11  N   UNL     1       0.571  -1.901  -4.529  0.00  0.00    -0.296 N 
ATOM     12  C   UNL     1      -0.656  -1.641  -5.020  0.00  0.00    +0.211 C 
ATOM     13  O   UNL     1      -1.156  -0.548  -4.857  0.00  0.00    -0.276 OA
ATOM     14  C   UNL     1      -1.408  -2.708  -5.773  0.00  0.00    +0.109 C 
ATOM     15  H   UNL     1       1.002  -2.747  -4.724  0.00  0.00    +0.150 HD
ENDBRANCH   8  11
BRANCH   1  17
ATOM     16  C   UNL     1       0.429   0.588   0.296  0.00  0.00    +0.028 C 
ATOM     17  C   UNL     1       0.831  -0.858   0.001  0.00  0.00    +0.075 C 
ATOM     18  C   UNL     1      -0.361  -1.782   0.262  0.00  0.00    +0.028 C 
ENDBRANCH   1  17
BRANCH   8  19
ATOM     19  C   UNL     1       1.476   0.389  -4.488  0.00  0.00    +0.200 C 
BRANCH  19  20
ATOM     20  C   UNL     1       2.277   1.355  -3.653  0.00  0.00    +0.074 A 
ATOM     21  C   UNL     1       3.560   1.691  -4.040  0.00  0.00    +0.026 A 
ATOM     22  C   UNL     1       4.289   2.580  -3.265  0.00  0.00    +0.004 A 
ATOM     23  C   UNL     1       3.696   3.101  -2.125  0.00  0.00    +0.035 A 
ATOM     24  C   UNL     1       2.407   2.719  -1.800  0.00  0.00    +0.107 A 
ATOM     25  N   UNL     1       1.742   1.873  -2.565  0.00  0.00    -0.242 NA
ATOM     26 BR   UNL     1       1.587   3.420  -0.248  0.00  0.00    -0.029 Br
ENDBRANCH  19  20
BRANCH  19  27
ATOM     27  O   UNL     1       2.188   0.097  -5.692  0.00  0.00    -0.383 OA
ATOM     28  H   UNL     1       3.057  -0.302  -5.549  0.00  0.00    +0.210 HD
ENDBRANCH  19  27
ENDBRANCH   8  19
TORSDOF 5
