REMARK  Name = ZINC27778789
REMARK  7 active torsions:
REMARK  status: ('A' for Active; 'I' for Inactive)
REMARK    1  A    between atoms: C_1  and  C_2
REMARK    2  A    between atoms: C_2  and  N_3
REMARK    3  A    between atoms: C_7  and  C_9
REMARK    4  A    between atoms: C_9  and  N_10
REMARK    5  A    between atoms: C_13  and  C_16
REMARK    6  A    between atoms: N_18  and  C_19
REMARK    7  A    between atoms: C_19  and  C_20
REMARK                            x       y       z     vdW  Elec       q    Type
REMARK                         _______ _______ _______ _____ _____    ______ ____
ROOT
ATOM      1  N   UNL     1      -5.002   0.225  -1.221  0.00  0.00    +0.385 N 
ATOM      2  C   UNL     1      -4.894   0.794   0.128  0.00  0.00    -0.077 C 
ATOM      3  C   UNL     1      -3.595   1.595   0.243  0.00  0.00    -0.006 C 
ATOM      4  C   UNL     1      -2.405   0.673  -0.039  0.00  0.00    +0.071 C 
ATOM      5  C   UNL     1      -2.567   0.056  -1.431  0.00  0.00    -0.006 C 
ATOM      6  C   UNL     1      -3.896  -0.700  -1.498  0.00  0.00    -0.077 C 
ATOM      7  H   UNL     1      -4.933   1.054  -1.941  0.00  0.00    -0.081 HD
ENDROOT
BRANCH   4   8
ATOM      8  C   UNL     1      -1.127   1.469   0.014  0.00  0.00    +0.216 C 
ATOM      9  O   UNL     1      -1.162   2.657   0.254  0.00  0.00    -0.276 OA
ATOM     10  N   UNL     1       0.056   0.861  -0.205  0.00  0.00    -0.307 N 
ATOM     11  H   UNL     1       0.088  -0.218  -0.418  0.00  0.00    +0.149 HD
BRANCH  10  12
ATOM     12  C   UNL     1       1.298   1.636  -0.160  0.00  0.00    +0.217 C 
BRANCH  12  13
ATOM     13  C   UNL     1       2.485   0.715  -0.448  0.00  0.00    +0.405 C 
ATOM     14  F   UNL     1       2.337   0.145  -1.717  0.00  0.00    -0.169 F 
ATOM     15  F   UNL     1       3.671   1.455  -0.404  0.00  0.00    -0.169 F 
ATOM     16  F   UNL     1       2.532  -0.299   0.515  0.00  0.00    -0.169 F 
ENDBRANCH  12  13
ENDBRANCH  10  12
ENDBRANCH   4   8
BRANCH   1  17
ATOM     17  C   UNL     1      -6.300  -0.434  -1.413  0.00  0.00    +0.019 C 
BRANCH  17  22
ATOM     18  N   UNL     1     -10.960   0.746  -1.401  0.00  0.00    -0.299 N 
ATOM     19  C   UNL     1      -9.670   1.133  -1.373  0.00  0.00    +0.306 C 
ATOM     20  O   UNL     1      -9.391   2.315  -1.320  0.00  0.00    -0.252 OA
ATOM     21  N   UNL     1      -8.688   0.210  -1.405  0.00  0.00    -0.242 N 
ATOM     22  C   UNL     1      -7.398   0.598  -1.377  0.00  0.00    +0.204 C 
ATOM     23  O   UNL     1      -7.120   1.776  -1.324  0.00  0.00    -0.277 OA
ATOM     24  H   UNL     1     -11.213  -0.324  -1.450  0.00  0.00    +0.150 HD
ATOM     25  H   UNL     1      -8.941  -0.860  -1.454  0.00  0.00    +0.159 HD
BRANCH  18  27
ATOM     26  C   UNL     1     -13.387   1.049  -1.409  0.00  0.00    +0.024 C 
ATOM     27  C   UNL     1     -12.027   1.749  -1.367  0.00  0.00    +0.102 C 
ENDBRANCH  18  27
ENDBRANCH  17  22
ENDBRANCH   1  17
TORSDOF 6
