REMARK  Name = ZINC36664458
REMARK  9 active torsions:
REMARK  status: ('A' for Active; 'I' for Inactive)
REMARK    1  A    between atoms: C_1  and  C_2
REMARK    2  A    between atoms: C_3  and  C_34
REMARK    3  A    between atoms: C_11  and  C_13
REMARK    4  A    between atoms: C_13  and  S_14
REMARK    5  A    between atoms: S_14  and  C_15
REMARK    6  A    between atoms: C_15  and  C_17
REMARK    7  A    between atoms: C_15  and  C_18
REMARK    8  A    between atoms: N_24  and  C_27
REMARK    9  A    between atoms: C_27  and  C_28
REMARK                            x       y       z     vdW  Elec       q    Type
REMARK                         _______ _______ _______ _____ _____    ______ ____
ROOT
ATOM      1  C   UNL     1       0.135  -6.147   5.443  0.00  0.00    +0.130 C 
ATOM      2  C   UNL     1      -1.169  -5.941   6.217  0.00  0.00    +0.029 C 
ENDROOT
BRANCH   1   3
ATOM      3  C   UNL     1       0.275  -7.601   5.074  0.00  0.00    +0.228 C 
ATOM      4  O   UNL     1      -0.009  -7.972   3.955  0.00  0.00    -0.274 OA
ATOM      5  N   UNL     1       0.716  -8.489   5.987  0.00  0.00    -0.302 N 
ATOM      6  C   UNL     1       1.049  -8.009   7.343  0.00  0.00    +0.106 C 
ATOM      7  C   UNL     1       0.547  -8.991   8.417  0.00  0.00    +0.000 C 
ATOM      8  C   UNL     1      -0.815  -9.516   8.021  0.00  0.00    -0.077 C 
ATOM      9  N   UNL     1      -0.655 -10.771   7.290  0.00  0.00    +0.383 N 
ATOM     10  C   UNL     1      -0.473 -10.630   5.897  0.00  0.00    -0.059 C 
ATOM     11  C   UNL     1       0.842  -9.880   5.604  0.00  0.00    +0.089 C 
ATOM     12  H   UNL     1       0.144 -11.259   7.668  0.00  0.00    -0.081 HD
BRANCH   9  13
ATOM     13  C   UNL     1      -1.847 -11.598   7.521  0.00  0.00    -0.043 C 
BRANCH  13  14
ATOM     14  C   UNL     1      -1.655 -12.947   6.879  0.00  0.00    -0.064 A 
ATOM     15  C   UNL     1      -2.044 -13.151   5.568  0.00  0.00    +0.002 A 
ATOM     16  C   UNL     1      -1.868 -14.390   4.979  0.00  0.00    +0.000 A 
ATOM     17  C   UNL     1      -1.302 -15.424   5.701  0.00  0.00    +0.000 A 
ATOM     18  C   UNL     1      -0.911 -15.220   7.012  0.00  0.00    +0.000 A 
ATOM     19  C   UNL     1      -1.084 -13.980   7.599  0.00  0.00    +0.002 A 
ENDBRANCH  13  14
ENDBRANCH   9  13
ENDBRANCH   1   3
BRANCH   1  20
ATOM     20  S   UNL     1       0.108  -5.139   3.935  0.00  0.00    -0.141 S 
BRANCH  20  21
ATOM     21  C   UNL     1       0.090  -3.432   4.547  0.00  0.00    +0.144 C 
BRANCH  21  32
ATOM     22  C   UNL     1      -0.018   1.503   0.010  0.00  0.00    +0.045 C 
ATOM     23  C   UNL     1       0.002  -0.004   0.002  0.00  0.00    -0.026 A 
ATOM     24  C   UNL     1       0.006  -0.677  -1.160  0.00  0.00    -0.008 A 
ATOM     25  S   UNL     1       0.032  -2.385  -0.648  0.00  0.00    -0.073 S 
ATOM     26  C   UNL     1       0.037  -2.144   1.110  0.00  0.00    +0.116 A 
ATOM     27  C   UNL     1       0.024  -0.745   1.250  0.00  0.00    +0.075 A 
ATOM     28  C   UNL     1       0.029  -0.257   2.597  0.00  0.00    +0.260 A 
ATOM     29  O   UNL     1       0.014   0.942   2.821  0.00  0.00    -0.267 OA
ATOM     30  N   UNL     1       0.051  -1.142   3.611  0.00  0.00    -0.310 N 
ATOM     31  H   UNL     1       0.054  -0.817   4.525  0.00  0.00    +0.170 HD
ATOM     32  C   UNL     1       0.067  -2.480   3.380  0.00  0.00    +0.121 A 
ATOM     33  N   UNL     1       0.053  -2.956   2.163  0.00  0.00    -0.226 NA
ATOM     34  C   UNL     1      -0.009  -0.122  -2.561  0.00  0.00    +0.052 C 
ENDBRANCH  21  32
ENDBRANCH  20  21
ENDBRANCH   1  20
TORSDOF 6
