REMARK  Name = ZINC10680100
REMARK  12 active torsions:
REMARK  status: ('A' for Active; 'I' for Inactive)
REMARK    1  A    between atoms: C_1  and  C_2
REMARK    2  A    between atoms: C_2  and  C_3
REMARK    3  A    between atoms: C_3  and  C_5
REMARK    4  A    between atoms: C_3  and  C_6
REMARK    5  A    between atoms: C_11  and  O_12
REMARK    6  A    between atoms: O_12  and  C_13
REMARK    7  A    between atoms: C_13  and  C_15
REMARK    8  A    between atoms: C_13  and  C_17
REMARK    9  A    between atoms: C_15  and  C_16
REMARK   10  A    between atoms: C_24  and  C_25
REMARK   11  A    between atoms: C_24  and  C_31
REMARK   12  A    between atoms: C_24  and  N_73
REMARK                            x       y       z     vdW  Elec       q    Type
REMARK                         _______ _______ _______ _____ _____    ______ ____
ROOT
ATOM      1  C   UNL     1      -2.225  -2.585   4.166  0.00  0.00    +0.256 C 
ATOM      2  O   UNL     1      -2.284  -3.795   4.096  0.00  0.00    -0.272 OA
ATOM      3  N   UNL     1      -2.088  -1.851   3.044  0.00  0.00    -0.302 N 
ATOM      4  C   UNL     1      -2.007  -2.497   1.725  0.00  0.00    +0.089 C 
ATOM      5  C   UNL     1      -0.776  -1.954   0.992  0.00  0.00    -0.058 C 
ATOM      6  C   UNL     1      -0.784   0.076   2.319  0.00  0.00    -0.058 C 
ATOM      7  C   UNL     1      -2.015  -0.384   3.106  0.00  0.00    +0.089 C 
ATOM      8  N   UNL     1      -0.861  -0.478   0.949  0.00  0.00    +0.389 N 
ATOM      9  H   UNL     1      -1.760  -0.208   0.532  0.00  0.00    -0.080 HD
ENDROOT
BRANCH   1  10
ATOM     10  C   UNL     1      -2.307  -1.903   5.507  0.00  0.00    +0.258 C 
BRANCH  10  11
ATOM     11  C   UNL     1      -3.582  -1.060   5.574  0.00  0.00    +0.051 C 
ATOM     12  C   UNL     1      -3.603  -0.271   6.885  0.00  0.00    +0.008 C 
ENDBRANCH  10  11
BRANCH  10  13
ATOM     13  O   UNL     1      -2.332  -2.888   6.542  0.00  0.00    -0.479 OA
BRANCH  13  19
ATOM     14  C   UNL     1      -1.498  -3.580   8.660  0.00  0.00    -0.003 A 
ATOM     15  C   UNL     1      -0.773  -3.304   9.803  0.00  0.00    +0.007 A 
ATOM     16  C   UNL     1      -0.170  -2.070   9.959  0.00  0.00    +0.001 A 
ATOM     17  C   UNL     1      -0.289  -1.109   8.972  0.00  0.00    +0.004 A 
ATOM     18  C   UNL     1      -1.008  -1.383   7.824  0.00  0.00    +0.046 A 
ATOM     19  C   UNL     1      -1.619  -2.618   7.668  0.00  0.00    +0.125 A 
BRANCH  14  20
ATOM     20  C   UNL     1      -2.155  -4.926   8.491  0.00  0.00    +0.019 C 
ATOM     21  C   UNL     1      -1.090  -6.022   8.526  0.00  0.00    +0.012 C 
BRANCH  20  23
ATOM     22  C   UNL     1      -3.914  -6.458   9.387  0.00  0.00    +0.004 C 
ATOM     23  C   UNL     1      -3.157  -5.150   9.626  0.00  0.00    +0.004 C 
ENDBRANCH  20  23
ENDBRANCH  14  20
ENDBRANCH  13  19
ENDBRANCH  10  13
ENDBRANCH   1  10
BRANCH   8  24
ATOM     24  C   UNL     1       0.235   0.067   0.122  0.00  0.00    -0.007 C 
BRANCH  24  25
ATOM     25  C   UNL     1       0.142   1.571   0.116  0.00  0.00    -0.057 A 
ATOM     26  C   UNL     1      -1.093   2.187   0.051  0.00  0.00    +0.002 A 
ATOM     27  C   UNL     1      -1.179   3.567   0.050  0.00  0.00    +0.000 A 
ATOM     28  C   UNL     1      -0.028   4.330   0.105  0.00  0.00    +0.000 A 
ATOM     29  C   UNL     1       1.208   3.714   0.165  0.00  0.00    +0.000 A 
ATOM     30  C   UNL     1       1.293   2.335   0.171  0.00  0.00    +0.002 A 
ENDBRANCH  24  25
BRANCH  24  31
ATOM     31  C   UNL     1       0.087  -0.451  -1.285  0.00  0.00    -0.057 A 
ATOM     32  C   UNL     1      -1.169  -0.570  -1.849  0.00  0.00    +0.002 A 
ATOM     33  C   UNL     1      -1.305  -1.041  -3.142  0.00  0.00    +0.000 A 
ATOM     34  C   UNL     1      -0.185  -1.401  -3.867  0.00  0.00    +0.000 A 
ATOM     35  C   UNL     1       1.071  -1.287  -3.301  0.00  0.00    +0.000 A 
ATOM     36  C   UNL     1       1.207  -0.812  -2.010  0.00  0.00    +0.002 A 
ENDBRANCH  24  31
ENDBRANCH   8  24
TORSDOF 9
