REMARK  Name = ZINC37907874
REMARK  6 active torsions:
REMARK  status: ('A' for Active; 'I' for Inactive)
REMARK    1  A    between atoms: C_1  and  C_2
REMARK    2  A    between atoms: C_5  and  N_12
REMARK    3  A    between atoms: N_9  and  C_11
REMARK    4  A    between atoms: N_12  and  C_13
REMARK    5  A    between atoms: C_13  and  C_15
REMARK    6  A    between atoms: C_13  and  C_16
REMARK                            x       y       z     vdW  Elec       q    Type
REMARK                         _______ _______ _______ _____ _____    ______ ____
ROOT
ATOM      1  C   UNL     1      -0.018   1.503   0.010  0.00  0.00    +0.068 C 
ATOM      2  C   UNL     1       0.002  -0.004   0.002  0.00  0.00    +0.069 A 
ATOM      3  C   UNL     1       0.008  -0.858  -1.180  0.00  0.00    +0.043 A 
ATOM      4  C   UNL     1      -0.002  -0.615  -2.559  0.00  0.00    +0.038 A 
ATOM      5  C   UNL     1       0.009  -1.707  -3.413  0.00  0.00    +0.047 A 
ATOM      6  C   UNL     1       0.028  -2.994  -2.876  0.00  0.00    +0.136 A 
ATOM      7  N   UNL     1       0.037  -3.195  -1.577  0.00  0.00    -0.234 NA
ATOM      8  C   UNL     1       0.029  -2.187  -0.714  0.00  0.00    +0.158 A 
ATOM      9  N   UNL     1       0.034  -2.120   0.655  0.00  0.00    -0.249 N 
ATOM     10  N   UNL     1       0.023  -0.778   1.049  0.00  0.00    -0.174 NA
ATOM     11  C   UNL     1       0.053  -3.270   1.562  0.00  0.00    +0.174 C 
ENDROOT
BRANCH   5  12
ATOM     12  N   UNL     1      -0.002  -1.520  -4.800  0.00  0.00    -0.335 N 
ATOM     13  H   UNL     1      -0.016  -0.623  -5.168  0.00  0.00    +0.147 HD
BRANCH  12  14
ATOM     14  C   UNL     1       0.009  -2.679  -5.696  0.00  0.00    +0.118 C 
ATOM     15  C   UNL     1       1.452  -3.140  -5.915  0.00  0.00    +0.034 C 
BRANCH  14  16
ATOM     16  C   UNL     1      -0.603  -2.298  -7.018  0.00  0.00    +0.083 A 
ATOM     17  C   UNL     1      -1.217  -3.173  -7.920  0.00  0.00    +0.046 A 
ATOM     18  C   UNL     1      -1.638  -2.448  -8.983  0.00  0.00    +0.105 A 
ATOM     19  N   UNL     1      -1.302  -1.160  -8.761  0.00  0.00    -0.284 N 
ATOM     20  H   UNL     1      -1.478  -0.414  -9.355  0.00  0.00    +0.188 HD
ATOM     21  N   UNL     1      -0.658  -1.090  -7.519  0.00  0.00    -0.177 NA
ENDBRANCH  14  16
ENDBRANCH  12  14
ENDBRANCH   5  12
TORSDOF 3
