REMARK  Name = ZINC35518625
REMARK  20 active torsions:
REMARK  status: ('A' for Active; 'I' for Inactive)
REMARK    1  A    between atoms: C_1  and  C_2
REMARK    2  A    between atoms: C_2  and  C_3
REMARK    3  A    between atoms: C_3  and  C_4
REMARK    4  A    between atoms: C_4  and  C_6
REMARK    5  A    between atoms: C_4  and  O_38
REMARK    6  A    between atoms: C_6  and  N_7
REMARK    7  A    between atoms: N_7  and  C_8
REMARK    8  A    between atoms: N_7  and  C_35
REMARK    9  A    between atoms: C_8  and  C_9
REMARK   10  A    between atoms: N_11  and  C_12
REMARK   11  A    between atoms: N_11  and  C_24
REMARK   12  A    between atoms: C_12  and  C_13
REMARK   13  A    between atoms: C_13  and  C_14
REMARK   14  A    between atoms: C_24  and  C_25
REMARK   15  A    between atoms: C_28  and  C_31
REMARK   16  A    between atoms: C_31  and  C_32
REMARK   17  A    between atoms: C_31  and  C_33
REMARK   18  A    between atoms: C_31  and  C_34
REMARK   19  A    between atoms: C_35  and  C_36
REMARK   20  A    between atoms: C_35  and  C_37
REMARK                            x       y       z     vdW  Elec       q    Type
REMARK                         _______ _______ _______ _____ _____    ______ ____
ROOT
ATOM      1  C   UNL     1      -1.938  -5.165  -0.088  0.00  0.00    +0.199 C 
ATOM      2  O   UNL     1      -0.982  -5.762   0.360  0.00  0.00    -0.278 OA
ATOM      3  N   UNL     1      -3.083  -5.825  -0.348  0.00  0.00    -0.298 N 
ENDROOT
BRANCH   1   4
ATOM      4  C   UNL     1      -1.845  -3.684  -0.353  0.00  0.00    +0.019 C 
BRANCH   4   5
ATOM      5  N   UNL     1      -0.457  -3.240  -0.169  0.00  0.00    +0.389 N 
ATOM      6  H   UNL     1      -0.056  -3.710   0.629  0.00  0.00    -0.081 HD
BRANCH   5   7
ATOM      7  C   UNL     1       0.324  -3.563  -1.371  0.00  0.00    -0.074 C 
ATOM      8  C   UNL     1       0.291  -5.074  -1.609  0.00  0.00    -0.014 C 
ATOM      9  C   UNL     1      -0.278  -2.843  -2.579  0.00  0.00    -0.014 C 
ENDBRANCH   5   7
BRANCH   5  10
ATOM     10  C   UNL     1      -0.433  -1.788   0.054  0.00  0.00    -0.046 C 
BRANCH  10  11
ATOM     11  C   UNL     1       0.992  -1.349   0.399  0.00  0.00    +0.098 C 
BRANCH  11  12
ATOM     12  O   UNL     1       1.391  -1.951   1.632  0.00  0.00    -0.394 OA
ATOM     13  H   UNL     1       0.830  -1.716   2.384  0.00  0.00    +0.210 HD
ENDBRANCH  11  12
BRANCH  11  14
ATOM     14  C   UNL     1       1.036   0.174   0.538  0.00  0.00    +0.029 C 
BRANCH  14  16
ATOM     15  C   UNL     1       2.526   2.148   0.898  0.00  0.00    +0.004 C 
ATOM     16  C   UNL     1       2.482   0.625   0.759  0.00  0.00    -0.001 C 
ENDBRANCH  14  16
ENDBRANCH  11  14
ENDBRANCH  10  11
ENDBRANCH   5  10
ENDBRANCH   4   5
ENDBRANCH   1   4
BRANCH   3  17
ATOM     17  C   UNL     1      -3.214  -7.237   0.019  0.00  0.00    +0.113 C 
BRANCH  17  18
ATOM     18  C   UNL     1      -3.775  -7.345   1.439  0.00  0.00    +0.056 C 
BRANCH  18  19
ATOM     19  C   UNL     1      -3.909  -8.798   1.817  0.00  0.00    -0.021 A 
ATOM     20  C   UNL     1      -5.012  -9.554   1.700  0.00  0.00    +0.087 A 
ATOM     21  N   UNL     1      -4.757 -10.823   2.144  0.00  0.00    -0.360 N 
ATOM     22  H   UNL     1      -5.400 -11.549   2.158  0.00  0.00    +0.165 HD
ATOM     23  C   UNL     1      -3.450 -10.916   2.568  0.00  0.00    +0.047 A 
ATOM     24  C   UNL     1      -2.860  -9.653   2.376  0.00  0.00    +0.003 A 
ATOM     25  C   UNL     1      -1.522  -9.451   2.716  0.00  0.00    +0.010 A 
ATOM     26  C   UNL     1      -0.789 -10.483   3.231  0.00  0.00    +0.001 A 
ATOM     27  C   UNL     1      -1.365 -11.732   3.419  0.00  0.00    +0.002 A 
ATOM     28  C   UNL     1      -2.687 -11.951   3.099  0.00  0.00    +0.026 A 
ENDBRANCH  18  19
ENDBRANCH  17  18
ENDBRANCH   3  17
BRANCH   3  29
ATOM     29  C   UNL     1      -4.197  -5.132  -0.999  0.00  0.00    +0.142 C 
BRANCH  29  30
ATOM     30  C   UNL     1      -4.157  -5.398  -2.482  0.00  0.00    -0.030 A 
ATOM     31  C   UNL     1      -3.498  -4.521  -3.324  0.00  0.00    +0.005 A 
ATOM     32  C   UNL     1      -3.461  -4.765  -4.684  0.00  0.00    +0.004 A 
ATOM     33  C   UNL     1      -4.083  -5.886  -5.202  0.00  0.00    -0.042 A 
ATOM     34  C   UNL     1      -4.741  -6.763  -4.360  0.00  0.00    +0.004 A 
ATOM     35  C   UNL     1      -4.774  -6.521  -3.000  0.00  0.00    +0.005 A 
BRANCH  33  36
ATOM     36  C   UNL     1      -4.043  -6.151  -6.685  0.00  0.00    -0.013 C 
ATOM     37  C   UNL     1      -2.589  -6.292  -7.140  0.00  0.00    +0.015 C 
ATOM     38  C   UNL     1      -4.801  -7.444  -6.992  0.00  0.00    +0.015 C 
ATOM     39  C   UNL     1      -4.700  -4.987  -7.429  0.00  0.00    +0.015 C 
ENDBRANCH  33  36
ENDBRANCH  29  30
ENDBRANCH   3  29
TORSDOF 14
