REMARK  Name = ZINC48366881
REMARK  13 active torsions:
REMARK  status: ('A' for Active; 'I' for Inactive)
REMARK    1  A    between atoms: C_1  and  C_2
REMARK    2  A    between atoms: C_2  and  O_3
REMARK    3  A    between atoms: O_3  and  C_4
REMARK    4  A    between atoms: C_7  and  N_13
REMARK    5  A    between atoms: C_9  and  O_10
REMARK    6  A    between atoms: O_10  and  C_11
REMARK    7  A    between atoms: C_11  and  C_12
REMARK    8  A    between atoms: C_14  and  C_16
REMARK    9  A    between atoms: C_16  and  N_17
REMARK   10  A    between atoms: N_17  and  C_18
REMARK   11  A    between atoms: N_17  and  C_19
REMARK   12  A    between atoms: C_19  and  C_20
REMARK   13  A    between atoms: N_23  and  C_25
REMARK                            x       y       z     vdW  Elec       q    Type
REMARK                         _______ _______ _______ _____ _____    ______ ____
ROOT
ATOM      1  N   UNL     1       0.226  -8.934  -0.347  0.00  0.00    +0.387 N 
ATOM      2  C   UNL     1       0.974  -8.732   0.902  0.00  0.00    -0.095 C 
ATOM      3  H   UNL     1       0.739  -8.528  -1.115  0.00  0.00    -0.081 HD
ENDROOT
BRANCH   1   4
ATOM      4  C   UNL     1      -1.089  -8.288  -0.240  0.00  0.00    +0.019 C 
BRANCH   4   6
ATOM      5  N   UNL     1      -1.985  -5.994  -0.010  0.00  0.00    -0.287 N 
ATOM      6  C   UNL     1      -0.908  -6.797  -0.120  0.00  0.00    +0.201 C 
ATOM      7  O   UNL     1       0.207  -6.319  -0.124  0.00  0.00    -0.278 OA
ATOM      8  H   UNL     1      -2.871  -6.380   0.070  0.00  0.00    +0.155 HD
BRANCH   5  12
ATOM      9  C   UNL     1      -1.502  -1.849  -0.015  0.00  0.00    +0.162 A 
ATOM     10  C   UNL     1      -0.653  -2.648  -0.765  0.00  0.00    +0.051 A 
ATOM     11  C   UNL     1      -0.813  -4.021  -0.763  0.00  0.00    +0.027 A 
ATOM     12  C   UNL     1      -1.824  -4.603  -0.010  0.00  0.00    +0.037 A 
ATOM     13  C   UNL     1      -2.676  -3.805   0.742  0.00  0.00    +0.072 A 
ATOM     14  C   UNL     1      -2.512  -2.430   0.746  0.00  0.00    +0.164 A 
BRANCH   9  15
ATOM     15  O   UNL     1      -1.343  -0.498  -0.017  0.00  0.00    -0.489 OA
BRANCH  15  17
ATOM     16  C   UNL     1      -0.262   1.554  -0.696  0.00  0.00    +0.048 C 
ATOM     17  C   UNL     1      -0.285   0.029  -0.820  0.00  0.00    +0.226 C 
ENDBRANCH  15  17
ENDBRANCH   9  15
BRANCH  14  18
ATOM     18  O   UNL     1      -3.342  -1.647   1.486  0.00  0.00    -0.489 OA
BRANCH  18  19
ATOM     19  C   UNL     1      -4.357  -2.311   2.242  0.00  0.00    +0.226 C 
ATOM     20  C   UNL     1      -5.185  -1.275   3.005  0.00  0.00    +0.048 C 
ENDBRANCH  18  19
ENDBRANCH  14  18
ENDBRANCH   5  12
ENDBRANCH   4   6
ENDBRANCH   1   4
BRANCH   1  21
ATOM     21  C   UNL     1       0.048 -10.373  -0.583  0.00  0.00    -0.020 C 
BRANCH  21  22
ATOM     22  C   UNL     1       1.391 -11.015  -0.814  0.00  0.00    +0.050 A 
ATOM     23  C   UNL     1       2.027 -11.164  -2.055  0.00  0.00    -0.005 A 
ATOM     24  C   UNL     1       3.209 -11.785  -1.843  0.00  0.00    +0.048 A 
ATOM     25  N   UNL     1       3.318 -12.021  -0.514  0.00  0.00    -0.236 N 
ATOM     26  N   UNL     1       2.167 -11.523   0.108  0.00  0.00    -0.173 NA
ATOM     27  C   UNL     1       3.944 -11.976  -3.152  0.00  0.00    +0.056 C 
ATOM     28  C   UNL     1       2.871 -11.779  -4.245  0.00  0.00    +0.011 C 
ATOM     29  C   UNL     1       1.846 -10.872  -3.529  0.00  0.00    +0.039 C 
BRANCH  25  30
ATOM     30  C   UNL     1       4.396 -12.649   0.127  0.00  0.00    +0.066 A 
ATOM     31  C   UNL     1       5.079 -13.677  -0.509  0.00  0.00    +0.030 A 
ATOM     32  C   UNL     1       6.140 -14.295   0.124  0.00  0.00    +0.040 A 
ATOM     33  C   UNL     1       6.522 -13.890   1.392  0.00  0.00    +0.124 A 
ATOM     34  C   UNL     1       5.842 -12.865   2.028  0.00  0.00    +0.040 A 
ATOM     35  C   UNL     1       4.785 -12.240   1.395  0.00  0.00    +0.030 A 
ATOM     36  F   UNL     1       7.560 -14.495   2.009  0.00  0.00    -0.205 F 
ENDBRANCH  25  30
ENDBRANCH  21  22
ENDBRANCH   1  21
TORSDOF 10
