REMARK  Name = ZINC27266795
REMARK  10 active torsions:
REMARK  status: ('A' for Active; 'I' for Inactive)
REMARK    1  A    between atoms: C_1  and  C_2
REMARK    2  A    between atoms: C_4  and  C_13
REMARK    3  A    between atoms: C_6  and  C_12
REMARK    4  A    between atoms: N_8  and  C_11
REMARK    5  A    between atoms: N_15  and  N_16
REMARK    6  A    between atoms: N_16  and  C_17
REMARK    7  A    between atoms: C_17  and  N_19
REMARK    8  A    between atoms: N_19  and  C_20
REMARK    9  A    between atoms: C_25  and  C_30
REMARK   10  A    between atoms: C_27  and  C_29
REMARK                            x       y       z     vdW  Elec       q    Type
REMARK                         _______ _______ _______ _____ _____    ______ ____
ROOT
ATOM      1  C   UNL     1       2.599   1.364  -0.486  0.00  0.00    +0.261 C 
ATOM      2  O   UNL     1       3.609   2.038  -0.426  0.00  0.00    -0.269 OA
ATOM      3  N   UNL     1       2.689   0.028  -0.641  0.00  0.00    -0.231 N 
ATOM      4  H   UNL     1       1.775  -0.582  -0.695  0.00  0.00    +0.173 HD
ENDROOT
BRANCH   1   8
ATOM      5  C   UNL     1      -2.183   1.727  -1.888  0.00  0.00    +0.065 C 
ATOM      6  C   UNL     1      -1.028   2.204  -1.046  0.00  0.00    +0.041 A 
ATOM      7  C   UNL     1       0.200   1.568  -1.161  0.00  0.00    +0.037 A 
ATOM      8  C   UNL     1       1.272   2.010  -0.390  0.00  0.00    +0.052 A 
ATOM      9  C   UNL     1       1.051   3.095   0.488  0.00  0.00    +0.054 A 
ATOM     10  C   UNL     1       1.867   3.798   1.400  0.00  0.00    +0.070 A 
ATOM     11  N   UNL     1       1.151   4.728   1.965  0.00  0.00    -0.174 NA
ATOM     12  N   UNL     1      -0.156   4.689   1.464  0.00  0.00    -0.249 N 
ATOM     13  C   UNL     1      -0.231   3.676   0.544  0.00  0.00    +0.159 A 
ATOM     14  N   UNL     1      -1.210   3.208  -0.218  0.00  0.00    -0.233 NA
ATOM     15  C   UNL     1      -1.253   5.578   1.856  0.00  0.00    +0.174 C 
ATOM     16  C   UNL     1       3.322   3.519   1.674  0.00  0.00    +0.068 C 
ENDBRANCH   1   8
BRANCH   3  17
ATOM     17  N   UNL     1       3.946  -0.583  -0.732  0.00  0.00    -0.246 N 
ATOM     18  H   UNL     1       4.860   0.027  -0.678  0.00  0.00    +0.172 HD
BRANCH  17  19
ATOM     19  C   UNL     1       4.036  -1.919  -0.887  0.00  0.00    +0.147 C 
ATOM     20  S   UNL     1       5.572  -2.667  -0.998  0.00  0.00    -0.017 S 
BRANCH  19  21
ATOM     21  N   UNL     1       2.917  -2.667  -0.953  0.00  0.00    -0.322 N 
ATOM     22  H   UNL     1       1.930  -2.187  -0.881  0.00  0.00    +0.148 HD
BRANCH  21  23
ATOM     23  C   UNL     1       3.014  -4.119  -1.121  0.00  0.00    +0.075 C 
ATOM     24  C   UNL     1       3.150  -4.452  -2.608  0.00  0.00    +0.022 C 
ATOM     25  C   UNL     1       3.251  -5.969  -2.784  0.00  0.00    +0.002 C 
ATOM     26  C   UNL     1       1.992  -6.633  -2.225  0.00  0.00    +0.003 C 
ATOM     27  C   UNL     1       1.856  -6.299  -0.738  0.00  0.00    -0.009 C 
ATOM     28  C   UNL     1       1.754  -4.783  -0.562  0.00  0.00    +0.009 C 
ATOM     29  C   UNL     1       1.619  -4.449   0.925  0.00  0.00    +0.009 C 
ATOM     30  C   UNL     1       0.596  -6.963  -0.179  0.00  0.00    +0.008 C 
ENDBRANCH  21  23
ENDBRANCH  19  21
ENDBRANCH  17  19
ENDBRANCH   3  17
TORSDOF 5
