REMARK  Name = ZINC24577621
REMARK  13 active torsions:
REMARK  status: ('A' for Active; 'I' for Inactive)
REMARK    1  A    between atoms: C_1  and  C_2
REMARK    2  A    between atoms: C_5  and  S_8
REMARK    3  A    between atoms: S_8  and  N_11
REMARK    4  A    between atoms: N_11  and  C_12
REMARK    5  A    between atoms: N_11  and  C_18
REMARK    6  A    between atoms: C_12  and  C_13
REMARK    7  A    between atoms: C_18  and  C_19
REMARK    8  A    between atoms: N_21  and  C_22
REMARK    9  A    between atoms: C_22  and  C_23
REMARK   10  A    between atoms: C_23  and  C_25
REMARK   11  A    between atoms: C_23  and  N_31
REMARK   12  A    between atoms: N_31  and  C_32
REMARK   13  A    between atoms: N_31  and  C_33
REMARK                            x       y       z     vdW  Elec       q    Type
REMARK                         _______ _______ _______ _____ _____    ______ ____
ROOT
ATOM      1  N   UNL     1       1.816   6.469   5.243  0.00  0.00    -0.160 NA
ENDROOT
BRANCH   1   2
ATOM      2  S   UNL     1       3.262   6.342   6.040  0.00  0.00    +0.062 S 
ATOM      3  O   UNL     1       2.977   5.778   7.312  0.00  0.00    -0.153 OA
ATOM      4  O   UNL     1       4.176   5.746   5.130  0.00  0.00    -0.153 OA
BRANCH   2   9
ATOM      5  C   UNL     1       5.241  11.952   7.048  0.00  0.00    +0.044 C 
ATOM      6  C   UNL     1       4.747  10.551   6.796  0.00  0.00    -0.050 A 
ATOM      7  C   UNL     1       3.943   9.924   7.729  0.00  0.00    +0.005 A 
ATOM      8  C   UNL     1       3.490   8.638   7.498  0.00  0.00    +0.029 A 
ATOM      9  C   UNL     1       3.840   7.981   6.334  0.00  0.00    +0.106 A 
ATOM     10  C   UNL     1       4.648   8.606   5.403  0.00  0.00    +0.029 A 
ATOM     11  C   UNL     1       5.097   9.893   5.632  0.00  0.00    +0.005 A 
ENDBRANCH   2   9
ENDBRANCH   1   2
BRANCH   1  12
ATOM     12  C   UNL     1       0.565   6.541   6.003  0.00  0.00    +0.184 C 
BRANCH  12  13
ATOM     13  C   UNL     1      -0.031   5.162   6.121  0.00  0.00    +0.120 A 
ATOM     14  C   UNL     1       0.211   4.282   7.109  0.00  0.00    +0.046 A 
ATOM     15  C   UNL     1      -0.550   3.125   6.824  0.00  0.00    +0.041 A 
ATOM     16  C   UNL     1      -1.213   3.368   5.678  0.00  0.00    +0.195 A 
ATOM     17  O   UNL     1      -0.899   4.605   5.260  0.00  0.00    -0.466 OA
ENDBRANCH  12  13
ENDBRANCH   1  12
BRANCH   1  18
ATOM     18  C   UNL     1       1.787   6.509   3.779  0.00  0.00    +0.205 C 
BRANCH  18  19
ATOM     19  C   UNL     1       1.550   5.120   3.243  0.00  0.00    +0.229 C 
ATOM     20  O   UNL     1       1.419   4.189   4.009  0.00  0.00    -0.274 OA
ATOM     21  N   UNL     1       1.485   4.914   1.913  0.00  0.00    -0.315 N 
ATOM     22  H   UNL     1       1.605   5.758   1.218  0.00  0.00    +0.149 HD
BRANCH  21  23
ATOM     23  C   UNL     1       1.255   3.564   1.392  0.00  0.00    +0.093 C 
BRANCH  23  24
ATOM     24  C   UNL     1       1.158   3.616  -0.134  0.00  0.00    -0.021 C 
BRANCH  24  25
ATOM     25  C   UNL     1       0.950   2.224  -0.672  0.00  0.00    -0.059 A 
ATOM     26  C   UNL     1      -0.265   1.873  -1.231  0.00  0.00    +0.002 A 
ATOM     27  C   UNL     1      -0.456   0.596  -1.725  0.00  0.00    +0.000 A 
ATOM     28  C   UNL     1       0.568  -0.330  -1.660  0.00  0.00    +0.000 A 
ATOM     29  C   UNL     1       1.783   0.020  -1.101  0.00  0.00    +0.000 A 
ATOM     30  C   UNL     1       1.974   1.297  -0.607  0.00  0.00    +0.002 A 
ENDBRANCH  24  25
BRANCH  24  31
ATOM     31  N   UNL     1       2.401   4.172  -0.685  0.00  0.00    +0.382 N 
ATOM     32  C   UNL     1       3.541   3.893   0.200  0.00  0.00    -0.096 C 
ATOM     33  C   UNL     1       2.650   3.665  -2.041  0.00  0.00    -0.096 C 
ATOM     34  H   UNL     1       2.284   5.264  -0.749  0.00  0.00    -0.082 HD
ENDBRANCH  24  31
ENDBRANCH  23  24
ENDBRANCH  21  23
ENDBRANCH  18  19
ENDBRANCH   1  18
TORSDOF 10
