REMARK  Name = ZINC06245031
REMARK  10 active torsions:
REMARK  status: ('A' for Active; 'I' for Inactive)
REMARK    1  A    between atoms: C_1  and  C_2
REMARK    2  A    between atoms: C_5  and  C_8
REMARK    3  A    between atoms: N_13  and  C_16
REMARK    4  A    between atoms: C_19  and  N_33
REMARK    5  A    between atoms: C_20  and  N_22
REMARK    6  A    between atoms: N_22  and  C_23
REMARK    7  A    between atoms: C_23  and  C_24
REMARK    8  A    between atoms: C_27  and  C_30
REMARK    9  A    between atoms: C_30  and  C_31
REMARK   10  A    between atoms: C_30  and  C_32
REMARK                            x       y       z     vdW  Elec       q    Type
REMARK                         _______ _______ _______ _____ _____    ______ ____
ROOT
ATOM      1  C   UNL     1       3.245   1.973  -2.291  0.00  0.00    +0.032 A 
ATOM      2  C   UNL     1       4.624   1.893  -2.134  0.00  0.00    +0.025 A 
ATOM      3  C   UNL     1       5.312   0.794  -2.608  0.00  0.00    +0.036 A 
ATOM      4  C   UNL     1       4.633  -0.230  -3.240  0.00  0.00    +0.147 A 
ATOM      5  C   UNL     1       3.255  -0.157  -3.401  0.00  0.00    +0.060 A 
ATOM      6  C   UNL     1       2.560   0.946  -2.925  0.00  0.00    +0.048 A 
ENDROOT
BRANCH   1  12
ATOM      7  C   UNL     1       1.682   7.065  -1.708  0.00  0.00    +0.247 C 
ATOM      8  O   UNL     1       2.465   7.798  -1.137  0.00  0.00    -0.270 OA
ATOM      9  N   UNL     1       1.736   5.733  -1.508  0.00  0.00    -0.295 N 
ATOM     10  C   UNL     1       2.650   5.157  -0.509  0.00  0.00    +0.127 C 
ATOM     11  C   UNL     1       3.464   4.045  -1.179  0.00  0.00    +0.124 C 
ATOM     12  N   UNL     1       2.550   3.085  -1.811  0.00  0.00    -0.327 N 
ATOM     13  C   UNL     1       1.769   3.719  -2.882  0.00  0.00    +0.124 C 
ATOM     14  C   UNL     1       0.884   4.818  -2.282  0.00  0.00    +0.127 C 
BRANCH   7  19
ATOM     15  C   UNL     1      -2.260   9.278  -5.269  0.00  0.00    +0.044 C 
ATOM     16  C   UNL     1      -1.227   8.699  -4.337  0.00  0.00    -0.050 A 
ATOM     17  C   UNL     1       0.022   9.286  -4.241  0.00  0.00    +0.004 A 
ATOM     18  C   UNL     1       0.971   8.760  -3.389  0.00  0.00    +0.013 A 
ATOM     19  C   UNL     1       0.669   7.634  -2.623  0.00  0.00    +0.037 A 
ATOM     20  C   UNL     1      -0.591   7.043  -2.728  0.00  0.00    +0.013 A 
ATOM     21  C   UNL     1      -1.533   7.582  -3.580  0.00  0.00    +0.004 A 
ENDBRANCH   7  19
ENDBRANCH   1  12
BRANCH   4  22
ATOM     22  N   UNL     1       5.375  -1.407  -3.747  0.00  0.00    +0.058 N 
ATOM     23  O   UNL     1       6.312  -1.856  -3.112  0.00  0.00    -0.126 OA
ATOM     24  O   UNL     1       5.049  -1.925  -4.800  0.00  0.00    -0.126 OA
ENDBRANCH   4  22
BRANCH   5  25
ATOM     25  N   UNL     1       2.570  -1.193  -4.039  0.00  0.00    -0.338 N 
ATOM     26  H   UNL     1       3.062  -1.932  -4.430  0.00  0.00    +0.146 HD
BRANCH  25  27
ATOM     27  C   UNL     1       1.107  -1.163  -4.120  0.00  0.00    +0.137 C 
BRANCH  27  28
ATOM     28  C   UNL     1       0.620  -2.386  -4.852  0.00  0.00    -0.030 A 
ATOM     29  C   UNL     1       0.459  -2.352  -6.225  0.00  0.00    +0.005 A 
ATOM     30  C   UNL     1       0.016  -3.475  -6.898  0.00  0.00    +0.004 A 
ATOM     31  C   UNL     1      -0.276  -4.630  -6.197  0.00  0.00    -0.045 A 
ATOM     32  C   UNL     1      -0.121  -4.663  -4.823  0.00  0.00    +0.004 A 
ATOM     33  C   UNL     1       0.327  -3.541  -4.151  0.00  0.00    +0.005 A 
BRANCH  31  34
ATOM     34  C   UNL     1      -0.763  -5.854  -6.929  0.00  0.00    +0.013 C 
ATOM     35  C   UNL     1      -2.066  -5.526  -7.660  0.00  0.00    +0.012 C 
ATOM     36  C   UNL     1       0.294  -6.295  -7.945  0.00  0.00    +0.012 C 
ENDBRANCH  31  34
ENDBRANCH  27  28
ENDBRANCH  25  27
ENDBRANCH   5  25
TORSDOF 7
