REMARK  Name = ZINC04652820
REMARK  6 active torsions:
REMARK  status: ('A' for Active; 'I' for Inactive)
REMARK    1  A    between atoms: C_1  and  C_2
REMARK    2  A    between atoms: C_2  and  C_3
REMARK    3  A    between atoms: C_3  and  C_4
REMARK    4  A    between atoms: C_6  and  C_22
REMARK    5  A    between atoms: C_8  and  C_15
REMARK    6  A    between atoms: C_10  and  C_14
REMARK                            x       y       z     vdW  Elec       q    Type
REMARK                         _______ _______ _______ _____ _____    ______ ____
ROOT
ATOM      1  C   UNL     1      -1.526  -1.366   1.406  0.00  0.00    +0.046 C 
ATOM      2  C   UNL     1      -1.293  -0.775   0.011  0.00  0.00    -0.030 C 
ATOM      3  C   UNL     1      -0.052  -2.719  -0.749  0.00  0.00    -0.030 C 
ATOM      4  C   UNL     1      -0.201  -3.442   0.595  0.00  0.00    +0.043 C 
ATOM      5  C   UNL     1      -0.454  -2.403   1.667  0.00  0.00    +0.137 C 
ATOM      6  O   UNL     1       0.178  -2.401   2.696  0.00  0.00    -0.297 OA
ATOM      7  C   UNL     1      -1.381  -4.414   0.530  0.00  0.00    +0.014 C 
ATOM      8  N   UNL     1      -1.232  -1.864  -0.985  0.00  0.00    +0.389 N 
ATOM      9  H   UNL     1      -1.172  -1.458  -1.926  0.00  0.00    -0.084 HD
ATOM     10  H   UNL     1      -2.083  -2.435  -0.913  0.00  0.00    -0.084 HD
ENDROOT
BRANCH   3  11
ATOM     11  C   UNL     1       0.048  -3.735  -1.857  0.00  0.00    -0.061 A 
ATOM     12  C   UNL     1      -1.095  -4.341  -2.344  0.00  0.00    +0.003 A 
ATOM     13  C   UNL     1      -1.004  -5.269  -3.365  0.00  0.00    +0.020 A 
ATOM     14  C   UNL     1       0.232  -5.598  -3.892  0.00  0.00    +0.041 A 
ATOM     15  C   UNL     1       1.376  -4.995  -3.401  0.00  0.00    +0.020 A 
ATOM     16  C   UNL     1       1.284  -4.064  -2.384  0.00  0.00    +0.003 A 
ATOM     17 CL   UNL     1       0.347  -6.768  -5.170  0.00  0.00    -0.084 Cl
ENDBRANCH   3  11
BRANCH   2  18
ATOM     18  C   UNL     1       0.002  -0.004   0.002  0.00  0.00    -0.061 A 
ATOM     19  C   UNL     1       0.272   0.881  -1.025  0.00  0.00    +0.003 A 
ATOM     20  C   UNL     1       1.459   1.589  -1.033  0.00  0.00    +0.020 A 
ATOM     21  C   UNL     1       2.378   1.411  -0.014  0.00  0.00    +0.041 A 
ATOM     22  C   UNL     1       2.107   0.525   1.014  0.00  0.00    +0.020 A 
ATOM     23  C   UNL     1       0.919  -0.182   1.021  0.00  0.00    +0.003 A 
ATOM     24 CL   UNL     1       3.869   2.300  -0.023  0.00  0.00    -0.084 Cl
ENDBRANCH   2  18
BRANCH   1  25
ATOM     25  C   UNL     1      -1.441  -0.258   2.457  0.00  0.00    +0.009 C 
BRANCH  25  27
ATOM     26  C   UNL     1      -1.711   0.280   4.882  0.00  0.00    +0.004 C 
ATOM     27  C   UNL     1      -1.797  -0.829   3.831  0.00  0.00    -0.003 C 
ENDBRANCH  25  27
ENDBRANCH   1  25
TORSDOF 4
