REMARK  Name = ZINC62715879
REMARK  8 active torsions:
REMARK  status: ('A' for Active; 'I' for Inactive)
REMARK    1  A    between atoms: C_5  and  C_7
REMARK    2  A    between atoms: C_7  and  O_8
REMARK    3  A    between atoms: O_8  and  C_9
REMARK    4  A    between atoms: C_14  and  C_15
REMARK    5  A    between atoms: C_16  and  C_17
REMARK    6  A    between atoms: N_19  and  N_20
REMARK    7  A    between atoms: N_20  and  C_21
REMARK    8  A    between atoms: C_21  and  N_23
REMARK                            x       y       z     vdW  Elec       q    Type
REMARK                         _______ _______ _______ _____ _____    ______ ____
ROOT
ATOM      1  C   UNL     1      -0.272  -4.028  -0.017  0.00  0.00    +0.128 A 
ATOM      2  C   UNL     1       0.836  -4.860  -0.027  0.00  0.00    +0.047 A 
ATOM      3  C   UNL     1       0.673  -6.232  -0.033  0.00  0.00    +0.019 A 
ATOM      4  C   UNL     1      -0.597  -6.788  -0.030  0.00  0.00    +0.019 A 
ATOM      5  C   UNL     1      -1.711  -5.976  -0.020  0.00  0.00    +0.026 A 
ATOM      6  C   UNL     1      -1.560  -4.585  -0.007  0.00  0.00    +0.018 A 
ATOM      7 BR   UNL     1      -0.802  -8.668  -0.040  0.00  0.00    -0.050 Br
ENDROOT
BRANCH   6   8
ATOM      8  C   UNL     1      -2.743  -3.714   0.010  0.00  0.00    +0.016 C 
ATOM      9  C   UNL     1      -3.980  -4.254   0.020  0.00  0.00    +0.069 C 
BRANCH   9  10
ATOM     10  C   UNL     1      -5.157  -3.386   0.037  0.00  0.00    +0.253 C 
ATOM     11  O   UNL     1      -5.021  -2.177   0.043  0.00  0.00    -0.269 OA
ATOM     12  N   UNL     1      -6.392  -3.926   0.046  0.00  0.00    -0.232 N 
ATOM     13  H   UNL     1      -6.500  -4.890   0.042  0.00  0.00    +0.173 HD
BRANCH  12  14
ATOM     14  N   UNL     1      -7.519  -3.095   0.063  0.00  0.00    -0.246 N 
ATOM     15  H   UNL     1      -7.411  -2.131   0.068  0.00  0.00    +0.172 HD
BRANCH  14  16
ATOM     16  C   UNL     1      -8.755  -3.634   0.072  0.00  0.00    +0.144 C 
ATOM     17  S   UNL     1     -10.132  -2.619   0.093  0.00  0.00    -0.018 S 
BRANCH  16  18
ATOM     18  N   UNL     1      -8.905  -4.974   0.066  0.00  0.00    -0.340 N 
ATOM     19  H   UNL     1      -8.124  -5.549   0.054  0.00  0.00    +0.144 HD
ATOM     20  H   UNL     1      -9.793  -5.362   0.073  0.00  0.00    +0.144 HD
ENDBRANCH  16  18
ENDBRANCH  14  16
ENDBRANCH  12  14
ENDBRANCH   9  10
ENDBRANCH   6   8
BRANCH   1  21
ATOM     21  O   UNL     1      -0.112  -2.680  -0.011  0.00  0.00    -0.487 OA
BRANCH  21  22
ATOM     22  C   UNL     1       1.229  -2.186  -0.022  0.00  0.00    +0.266 C 
BRANCH  22  27
ATOM     23  C   UNL     1      -0.017   1.378   0.010  0.00  0.00    +0.000 A 
ATOM     24  C   UNL     1       1.171   2.086   0.002  0.00  0.00    +0.001 A 
ATOM     25  C   UNL     1       2.377   1.412  -0.013  0.00  0.00    +0.020 A 
ATOM     26  C   UNL     1       2.397   0.029  -0.021  0.00  0.00    +0.047 A 
ATOM     27  C   UNL     1       1.208  -0.679  -0.013  0.00  0.00    +0.008 A 
ATOM     28  C   UNL     1       0.002  -0.004   0.002  0.00  0.00    +0.008 A 
ATOM     29 CL   UNL     1       3.912  -0.818  -0.041  0.00  0.00    -0.083 Cl
ENDBRANCH  22  27
ENDBRANCH  21  22
ENDBRANCH   1  21
TORSDOF 8
