REMARK  Name = ZINC05365276
REMARK  11 active torsions:
REMARK  status: ('A' for Active; 'I' for Inactive)
REMARK    1  A    between atoms: C_1  and  C_2
REMARK    2  A    between atoms: C_5  and  N_9
REMARK    3  A    between atoms: C_6  and  C_8
REMARK    4  A    between atoms: C_10  and  C_12
REMARK    5  A    between atoms: C_12  and  O_13
REMARK    6  A    between atoms: O_13  and  C_14
REMARK    7  A    between atoms: C_14  and  C_16
REMARK    8  A    between atoms: C_16  and  N_17
REMARK    9  A    between atoms: C_22  and  C_29
REMARK   10  A    between atoms: C_25  and  C_27
REMARK   11  A    between atoms: C_25  and  C_28
REMARK                            x       y       z     vdW  Elec       q    Type
REMARK                         _______ _______ _______ _____ _____    ______ ____
ROOT
ATOM      1  C   UNL     1       0.521   2.351  -0.120  0.00  0.00    +0.238 C 
ENDROOT
BRANCH   1   2
ATOM      2  N   UNL     1      -0.343   2.527  -1.290  0.00  0.00    -0.213 N 
ATOM      3  C   UNL     1      -1.272   1.634  -1.687  0.00  0.00    +0.247 C 
ATOM      4  O   UNL     1      -1.542   0.574  -1.165  0.00  0.00    -0.273 OA
ATOM      5  C   UNL     1      -1.909   2.235  -2.919  0.00  0.00    +0.113 C 
ATOM      6  C   UNL     1      -1.691   1.325  -4.123  0.00  0.00    +0.038 C 
ATOM      7  C   UNL     1      -2.308   1.966  -5.368  0.00  0.00    -0.011 C 
ATOM      8  C   UNL     1      -3.805   2.186  -5.138  0.00  0.00    +0.009 C 
ATOM      9  C   UNL     1      -4.008   3.118  -3.941  0.00  0.00    -0.032 C 
ATOM     10  C   UNL     1      -3.396   2.480  -2.691  0.00  0.00    +0.041 C 
ATOM     11  C   UNL     1      -5.504   3.344  -3.719  0.00  0.00    +0.011 C 
ATOM     12  C   UNL     1      -3.324   4.459  -4.216  0.00  0.00    +0.011 C 
ATOM     13  C   UNL     1      -2.108   1.043  -6.572  0.00  0.00    +0.007 C 
ATOM     14  N   UNL     1      -1.200   3.508  -3.102  0.00  0.00    -0.285 N 
ATOM     15  C   UNL     1      -0.303   3.591  -2.101  0.00  0.00    +0.310 C 
ATOM     16  O   UNL     1       0.458   4.527  -1.952  0.00  0.00    -0.252 OA
ATOM     17  H   UNL     1      -1.349   4.160  -3.805  0.00  0.00    +0.151 HD
ENDBRANCH   1   2
BRANCH   1  18
ATOM     18  C   UNL     1      -0.149   2.945   1.093  0.00  0.00    +0.326 C 
ATOM     19  O   UNL     1      -1.236   3.461   0.990  0.00  0.00    -0.249 OA
BRANCH  18  20
ATOM     20  O   UNL     1       0.462   2.899   2.287  0.00  0.00    -0.454 OA
BRANCH  20  21
ATOM     21  C   UNL     1      -0.242   3.490   3.410  0.00  0.00    +0.328 C 
BRANCH  21  23
ATOM     22  N   UNL     1       0.136   3.825   5.832  0.00  0.00    -0.282 N 
ATOM     23  C   UNL     1       0.592   3.346   4.658  0.00  0.00    +0.255 C 
ATOM     24  O   UNL     1       1.673   2.799   4.605  0.00  0.00    -0.272 OA
ATOM     25  H   UNL     1      -0.754   4.206   5.888  0.00  0.00    +0.155 HD
BRANCH  22  30
ATOM     26  C   UNL     1       3.424   3.614  10.450  0.00  0.00    +0.044 C 
ATOM     27  C   UNL     1       2.551   3.670   9.223  0.00  0.00    -0.050 A 
ATOM     28  C   UNL     1       2.730   2.751   8.206  0.00  0.00    +0.005 A 
ATOM     29  C   UNL     1       1.931   2.800   7.080  0.00  0.00    +0.024 A 
ATOM     30  C   UNL     1       0.947   3.773   6.971  0.00  0.00    +0.036 A 
ATOM     31  C   UNL     1       0.773   4.698   7.992  0.00  0.00    -0.029 A 
ATOM     32  C   UNL     1       1.571   4.640   9.118  0.00  0.00    +0.008 A 
ATOM     33  C   UNL     1      -0.290   5.760   7.875  0.00  0.00    +0.045 C 
ENDBRANCH  22  30
ENDBRANCH  21  23
ENDBRANCH  20  21
ENDBRANCH  18  20
ENDBRANCH   1  18
TORSDOF 6
