REMARK  Name = ZINC39327267
REMARK  6 active torsions:
REMARK  status: ('A' for Active; 'I' for Inactive)
REMARK    1  A    between atoms: C_1  and  C_2
REMARK    2  A    between atoms: C_2  and  C_3
REMARK    3  A    between atoms: C_2  and  C_4
REMARK    4  A    between atoms: C_11  and  N_23
REMARK    5  A    between atoms: C_12  and  C_21
REMARK    6  A    between atoms: C_13  and  C_15
REMARK                            x       y       z     vdW  Elec       q    Type
REMARK                         _______ _______ _______ _____ _____    ______ ____
ROOT
ATOM      1  C   UNL     1       0.731  -0.503   1.223  0.00  0.00    +0.046 A 
ATOM      2  C   UNL     1       0.223  -1.294   2.180  0.00  0.00    +0.050 A 
ATOM      3  C   UNL     1       1.233  -1.524   3.140  0.00  0.00    +0.245 A 
ATOM      4  N   UNL     1       2.303  -0.890   2.760  0.00  0.00    -0.135 NA
ATOM      5  N   UNL     1       2.018  -0.239   1.549  0.00  0.00    -0.278 N 
ATOM      6  H   UNL     1       2.634   0.306   1.036  0.00  0.00    +0.189 HD
ATOM      7  O   UNL     1       1.018  -2.293   4.242  0.00  0.00    -0.421 OA
ATOM      8  C   UNL     1      -0.258  -2.611   4.538  0.00  0.00    +0.201 C 
ATOM      9  C   UNL     1      -1.301  -2.449   3.698  0.00  0.00    +0.099 C 
ATOM     10  C   UNL     1      -1.157  -1.886   2.307  0.00  0.00    +0.108 C 
ENDROOT
BRANCH  10  11
ATOM     11  C   UNL     1      -1.333  -2.988   1.293  0.00  0.00    +0.004 A 
ATOM     12  C   UNL     1      -2.235  -3.084   0.286  0.00  0.00    +0.013 A 
ATOM     13  C   UNL     1      -2.212  -4.199  -0.531  0.00  0.00    +0.028 A 
ATOM     14  C   UNL     1      -1.286  -5.164  -0.299  0.00  0.00    +0.078 A 
ATOM     15  S   UNL     1      -0.404  -4.500   1.103  0.00  0.00    -0.081 S 
ATOM     16 CL   UNL     1      -1.023  -6.654  -1.151  0.00  0.00    -0.076 Cl
ENDBRANCH  10  11
BRANCH   1  18
ATOM     17  C   UNL     1      -0.019   1.526   0.010  0.00  0.00    +0.014 C 
ATOM     18  C   UNL     1       0.002  -0.004   0.002  0.00  0.00    +0.031 C 
ATOM     19  C   UNL     1       0.718  -0.497  -1.257  0.00  0.00    +0.014 C 
ENDBRANCH   1  18
BRANCH   8  20
ATOM     20  N   UNL     1      -0.513  -3.138   5.779  0.00  0.00    -0.328 N 
ATOM     21  H   UNL     1       0.213  -3.270   6.409  0.00  0.00    +0.145 HD
ATOM     22  H   UNL     1      -1.419  -3.379   6.027  0.00  0.00    +0.145 HD
ENDBRANCH   8  20
BRANCH   9  23
ATOM     23  C   UNL     1      -2.606  -2.828   4.150  0.00  0.00    +0.101 C 
ATOM     24  N   UNL     1      -3.642  -3.128   4.508  0.00  0.00    -0.191 NA
ENDBRANCH   9  23
TORSDOF 4
