REMARK  Name = ZINC63351432
REMARK  8 active torsions:
REMARK  status: ('A' for Active; 'I' for Inactive)
REMARK    1  A    between atoms: C_1  and  C_2
REMARK    2  A    between atoms: C_2  and  C_3
REMARK    3  A    between atoms: C_3  and  C_4
REMARK    4  A    between atoms: C_4  and  C_5
REMARK    5  A    between atoms: C_5  and  N_6
REMARK    6  A    between atoms: C_7  and  C_9
REMARK    7  A    between atoms: C_12  and  N_15
REMARK    8  A    between atoms: C_18  and  C_34
REMARK                            x       y       z     vdW  Elec       q    Type
REMARK                         _______ _______ _______ _____ _____    ______ ____
ROOT
ATOM      1  N   UNL     1      -3.909 -10.392  -0.015  0.00  0.00    -0.192 N 
ATOM      2  C   UNL     1      -5.011 -11.165   0.078  0.00  0.00    +0.253 C 
ATOM      3  O   UNL     1      -6.157 -10.793   0.208  0.00  0.00    -0.272 OA
ATOM      4  C   UNL     1      -4.519 -12.594  -0.013  0.00  0.00    +0.137 C 
ATOM      5  C   UNL     1      -4.855 -13.350   1.277  0.00  0.00    +0.139 C 
ATOM      6  C   UNL     1      -3.896 -14.532   1.347  0.00  0.00    -0.034 C 
ATOM      7  C   UNL     1      -4.652 -15.623   1.422  0.00  0.00    -0.001 A 
ATOM      8  C   UNL     1      -4.302 -17.045   1.570  0.00  0.00    +0.010 A 
ATOM      9  C   UNL     1      -5.345 -17.917   1.603  0.00  0.00    +0.001 A 
ATOM     10  C   UNL     1      -6.682 -17.522   1.506  0.00  0.00    +0.002 A 
ATOM     11  C   UNL     1      -7.094 -16.236   1.372  0.00  0.00    +0.026 A 
ATOM     12  C   UNL     1      -6.089 -15.226   1.328  0.00  0.00    +0.043 A 
ATOM     13  N   UNL     1      -6.203 -13.923   1.225  0.00  0.00    -0.375 N 
ATOM     14  C   UNL     1      -2.396 -14.386   1.267  0.00  0.00    +0.052 C 
ATOM     15  C   UNL     1      -2.086 -13.548   0.010  0.00  0.00    +0.115 C 
ATOM     16  N   UNL     1      -3.047 -12.442  -0.051  0.00  0.00    -0.268 N 
ATOM     17  C   UNL     1      -2.796 -11.129  -0.121  0.00  0.00    +0.316 C 
ATOM     18  O   UNL     1      -1.684 -10.659  -0.262  0.00  0.00    -0.252 OA
ATOM     19  C   UNL     1      -5.056 -13.303  -1.258  0.00  0.00    +0.044 C 
ATOM     20  H   UNL     1      -7.028 -13.422   1.129  0.00  0.00    +0.160 HD
ENDROOT
BRANCH   1  24
ATOM     21  C   UNL     1      -3.966  -6.224   0.006  0.00  0.00    +0.037 A 
ATOM     22  C   UNL     1      -2.748  -6.908   0.021  0.00  0.00    +0.015 A 
ATOM     23  C   UNL     1      -2.733  -8.285   0.014  0.00  0.00    +0.025 A 
ATOM     24  C   UNL     1      -3.928  -8.995  -0.008  0.00  0.00    +0.045 A 
ATOM     25  C   UNL     1      -5.143  -8.317  -0.023  0.00  0.00    +0.025 A 
ATOM     26  C   UNL     1      -5.165  -6.940  -0.010  0.00  0.00    +0.015 A 
BRANCH  21  28
ATOM     27  N   UNL     1      -2.828  -4.058   0.031  0.00  0.00    -0.311 N 
ATOM     28  C   UNL     1      -3.986  -4.748   0.015  0.00  0.00    +0.244 C 
ATOM     29  O   UNL     1      -5.047  -4.154   0.007  0.00  0.00    -0.270 OA
ATOM     30  H   UNL     1      -1.982  -4.532   0.037  0.00  0.00    +0.149 HD
BRANCH  27  31
ATOM     31  C   UNL     1      -2.848  -2.593   0.039  0.00  0.00    +0.104 C 
BRANCH  31  32
ATOM     32  C   UNL     1      -1.413  -2.064   0.057  0.00  0.00    +0.019 C 
BRANCH  32  33
ATOM     33  C   UNL     1      -1.433  -0.534   0.066  0.00  0.00    +0.001 C 
BRANCH  33  35
ATOM     34  C   UNL     1      -0.019   1.525   0.093  0.00  0.00    +0.004 C 
ATOM     35  C   UNL     1       0.002  -0.004   0.084  0.00  0.00    -0.003 C 
ENDBRANCH  33  35
ENDBRANCH  32  33
ENDBRANCH  31  32
ENDBRANCH  27  31
ENDBRANCH  21  28
ENDBRANCH   1  24
TORSDOF 6
