REMARK  Name = ZINC21917873
REMARK  12 active torsions:
REMARK  status: ('A' for Active; 'I' for Inactive)
REMARK    1  A    between atoms: C_1  and  C_2
REMARK    2  A    between atoms: C_2  and  N_3
REMARK    3  A    between atoms: N_3  and  C_4
REMARK    4  A    between atoms: N_3  and  C_6
REMARK    5  A    between atoms: C_4  and  C_5
REMARK    6  A    between atoms: C_6  and  C_8
REMARK    7  A    between atoms: C_6  and  C_29
REMARK    8  A    between atoms: C_8  and  N_9
REMARK    9  A    between atoms: C_10  and  C_12
REMARK   10  A    between atoms: N_15  and  S_18
REMARK   11  A    between atoms: S_18  and  C_21
REMARK   12  A    between atoms: C_24  and  C_27
REMARK                            x       y       z     vdW  Elec       q    Type
REMARK                         _______ _______ _______ _____ _____    ______ ____
ROOT
ATOM      1  N   UNL     1      -2.413   0.028  -1.428  0.00  0.00    -0.316 N 
ATOM      2  C   UNL     1      -2.880  -0.145  -2.681  0.00  0.00    +0.216 C 
ATOM      3  O   UNL     1      -2.482   0.565  -3.579  0.00  0.00    -0.276 OA
ATOM      4  H   UNL     1      -2.773  -0.617  -0.613  0.00  0.00    +0.149 HD
ENDROOT
BRANCH   2   5
ATOM      5  C   UNL     1      -3.896  -1.222  -2.964  0.00  0.00    +0.077 C 
ATOM      6  C   UNL     1      -3.309  -2.586  -2.595  0.00  0.00    +0.030 C 
ATOM      7  C   UNL     1      -4.356  -3.674  -2.851  0.00  0.00    +0.110 C 
ATOM      8  N   UNL     1      -4.814  -3.571  -4.244  0.00  0.00    -0.177 NA
ATOM      9  C   UNL     1      -5.313  -2.277  -4.729  0.00  0.00    +0.110 C 
ATOM     10  C   UNL     1      -4.255  -1.205  -4.452  0.00  0.00    +0.030 C 
BRANCH   8  11
ATOM     11  S   UNL     1      -4.769  -4.888  -5.247  0.00  0.00    +0.061 S 
ATOM     12  O   UNL     1      -4.796  -6.037  -4.410  0.00  0.00    -0.153 OA
ATOM     13  O   UNL     1      -5.738  -4.660  -6.260  0.00  0.00    -0.153 OA
BRANCH  11  14
ATOM     14  C   UNL     1      -3.197  -4.882  -6.043  0.00  0.00    +0.106 A 
ATOM     15  C   UNL     1      -3.038  -4.222  -7.249  0.00  0.00    +0.030 A 
ATOM     16  C   UNL     1      -1.809  -4.209  -7.875  0.00  0.00    +0.021 A 
ATOM     17  C   UNL     1      -0.727  -4.874  -7.296  0.00  0.00    +0.052 A 
ATOM     18  C   UNL     1      -0.895  -5.543  -6.082  0.00  0.00    +0.021 A 
ATOM     19  C   UNL     1      -2.128  -5.543  -5.463  0.00  0.00    +0.030 A 
BRANCH  17  20
ATOM     20  C   UNL     1       0.550  -4.870  -7.943  0.00  0.00    +0.099 C 
ATOM     21  N   UNL     1       1.564  -4.866  -8.457  0.00  0.00    -0.191 NA
ENDBRANCH  17  20
ENDBRANCH  11  14
ENDBRANCH   8  11
ENDBRANCH   2   5
BRANCH   1  22
ATOM     22  C   UNL     1      -1.425   1.074  -1.153  0.00  0.00    +0.093 C 
BRANCH  22  23
ATOM     23  C   UNL     1      -0.973   0.978   0.306  0.00  0.00    -0.020 C 
BRANCH  23  24
ATOM     24  C   UNL     1       0.172   1.929   0.541  0.00  0.00    -0.059 A 
ATOM     25  C   UNL     1       1.316   1.837  -0.229  0.00  0.00    +0.002 A 
ATOM     26  C   UNL     1       2.365   2.712  -0.017  0.00  0.00    +0.000 A 
ATOM     27  C   UNL     1       2.273   3.674   0.972  0.00  0.00    +0.000 A 
ATOM     28  C   UNL     1       1.130   3.762   1.746  0.00  0.00    +0.000 A 
ATOM     29  C   UNL     1       0.080   2.890   1.530  0.00  0.00    +0.002 A 
ENDBRANCH  23  24
BRANCH  23  30
ATOM     30  N   UNL     1      -0.536  -0.395   0.593  0.00  0.00    +0.385 N 
ATOM     31  H   UNL     1      -1.261  -1.084   0.135  0.00  0.00    -0.081 HD
BRANCH  30  33
ATOM     32  C   UNL     1       0.629  -0.837  -1.515  0.00  0.00    -0.017 C 
ATOM     33  C   UNL     1       0.780  -0.664  -0.003  0.00  0.00    -0.081 C 
ENDBRANCH  30  33
BRANCH  30  34
ATOM     34  C   UNL     1      -0.521  -0.651   2.039  0.00  0.00    -0.081 C 
ATOM     35  C   UNL     1      -1.957  -0.809   2.544  0.00  0.00    -0.017 C 
ENDBRANCH  30  34
ENDBRANCH  23  30
ENDBRANCH  22  23
ENDBRANCH   1  22
TORSDOF 10
