REMARK  Name = ZINC02690652
REMARK  12 active torsions:
REMARK  status: ('A' for Active; 'I' for Inactive)
REMARK    1  A    between atoms: C_1  and  C_2
REMARK    2  A    between atoms: C_2  and  C_4
REMARK    3  A    between atoms: C_7  and  N_10
REMARK    4  A    between atoms: C_11  and  C_13
REMARK    5  A    between atoms: C_13  and  N_14
REMARK    6  A    between atoms: C_15  and  C_17
REMARK    7  A    between atoms: C_17  and  N_18
REMARK    8  A    between atoms: C_19  and  C_21
REMARK    9  A    between atoms: C_33  and  C_35
REMARK   10  A    between atoms: C_33  and  C_36
REMARK   11  A    between atoms: C_38  and  C_40
REMARK   12  A    between atoms: C_38  and  C_41
REMARK                            x       y       z     vdW  Elec       q    Type
REMARK                         _______ _______ _______ _____ _____    ______ ____
ROOT
ATOM      1  N   UNL     1       3.750  -1.238  -1.908  0.00  0.00    -0.305 N 
ATOM      2  C   UNL     1       3.845   0.106  -1.850  0.00  0.00    +0.245 C 
ATOM      3  O   UNL     1       4.897   0.650  -2.111  0.00  0.00    -0.273 OA
ATOM      4  H   UNL     1       2.908  -1.673  -1.699  0.00  0.00    +0.149 HD
ENDROOT
BRANCH   2   5
ATOM      5  C   UNL     1       2.645   0.930  -1.462  0.00  0.00    +0.238 C 
ATOM      6  C   UNL     1       2.296   0.603  -0.036  0.00  0.00    +0.191 C 
ATOM      7  C   UNL     1       1.556   1.697   0.711  0.00  0.00    +0.187 C 
ATOM      8  C   UNL     1       1.827   3.097   0.282  0.00  0.00    +0.209 C 
ATOM      9  C   UNL     1       2.179   3.322  -1.178  0.00  0.00    +0.286 C 
ATOM     10  O   UNL     1       2.931   2.267  -1.739  0.00  0.00    -0.333 OA
ATOM     11  O   UNL     1       3.029   4.495  -1.168  0.00  0.00    -0.318 OA
ATOM     12  C   UNL     1       3.223   4.879   0.199  0.00  0.00    +0.168 C 
ATOM     13  O   UNL     1       2.845   3.767   1.032  0.00  0.00    -0.338 OA
ATOM     14  C   UNL     1       4.695   5.224   0.434  0.00  0.00    +0.074 C 
ATOM     15  C   UNL     1       2.349   6.091   0.525  0.00  0.00    +0.074 C 
ATOM     16  O   UNL     1       0.165   1.354   0.560  0.00  0.00    -0.341 OA
ATOM     17  C   UNL     1       0.121  -0.068   0.389  0.00  0.00    +0.166 C 
ATOM     18  O   UNL     1       1.421  -0.540   0.017  0.00  0.00    -0.340 OA
ATOM     19  C   UNL     1      -0.306  -0.729   1.701  0.00  0.00    +0.074 C 
ATOM     20  C   UNL     1      -0.882  -0.420  -0.711  0.00  0.00    +0.074 C 
ENDBRANCH   2   5
BRANCH   1  21
ATOM     21  C   UNL     1       4.916  -2.039  -2.285  0.00  0.00    +0.200 C 
BRANCH  21  23
ATOM     22  N   UNL     1       5.468  -4.431  -2.591  0.00  0.00    -0.305 N 
ATOM     23  C   UNL     1       4.546  -3.500  -2.274  0.00  0.00    +0.231 C 
ATOM     24  O   UNL     1       3.420  -3.838  -1.979  0.00  0.00    -0.274 OA
ATOM     25  H   UNL     1       6.369  -4.161  -2.826  0.00  0.00    +0.149 HD
BRANCH  22  26
ATOM     26  C   UNL     1       5.109  -5.851  -2.579  0.00  0.00    +0.200 C 
BRANCH  26  28
ATOM     27  N   UNL     1       6.213  -8.019  -3.025  0.00  0.00    -0.284 N 
ATOM     28  C   UNL     1       6.309  -6.676  -2.968  0.00  0.00    +0.234 C 
ATOM     29  O   UNL     1       7.361  -6.131  -3.228  0.00  0.00    -0.274 OA
ATOM     30  H   UNL     1       5.396  -8.460  -2.744  0.00  0.00    +0.155 HD
BRANCH  27  34
ATOM     31  C   UNL     1       9.422 -10.275  -4.412  0.00  0.00    +0.017 A 
ATOM     32  C   UNL     1       8.586 -10.785  -3.410  0.00  0.00    +0.013 A 
ATOM     33  C   UNL     1       7.530 -10.038  -2.957  0.00  0.00    +0.024 A 
ATOM     34  C   UNL     1       7.288  -8.775  -3.490  0.00  0.00    +0.033 A 
ATOM     35  C   UNL     1       8.113  -8.267  -4.489  0.00  0.00    +0.024 A 
ATOM     36  C   UNL     1       9.175  -9.004  -4.945  0.00  0.00    +0.013 A 
BRANCH  31  38
ATOM     37  C   UNL     1      11.453 -10.521  -5.979  0.00  0.00    +0.091 C 
ATOM     38  C   UNL     1      10.555 -11.072  -4.901  0.00  0.00    +0.160 C 
ATOM     39  O   UNL     1      10.768 -12.172  -4.438  0.00  0.00    -0.292 OA
ENDBRANCH  31  38
ENDBRANCH  27  34
ENDBRANCH  26  28
ENDBRANCH  22  26
ENDBRANCH  21  23
ENDBRANCH   1  21
TORSDOF 7
