REMARK  Name = ZINC03278743
REMARK  6 active torsions:
REMARK  status: ('A' for Active; 'I' for Inactive)
REMARK    1  A    between atoms: C_1  and  C_2
REMARK    2  A    between atoms: C_2  and  C_4
REMARK    3  A    between atoms: C_2  and  O_20
REMARK    4  A    between atoms: C_9  and  C_12
REMARK    5  A    between atoms: O_20  and  C_21
REMARK    6  A    between atoms: C_21  and  C_23
REMARK                            x       y       z     vdW  Elec       q    Type
REMARK                         _______ _______ _______ _____ _____    ______ ____
ROOT
ATOM      1  C   UNL     1      -0.019   1.526   0.010  0.00  0.00    +0.062 C 
ATOM      2  C   UNL     1       0.002  -0.004   0.002  0.00  0.00    +0.259 C 
ENDROOT
BRANCH   2   3
ATOM      3  C   UNL     1       0.731  -0.503   1.223  0.00  0.00    +0.259 C 
ATOM      4  O   UNL     1       1.774  -1.109   1.101  0.00  0.00    -0.271 OA
ATOM      5  N   UNL     1       0.223  -0.277   2.451  0.00  0.00    -0.262 N 
ATOM      6  C   UNL     1       0.895  -0.737   3.576  0.00  0.00    +0.165 A 
ATOM      7  N   UNL     1       0.566  -0.624   4.850  0.00  0.00    -0.225 NA
ATOM      8  C   UNL     1       1.332  -1.129   5.805  0.00  0.00    +0.080 A 
ATOM      9  C   UNL     1       2.486  -1.780   5.466  0.00  0.00    +0.076 A 
ATOM     10  S   UNL     1       2.431  -1.646   3.684  0.00  0.00    -0.060 S 
ATOM     11  H   UNL     1      -0.611   0.208   2.548  0.00  0.00    +0.157 HD
BRANCH   8  12
ATOM     12  C   UNL     1       0.942  -0.989   7.229  0.00  0.00    +0.002 A 
ATOM     13  C   UNL     1       1.755  -1.517   8.232  0.00  0.00    +0.011 A 
ATOM     14  C   UNL     1       1.388  -1.384   9.555  0.00  0.00    +0.022 A 
ATOM     15  C   UNL     1       0.215  -0.729   9.889  0.00  0.00    +0.059 A 
ATOM     16  C   UNL     1      -0.596  -0.203   8.897  0.00  0.00    +0.060 A 
ATOM     17  C   UNL     1      -0.235  -0.325   7.570  0.00  0.00    +0.031 A 
ATOM     18 CL   UNL     1      -2.065   0.618   9.324  0.00  0.00    -0.082 Cl
ATOM     19 CL   UNL     1      -0.240  -0.566  11.556  0.00  0.00    -0.082 Cl
ENDBRANCH   8  12
ENDBRANCH   2   3
BRANCH   2  20
ATOM     20  O   UNL     1       0.671  -0.465  -1.174  0.00  0.00    -0.449 OA
BRANCH  20  21
ATOM     21  C   UNL     1      -0.088  -0.673  -2.267  0.00  0.00    +0.340 C 
ATOM     22  O   UNL     1      -1.284  -0.469  -2.224  0.00  0.00    -0.245 OA
BRANCH  21  23
ATOM     23  C   UNL     1       0.536  -1.150  -3.521  0.00  0.00    +0.061 A 
ATOM     24  C   UNL     1       1.916  -1.389  -3.563  0.00  0.00    +0.016 A 
ATOM     25  C   UNL     1       2.509  -1.830  -4.712  0.00  0.00    +0.016 A 
ATOM     26  C   UNL     1       1.738  -2.045  -5.853  0.00  0.00    +0.065 A 
ATOM     27  C   UNL     1       0.346  -1.809  -5.827  0.00  0.00    +0.079 A 
ATOM     28  C   UNL     1      -0.251  -1.363  -4.646  0.00  0.00    +0.043 A 
ATOM     29  N   UNL     1      -0.376  -2.028  -6.951  0.00  0.00    -0.233 NA
ATOM     30  C   UNL     1       0.166  -2.451  -8.061  0.00  0.00    +0.113 A 
ATOM     31  N   UNL     1       1.498  -2.702  -8.174  0.00  0.00    -0.296 N 
ATOM     32  C   UNL     1       2.327  -2.520  -7.113  0.00  0.00    +0.262 A 
ATOM     33  O   UNL     1       3.519  -2.744  -7.203  0.00  0.00    -0.267 OA
ATOM     34  C   UNL     1       1.836  -3.159  -9.533  0.00  0.00    +0.127 C 
ATOM     35  C   UNL     1       0.500  -3.600 -10.166  0.00  0.00    +0.029 C 
ATOM     36  C   UNL     1      -0.518  -2.740  -9.388  0.00  0.00    +0.076 C 
ENDBRANCH  21  23
ENDBRANCH  20  21
ENDBRANCH   2  20
TORSDOF 5
