REMARK  Name = ZINC26464242
REMARK  12 active torsions:
REMARK  status: ('A' for Active; 'I' for Inactive)
REMARK    1  A    between atoms: C_1  and  C_2
REMARK    2  A    between atoms: C_7  and  N_8
REMARK    3  A    between atoms: C_9  and  C_11
REMARK    4  A    between atoms: C_11  and  C_13
REMARK    5  A    between atoms: C_11  and  S_14
REMARK    6  A    between atoms: S_14  and  C_15
REMARK    7  A    between atoms: C_21  and  C_25
REMARK    8  A    between atoms: C_25  and  C_26
REMARK    9  A    between atoms: C_26  and  C_27
REMARK   10  A    between atoms: C_26  and  C_28
REMARK   11  A    between atoms: C_31  and  C_33
REMARK   12  A    between atoms: C_31  and  C_34
REMARK                            x       y       z     vdW  Elec       q    Type
REMARK                         _______ _______ _______ _____ _____    ______ ____
ROOT
ATOM      1  C   UNL     1      -1.321   2.873  -1.172  0.00  0.00    +0.115 A 
ATOM      2  C   UNL     1      -0.184   2.092  -1.010  0.00  0.00    +0.072 A 
ATOM      3  C   UNL     1      -0.275   0.698  -0.925  0.00  0.00    +0.092 A 
ATOM      4  C   UNL     1       1.000  -0.022  -0.749  0.00  0.00    +0.037 A 
ATOM      5  C   UNL     1       1.196  -1.417  -0.636  0.00  0.00    -0.026 A 
ATOM      6  C   UNL     1       2.469  -1.908  -0.479  0.00  0.00    +0.003 A 
ATOM      7  C   UNL     1       3.546  -1.032  -0.428  0.00  0.00    +0.048 A 
ATOM      8  N   UNL     1       3.358   0.268  -0.532  0.00  0.00    -0.244 NA
ATOM      9  C   UNL     1       2.155   0.778  -0.687  0.00  0.00    +0.111 A 
ATOM     10  S   UNL     1       1.547   2.438  -0.861  0.00  0.00    -0.064 S 
ATOM     11  C   UNL     1       2.729  -3.389  -0.368  0.00  0.00    +0.197 C 
ATOM     12  O   UNL     1       1.516  -4.080  -0.069  0.00  0.00    -0.369 OA
ATOM     13  C   UNL     1       0.445  -3.759  -0.963  0.00  0.00    +0.068 C 
ATOM     14  C   UNL     1      -0.005  -2.323  -0.685  0.00  0.00    +0.070 C 
ATOM     15  C   UNL     1      -0.724  -4.718  -0.731  0.00  0.00    +0.041 C 
ATOM     16  C   UNL     1       0.931  -3.875  -2.409  0.00  0.00    +0.041 C 
ATOM     17  N   UNL     1      -1.521   0.178  -1.013  0.00  0.00    -0.234 NA
ATOM     18  C   UNL     1      -2.571   0.945  -1.169  0.00  0.00    +0.223 A 
ATOM     19  N   UNL     1      -2.502   2.261  -1.253  0.00  0.00    -0.228 NA
ENDROOT
BRANCH   1  20
ATOM     20  S   UNL     1      -1.204   4.628  -1.279  0.00  0.00    -0.092 S 
BRANCH  20  21
ATOM     21  C   UNL     1      -2.953   5.049  -1.475  0.00  0.00    +0.136 C 
ATOM     22  C   UNL     1      -3.467   4.488  -2.803  0.00  0.00    +0.029 C 
BRANCH  21  24
ATOM     23  N   UNL     1      -4.287   7.097  -1.097  0.00  0.00    -0.284 N 
ATOM     24  C   UNL     1      -3.114   6.547  -1.467  0.00  0.00    +0.230 C 
ATOM     25  O   UNL     1      -2.187   7.258  -1.794  0.00  0.00    -0.274 OA
ATOM     26  H   UNL     1      -5.155   6.454  -0.887  0.00  0.00    +0.155 HD
BRANCH  23  33
ATOM     27  C   UNL     1      -6.872   8.258  -1.358  0.00  0.00    +0.045 C 
ATOM     28  C   UNL     1      -5.645   9.094  -1.101  0.00  0.00    -0.029 A 
ATOM     29  C   UNL     1      -5.756  10.466  -0.985  0.00  0.00    +0.005 A 
ATOM     30  C   UNL     1      -4.631  11.234  -0.748  0.00  0.00    +0.000 A 
ATOM     31  C   UNL     1      -3.392  10.632  -0.626  0.00  0.00    +0.002 A 
ATOM     32  C   UNL     1      -3.275   9.260  -0.737  0.00  0.00    +0.023 A 
ATOM     33  C   UNL     1      -4.403   8.486  -0.980  0.00  0.00    +0.036 A 
ENDBRANCH  23  33
ENDBRANCH  21  24
ENDBRANCH  20  21
ENDBRANCH   1  20
BRANCH   7  34
ATOM     34  C   UNL     1       4.941  -1.573  -0.251  0.00  0.00    +0.058 C 
BRANCH  34  35
ATOM     35  C   UNL     1       5.512  -1.968  -1.614  0.00  0.00    -0.011 C 
ATOM     36  C   UNL     1       5.691  -0.716  -2.474  0.00  0.00    +0.007 C 
ATOM     37  C   UNL     1       6.867  -2.652  -1.421  0.00  0.00    +0.007 C 
ENDBRANCH  34  35
ENDBRANCH   7  34
TORSDOF 6
