REMARK  Name = ZINC06752722
REMARK  11 active torsions:
REMARK  status: ('A' for Active; 'I' for Inactive)
REMARK    1  A    between atoms: C_1  and  C_2
REMARK    2  A    between atoms: C_2  and  O_34
REMARK    3  A    between atoms: C_6  and  O_10
REMARK    4  A    between atoms: C_11  and  C_25
REMARK    5  A    between atoms: C_13  and  C_15
REMARK    6  A    between atoms: C_15  and  O_17
REMARK    7  A    between atoms: O_17  and  C_18
REMARK    8  A    between atoms: C_18  and  C_19
REMARK    9  A    between atoms: C_28  and  N_31
REMARK   10  A    between atoms: N_31  and  C_32
REMARK   11  A    between atoms: N_31  and  C_33
REMARK                            x       y       z     vdW  Elec       q    Type
REMARK                         _______ _______ _______ _____ _____    ______ ____
ROOT
ATOM      1  C   UNL     1       1.590  -5.098   1.084  0.00  0.00    +0.042 C 
ATOM      2  C   UNL     1       2.828  -4.201   1.125  0.00  0.00    +0.082 C 
ATOM      3  C   UNL     1       3.737  -4.530  -0.066  0.00  0.00    +0.090 C 
ATOM      4  C   UNL     1       3.060  -4.054  -1.327  0.00  0.00    +0.046 A 
ATOM      5  C   UNL     1       2.029  -3.172  -1.350  0.00  0.00    +0.044 A 
ATOM      6  C   UNL     1       1.663  -2.972  -2.684  0.00  0.00    +0.235 A 
ATOM      7  N   UNL     1       2.449  -3.709  -3.434  0.00  0.00    -0.136 NA
ATOM      8  N   UNL     1       3.338  -4.398  -2.596  0.00  0.00    -0.278 N 
ATOM      9  H   UNL     1       4.052  -5.033  -2.890  0.00  0.00    +0.189 HD
ATOM     10  C   UNL     1       1.422  -2.546  -0.119  0.00  0.00    +0.072 C 
ATOM     11  C   UNL     1       2.397  -2.734   1.050  0.00  0.00    +0.141 C 
ENDROOT
BRANCH  10  12
ATOM     12  C   UNL     1       1.194  -1.075  -0.358  0.00  0.00    -0.039 A 
ATOM     13  C   UNL     1       2.093  -0.352  -1.120  0.00  0.00    +0.006 A 
ATOM     14  C   UNL     1       1.886   0.996  -1.340  0.00  0.00    +0.023 A 
ATOM     15  C   UNL     1       0.774   1.624  -0.796  0.00  0.00    +0.029 A 
ATOM     16  C   UNL     1      -0.128   0.894  -0.031  0.00  0.00    +0.023 A 
ATOM     17  C   UNL     1       0.085  -0.453   0.185  0.00  0.00    +0.006 A 
BRANCH  15  18
ATOM     18  N   UNL     1       0.562   2.987  -1.017  0.00  0.00    -0.336 N 
ATOM     19  C   UNL     1       1.532   3.763  -1.793  0.00  0.00    +0.129 C 
ATOM     20  C   UNL     1      -0.631   3.641  -0.472  0.00  0.00    +0.129 C 
ENDBRANCH  15  18
ENDBRANCH  10  12
BRANCH   6  21
ATOM     21  O   UNL     1       0.667  -2.159  -3.127  0.00  0.00    -0.491 OA
ATOM     22  H   UNL     1       0.619  -2.203  -4.125  0.00  0.00    +0.294 HD
ENDBRANCH   6  21
BRANCH  11  23
ATOM     23  C   UNL     1       3.610  -1.865   0.838  0.00  0.00    +0.314 C 
ATOM     24  O   UNL     1       4.220  -1.924  -0.203  0.00  0.00    -0.250 OA
BRANCH  23  25
ATOM     25  O   UNL     1       4.012  -1.026   1.805  0.00  0.00    -0.460 OA
BRANCH  25  26
ATOM     26  C   UNL     1       5.117  -0.138   1.491  0.00  0.00    +0.267 C 
BRANCH  26  27
ATOM     27  C   UNL     1       5.491   0.652   2.718  0.00  0.00    -0.010 A 
ATOM     28  C   UNL     1       4.822   1.825   3.015  0.00  0.00    +0.007 A 
ATOM     29  C   UNL     1       5.162   2.547   4.144  0.00  0.00    +0.000 A 
ATOM     30  C   UNL     1       6.178   2.103   4.969  0.00  0.00    +0.000 A 
ATOM     31  C   UNL     1       6.851   0.933   4.668  0.00  0.00    +0.000 A 
ATOM     32  C   UNL     1       6.507   0.208   3.543  0.00  0.00    +0.007 A 
ENDBRANCH  26  27
ENDBRANCH  25  26
ENDBRANCH  23  25
ENDBRANCH  11  23
BRANCH   2  33
ATOM     33  O   UNL     1       3.540  -4.426   2.343  0.00  0.00    -0.388 OA
ATOM     34  H   UNL     1       3.844  -5.337   2.459  0.00  0.00    +0.210 HD
ENDBRANCH   2  33
TORSDOF 8
