REMARK  Name = ZINC31809418
REMARK  4 active torsions:
REMARK  status: ('A' for Active; 'I' for Inactive)
REMARK    1  A    between atoms: C_6  and  C_7
REMARK    2  A    between atoms: C_7  and  N_8
REMARK    3  A    between atoms: C_10  and  C_15
REMARK    4  A    between atoms: N_17  and  C_18
REMARK                            x       y       z     vdW  Elec       q    Type
REMARK                         _______ _______ _______ _____ _____    ______ ____
ROOT
ATOM      1  N   UNL     1      -1.726  -1.017  -1.368  0.00  0.00    -0.296 N 
ATOM      2  C   UNL     1      -2.585  -0.110  -2.138  0.00  0.00    +0.121 C 
ATOM      3  C   UNL     1      -2.414  -0.533  -3.614  0.00  0.00    +0.106 C 
ATOM      4  C   UNL     1      -2.001  -2.016  -3.471  0.00  0.00    +0.110 C 
ATOM      5  C   UNL     1      -1.382  -2.096  -2.092  0.00  0.00    +0.217 C 
ATOM      6  O   UNL     1      -0.680  -3.003  -1.698  0.00  0.00    -0.276 OA
ENDROOT
BRANCH   3   7
ATOM      7  C   UNL     1      -3.713  -0.404  -4.366  0.00  0.00    +0.254 C 
ATOM      8  O   UNL     1      -4.068   0.781  -4.900  0.00  0.00    -0.270 OA
ATOM      9  N   UNL     1      -4.493  -1.438  -4.500  0.00  0.00    -0.176 NA
BRANCH   9  10
ATOM     10  C   UNL     1      -5.669  -1.322  -5.181  0.00  0.00    +0.249 A 
ATOM     11  N   UNL     1      -6.133  -0.225  -5.751  0.00  0.00    -0.198 NA
ATOM     12  C   UNL     1      -7.307  -0.480  -6.324  0.00  0.00    +0.247 A 
ATOM     13  N   UNL     1      -7.615  -1.736  -6.135  0.00  0.00    -0.159 NA
ATOM     14  N   UNL     1      -6.566  -2.312  -5.400  0.00  0.00    -0.243 N 
ATOM     15  H   UNL     1      -6.499  -3.234  -5.106  0.00  0.00    +0.192 HD
ENDBRANCH   9  10
ENDBRANCH   3   7
BRANCH   1  16
ATOM     16  C   UNL     1      -1.293  -0.775   0.010  0.00  0.00    +0.142 C 
BRANCH  16  22
ATOM     17  C   UNL     1      -0.017   1.378   0.010  0.00  0.00    +0.008 A 
ATOM     18  C   UNL     1       1.170   2.086   0.002  0.00  0.00    +0.038 A 
ATOM     19  C   UNL     1       2.379   1.410  -0.013  0.00  0.00    +0.123 A 
ATOM     20  C   UNL     1       2.396   0.026  -0.021  0.00  0.00    +0.038 A 
ATOM     21  C   UNL     1       1.208  -0.680  -0.013  0.00  0.00    +0.008 A 
ATOM     22  C   UNL     1       0.002  -0.004   0.002  0.00  0.00    -0.030 A 
ATOM     23  F   UNL     1       3.540   2.101  -0.021  0.00  0.00    -0.205 F 
ENDBRANCH  16  22
ENDBRANCH   1  16
TORSDOF 4
