REMARK  Name = ZINC09542905
REMARK  6 active torsions:
REMARK  status: ('A' for Active; 'I' for Inactive)
REMARK    1  A    between atoms: C_1  and  O_2
REMARK    2  A    between atoms: O_2  and  C_3
REMARK    3  A    between atoms: C_6  and  C_9
REMARK    4  A    between atoms: C_11  and  C_24
REMARK    5  A    between atoms: C_13  and  C_16
REMARK    6  A    between atoms: C_21  and  O_22
REMARK                            x       y       z     vdW  Elec       q    Type
REMARK                         _______ _______ _______ _____ _____    ______ ____
ROOT
ATOM      1  C   UNL     1      -0.716   1.571   1.245  0.00  0.00    +0.040 C 
ATOM      2  N   UNL     1      -1.580   2.516   1.233  0.00  0.00    -0.299 NA
ATOM      3  C   UNL     1      -1.996   3.229   0.032  0.00  0.00    +0.081 C 
ATOM      4  C   UNL     1      -0.753   1.593  -1.233  0.00  0.00    -0.028 C 
ATOM      5  C   UNL     1      -0.013   1.086   0.008  0.00  0.00    +0.044 C 
ATOM      6  N   UNL     1      -1.023   3.033  -1.054  0.00  0.00    +0.401 N 
ATOM      7  H   UNL     1      -0.148   3.517  -0.819  0.00  0.00    -0.081 HD
ATOM      8  H   UNL     1      -1.404   3.420  -1.926  0.00  0.00    -0.081 HD
ENDROOT
BRANCH   3   9
ATOM      9  C   UNL     1      -2.101   4.700   0.339  0.00  0.00    -0.039 A 
ATOM     10  C   UNL     1      -2.412   5.118   1.620  0.00  0.00    +0.006 A 
ATOM     11  C   UNL     1      -2.509   6.467   1.904  0.00  0.00    +0.040 A 
ATOM     12  C   UNL     1      -2.296   7.401   0.904  0.00  0.00    +0.137 A 
ATOM     13  C   UNL     1      -1.985   6.982  -0.379  0.00  0.00    +0.053 A 
ATOM     14  C   UNL     1      -1.883   5.631  -0.659  0.00  0.00    +0.022 A 
ATOM     15 BR   UNL     1      -1.694   8.256  -1.746  0.00  0.00    -0.047 Br
ATOM     16  F   UNL     1      -2.390   8.720   1.181  0.00  0.00    -0.204 F 
ENDBRANCH   3   9
BRANCH   4  17
ATOM     17  C   UNL     1       0.103   1.389  -2.456  0.00  0.00    -0.018 A 
ATOM     18  C   UNL     1       0.901   2.416  -2.921  0.00  0.00    +0.025 A 
ATOM     19  C   UNL     1       1.688   2.229  -4.043  0.00  0.00    +0.041 A 
ATOM     20  C   UNL     1       1.677   1.012  -4.702  0.00  0.00    +0.023 A 
ATOM     21  C   UNL     1       0.881  -0.018  -4.241  0.00  0.00    +0.047 A 
ATOM     22  C   UNL     1       0.096   0.166  -3.112  0.00  0.00    +0.119 A 
ATOM     23 CL   UNL     1       2.690   3.521  -4.625  0.00  0.00    -0.084 Cl
BRANCH  22  24
ATOM     24  O   UNL     1      -0.684  -0.848  -2.652  0.00  0.00    -0.507 OA
ATOM     25  H   UNL     1      -1.574  -0.862  -3.031  0.00  0.00    +0.292 HD
ENDBRANCH  22  24
ENDBRANCH   4  17
BRANCH   1  29
ATOM     26  C   UNL     1       0.204  -0.281   4.953  0.00  0.00    +0.120 A 
ATOM     27  C   UNL     1      -0.729   0.748   4.905  0.00  0.00    +0.046 A 
ATOM     28  C   UNL     1      -1.030   1.351   3.704  0.00  0.00    +0.013 A 
ATOM     29  C   UNL     1      -0.397   0.927   2.533  0.00  0.00    -0.004 A 
ATOM     30  C   UNL     1       0.537  -0.112   2.584  0.00  0.00    +0.013 A 
ATOM     31  C   UNL     1       0.836  -0.706   3.790  0.00  0.00    +0.046 A 
BRANCH  26  33
ATOM     32  C   UNL     1       1.467  -1.924   6.116  0.00  0.00    +0.277 C 
ATOM     33  O   UNL     1       0.499  -0.873   6.138  0.00  0.00    -0.495 OA
ENDBRANCH  26  33
ENDBRANCH   1  29
TORSDOF 5
