REMARK  Name = ZINC22203261
REMARK  13 active torsions:
REMARK  status: ('A' for Active; 'I' for Inactive)
REMARK    1  A    between atoms: C_1  and  C_2
REMARK    2  A    between atoms: C_2  and  C_3
REMARK    3  A    between atoms: C_2  and  N_4
REMARK    4  A    between atoms: N_4  and  C_5
REMARK    5  A    between atoms: N_4  and  C_33
REMARK    6  A    between atoms: C_5  and  C_6
REMARK    7  A    between atoms: C_6  and  N_7
REMARK    8  A    between atoms: C_17  and  S_18
REMARK    9  A    between atoms: S_18  and  C_19
REMARK   10  A    between atoms: C_19  and  C_20
REMARK   11  A    between atoms: C_22  and  N_30
REMARK   12  A    between atoms: C_33  and  C_34
REMARK   13  A    between atoms: C_33  and  C_35
REMARK                            x       y       z     vdW  Elec       q    Type
REMARK                         _______ _______ _______ _____ _____    ______ ____
ROOT
ATOM      1  N   UNL     1       1.152  -0.088   2.291  0.00  0.00    -0.289 N 
ATOM      2  C   UNL     1       1.207  -1.430   2.457  0.00  0.00    +0.262 A 
ATOM      3  O   UNL     1       0.340  -2.158   2.010  0.00  0.00    -0.267 OA
ATOM      4  C   UNL     1       2.355  -1.976   3.194  0.00  0.00    +0.065 A 
ATOM      5  C   UNL     1       2.505  -3.345   3.414  0.00  0.00    +0.015 A 
ATOM      6  C   UNL     1       3.591  -3.799   4.111  0.00  0.00    +0.001 A 
ATOM      7  C   UNL     1       4.542  -2.913   4.601  0.00  0.00    +0.002 A 
ATOM      8  C   UNL     1       4.419  -1.567   4.400  0.00  0.00    +0.028 A 
ATOM      9  C   UNL     1       3.320  -1.071   3.691  0.00  0.00    +0.079 A 
ATOM     10  N   UNL     1       3.160   0.249   3.470  0.00  0.00    -0.223 NA
ATOM     11  C   UNL     1       2.131   0.714   2.805  0.00  0.00    +0.172 A 
ENDROOT
BRANCH   1  12
ATOM     12  C   UNL     1       0.032   0.509   1.560  0.00  0.00    +0.109 C 
BRANCH  12  13
ATOM     13  C   UNL     1       0.384   0.601   0.073  0.00  0.00    -0.056 C 
BRANCH  13  14
ATOM     14  N   UNL     1      -0.725   1.231  -0.655  0.00  0.00    +0.384 N 
ATOM     15  H   UNL     1      -1.645   0.680  -0.412  0.00  0.00    -0.081 HD
BRANCH  14  17
ATOM     16  C   UNL     1      -0.016   3.537  -1.075  0.00  0.00    -0.014 C 
ATOM     17  C   UNL     1      -0.908   2.626  -0.230  0.00  0.00    -0.074 C 
ATOM     18  C   UNL     1      -2.372   3.028  -0.419  0.00  0.00    -0.014 C 
ENDBRANCH  14  17
BRANCH  14  19
ATOM     19  C   UNL     1      -0.517   1.146  -2.107  0.00  0.00    -0.074 C 
ATOM     20  C   UNL     1      -0.228  -0.305  -2.496  0.00  0.00    -0.014 C 
ATOM     21  C   UNL     1      -1.776   1.628  -2.831  0.00  0.00    -0.014 C 
ENDBRANCH  14  19
ENDBRANCH  13  14
ENDBRANCH  12  13
ENDBRANCH   1  12
BRANCH  11  22
ATOM     22  S   UNL     1       2.003   2.454   2.565  0.00  0.00    -0.083 S 
BRANCH  22  23
ATOM     23  C   UNL     1       3.503   3.001   3.418  0.00  0.00    +0.116 C 
BRANCH  23  24
ATOM     24  C   UNL     1       3.607   4.502   3.339  0.00  0.00    +0.007 A 
ATOM     25  C   UNL     1       3.039   5.286   4.325  0.00  0.00    +0.040 A 
ATOM     26  C   UNL     1       3.135   6.663   4.254  0.00  0.00    +0.127 A 
ATOM     27  C   UNL     1       3.797   7.258   3.196  0.00  0.00    +0.042 A 
ATOM     28  C   UNL     1       4.366   6.478   2.207  0.00  0.00    +0.022 A 
ATOM     29  C   UNL     1       4.278   5.097   2.280  0.00  0.00    +0.133 A 
ATOM     30  O   UNL     1       4.844   4.317   1.321  0.00  0.00    -0.466 OA
ATOM     31  C   UNL     1       5.193   4.957   0.090  0.00  0.00    +0.394 C 
ATOM     32  O   UNL     1       5.899   6.168   0.389  0.00  0.00    -0.339 OA
ATOM     33  C   UNL     1       5.079   7.138   1.054  0.00  0.00    +0.202 C 
BRANCH  26  34
ATOM     34  N   UNL     1       2.527   7.502   5.311  0.00  0.00    +0.056 N 
ATOM     35  O   UNL     1       1.943   6.978   6.243  0.00  0.00    -0.126 OA
ATOM     36  O   UNL     1       2.610   8.715   5.249  0.00  0.00    -0.126 OA
ENDBRANCH  26  34
ENDBRANCH  23  24
ENDBRANCH  22  23
ENDBRANCH  11  22
TORSDOF 9
