REMARK  Name = ZINC26552076
REMARK  7 active torsions:
REMARK  status: ('A' for Active; 'I' for Inactive)
REMARK    1  A    between atoms: C_1  and  C_2
REMARK    2  A    between atoms: C_2  and  C_3
REMARK    3  A    between atoms: C_10  and  C_12
REMARK    4  A    between atoms: N_14  and  C_19
REMARK    5  A    between atoms: N_17  and  C_18
REMARK    6  A    between atoms: C_19  and  N_20
REMARK    7  A    between atoms: C_23  and  C_26
REMARK                            x       y       z     vdW  Elec       q    Type
REMARK                         _______ _______ _______ _____ _____    ______ ____
ROOT
ATOM      1  C   UNL     1       2.088   0.733  -0.014  0.00  0.00    +0.169 A 
ATOM      2  N   UNL     1       1.314   1.785  -0.001  0.00  0.00    -0.152 NA
ATOM      3  N   UNL     1      -0.016   1.345   0.009  0.00  0.00    -0.257 N 
ATOM      4  C   UNL     1       0.002  -0.004   0.002  0.00  0.00    +0.176 A 
ATOM      5  S   UNL     1      -1.366  -1.033   0.010  0.00  0.00    -0.011 S 
ATOM      6  N   UNL     1       1.292  -0.396  -0.012  0.00  0.00    -0.306 N 
ATOM      7  C   UNL     1       1.767  -1.782  -0.024  0.00  0.00    +0.153 C 
ENDROOT
BRANCH   1  14
ATOM      8  C   UNL     1       8.154   2.270   0.024  0.00  0.00    -0.007 C 
ATOM      9  C   UNL     1       8.538   0.876  -0.480  0.00  0.00    +0.009 C 
ATOM     10  C   UNL     1       7.616  -0.159   0.181  0.00  0.00    +0.043 C 
ATOM     11  C   UNL     1       6.207   0.325   0.066  0.00  0.00    -0.006 A 
ATOM     12  C   UNL     1       5.784   1.580  -0.260  0.00  0.00    -0.036 A 
ATOM     13  C   UNL     1       4.411   1.782  -0.310  0.00  0.00    +0.023 A 
ATOM     14  C   UNL     1       3.561   0.748  -0.028  0.00  0.00    +0.057 A 
ATOM     15  S   UNL     1       4.704  -0.582   0.313  0.00  0.00    -0.090 S 
ATOM     16  C   UNL     1       6.799   2.681  -0.554  0.00  0.00    +0.039 C 
BRANCH   8  18
ATOM     17  C   UNL     1       8.911   4.644   0.208  0.00  0.00    +0.004 C 
ATOM     18  C   UNL     1       9.219   3.279  -0.410  0.00  0.00    +0.000 C 
ENDBRANCH   8  18
ENDBRANCH   1  14
BRANCH   3  19
ATOM     19  C   UNL     1      -1.210   2.194   0.020  0.00  0.00    +0.072 C 
BRANCH  19  20
ATOM     20  N   UNL     1      -1.602   2.470   1.409  0.00  0.00    +0.393 N 
ATOM     21  C   UNL     1      -0.436   2.846   2.220  0.00  0.00    -0.075 C 
ATOM     22  C   UNL     1      -0.856   2.984   3.685  0.00  0.00    -0.006 C 
ATOM     23  C   UNL     1      -1.947   4.052   3.800  0.00  0.00    +0.071 C 
ATOM     24  C   UNL     1      -3.129   3.662   2.908  0.00  0.00    -0.006 C 
ATOM     25  C   UNL     1      -2.643   3.504   1.465  0.00  0.00    -0.075 C 
ATOM     26  H   UNL     1      -2.022   1.547   1.833  0.00  0.00    -0.079 HD
BRANCH  23  27
ATOM     27  C   UNL     1      -2.407   4.151   5.231  0.00  0.00    +0.213 C 
ATOM     28  O   UNL     1      -3.566   3.930   5.512  0.00  0.00    -0.276 OA
ATOM     29  N   UNL     1      -1.530   4.484   6.199  0.00  0.00    -0.329 N 
ATOM     30  H   UNL     1      -1.866   4.555   7.244  0.00  0.00    +0.145 HD
ATOM     31  H   UNL     1      -0.479   4.683   5.944  0.00  0.00    +0.145 HD
ENDBRANCH  23  27
ENDBRANCH  19  20
ENDBRANCH   3  19
TORSDOF 5
