REMARK  Name = ZINC16570005
REMARK  11 active torsions:
REMARK  status: ('A' for Active; 'I' for Inactive)
REMARK    1  A    between atoms: C_1  and  C_2
REMARK    2  A    between atoms: C_2  and  C_3
REMARK    3  A    between atoms: C_3  and  C_4
REMARK    4  A    between atoms: C_4  and  N_5
REMARK    5  A    between atoms: N_5  and  C_6
REMARK    6  A    between atoms: C_6  and  C_7
REMARK    7  A    between atoms: C_21  and  C_23
REMARK    8  A    between atoms: C_27  and  C_29
REMARK    9  A    between atoms: N_32  and  C_33
REMARK   10  A    between atoms: C_34  and  C_40
REMARK   11  A    between atoms: C_38  and  C_39
REMARK                            x       y       z     vdW  Elec       q    Type
REMARK                         _______ _______ _______ _____ _____    ______ ____
ROOT
ATOM      1  C   UNL     1       0.170   7.353   1.658  0.00  0.00    +0.238 C 
ATOM      2  O   UNL     1      -0.717   6.555   1.875  0.00  0.00    -0.273 OA
ATOM      3  N   UNL     1       1.159   7.043   0.796  0.00  0.00    -0.255 N 
ATOM      4  C   UNL     1       1.223   5.759   0.238  0.00  0.00    +0.061 A 
ATOM      5  C   UNL     1       0.722   4.665   0.926  0.00  0.00    +0.025 A 
ATOM      6  C   UNL     1       0.781   3.406   0.360  0.00  0.00    +0.002 A 
ATOM      7  C   UNL     1       1.338   3.228  -0.894  0.00  0.00    +0.002 A 
ATOM      8  C   UNL     1       1.845   4.312  -1.589  0.00  0.00    +0.028 A 
ATOM      9  C   UNL     1       1.793   5.572  -1.026  0.00  0.00    +0.068 A 
ATOM     10  N   UNL     1       2.303   6.700  -1.687  0.00  0.00    -0.316 N 
ATOM     11  C   UNL     1       2.681   6.860  -2.977  0.00  0.00    +0.092 A 
ATOM     12  C   UNL     1       3.098   8.136  -3.139  0.00  0.00    +0.020 A 
ATOM     13  C   UNL     1       2.978   8.785  -1.890  0.00  0.00    +0.025 A 
ATOM     14  C   UNL     1       2.489   7.893  -1.022  0.00  0.00    +0.049 A 
ATOM     15  C   UNL     1       2.171   8.053   0.445  0.00  0.00    +0.159 C 
ENDROOT
BRANCH  15  16
ATOM     16  C   UNL     1       3.417   7.835   1.264  0.00  0.00    -0.021 A 
ATOM     17  C   UNL     1       3.848   6.550   1.538  0.00  0.00    +0.006 A 
ATOM     18  C   UNL     1       4.991   6.350   2.289  0.00  0.00    +0.001 A 
ATOM     19  C   UNL     1       5.703   7.435   2.767  0.00  0.00    +0.003 A 
ATOM     20  C   UNL     1       5.271   8.719   2.494  0.00  0.00    -0.050 A 
ATOM     21  C   UNL     1       4.131   8.919   1.738  0.00  0.00    +0.009 A 
ATOM     22  C   UNL     1       6.047   9.901   3.014  0.00  0.00    +0.044 C 
ENDBRANCH  15  16
BRANCH   1  23
ATOM     23  C   UNL     1       0.167   8.691   2.351  0.00  0.00    +0.205 C 
BRANCH  23  24
ATOM     24  N   UNL     1      -1.068   8.836   3.126  0.00  0.00    -0.277 N 
ATOM     25  C   UNL     1      -1.112   8.425   4.408  0.00  0.00    +0.307 C 
ATOM     26  O   UNL     1      -0.126   7.932   4.923  0.00  0.00    -0.252 OA
ATOM     27  N   UNL     1      -2.248   8.559   5.121  0.00  0.00    -0.269 N 
ATOM     28  H   UNL     1      -3.057   8.875   4.689  0.00  0.00    +0.156 HD
BRANCH  27  29
ATOM     29  C   UNL     1      -2.260   8.241   6.484  0.00  0.00    +0.041 A 
ATOM     30  C   UNL     1      -2.629   9.200   7.418  0.00  0.00    -0.029 A 
ATOM     31  C   UNL     1      -2.645   8.882   8.762  0.00  0.00    +0.005 A 
ATOM     32  C   UNL     1      -2.285   7.613   9.178  0.00  0.00    +0.001 A 
ATOM     33  C   UNL     1      -1.912   6.658   8.251  0.00  0.00    +0.005 A 
ATOM     34  C   UNL     1      -1.899   6.968   6.905  0.00  0.00    -0.029 A 
ATOM     35  C   UNL     1      -1.493   5.926   5.895  0.00  0.00    +0.045 C 
ATOM     36  C   UNL     1      -3.016  10.584   6.966  0.00  0.00    +0.045 C 
ENDBRANCH  27  29
BRANCH  24  37
ATOM     37  C   UNL     1      -2.256   9.430   2.506  0.00  0.00    +0.110 C 
BRANCH  37  38
ATOM     38  C   UNL     1      -3.096   8.328   1.856  0.00  0.00    +0.019 C 
BRANCH  38  40
ATOM     39  C   UNL     1      -5.176   7.847   0.559  0.00  0.00    +0.004 C 
ATOM     40  C   UNL     1      -4.336   8.948   1.209  0.00  0.00    -0.002 C 
ENDBRANCH  38  40
ENDBRANCH  37  38
ENDBRANCH  24  37
ENDBRANCH  23  24
ENDBRANCH   1  23
TORSDOF 7
