REMARK  Name = ZINC10680073
REMARK  12 active torsions:
REMARK  status: ('A' for Active; 'I' for Inactive)
REMARK    1  A    between atoms: C_1  and  C_2
REMARK    2  A    between atoms: C_2  and  C_3
REMARK    3  A    between atoms: C_3  and  C_5
REMARK    4  A    between atoms: C_3  and  C_6
REMARK    5  A    between atoms: C_11  and  O_12
REMARK    6  A    between atoms: O_12  and  C_13
REMARK    7  A    between atoms: C_13  and  C_15
REMARK    8  A    between atoms: C_13  and  C_17
REMARK    9  A    between atoms: C_15  and  C_16
REMARK   10  A    between atoms: C_24  and  C_25
REMARK   11  A    between atoms: C_24  and  C_31
REMARK   12  A    between atoms: C_24  and  N_73
REMARK                            x       y       z     vdW  Elec       q    Type
REMARK                         _______ _______ _______ _____ _____    ______ ____
ROOT
ATOM      1  C   UNL     1      -3.626  -2.934  -0.507  0.00  0.00    +0.256 C 
ATOM      2  O   UNL     1      -4.657  -2.384  -0.182  0.00  0.00    -0.272 OA
ATOM      3  N   UNL     1      -2.495  -2.215  -0.648  0.00  0.00    -0.302 N 
ATOM      4  C   UNL     1      -1.214  -2.874  -0.944  0.00  0.00    +0.089 C 
ATOM      5  C   UNL     1      -0.170  -2.384   0.065  0.00  0.00    -0.058 C 
ATOM      6  C   UNL     1      -1.413  -0.344   0.481  0.00  0.00    -0.058 C 
ATOM      7  C   UNL     1      -2.508  -0.751  -0.511  0.00  0.00    +0.089 C 
ATOM      8  N   UNL     1      -0.125  -0.907   0.022  0.00  0.00    +0.389 N 
ATOM      9  H   UNL     1       0.044  -0.607  -0.946  0.00  0.00    -0.080 HD
ENDROOT
BRANCH   1  10
ATOM     10  C   UNL     1      -3.610  -4.420  -0.754  0.00  0.00    +0.258 C 
BRANCH  10  11
ATOM     11  C   UNL     1      -3.338  -4.689  -2.235  0.00  0.00    +0.051 C 
ATOM     12  C   UNL     1      -3.242  -6.197  -2.471  0.00  0.00    +0.008 C 
ENDBRANCH  10  11
BRANCH  10  13
ATOM     13  O   UNL     1      -4.877  -4.976  -0.394  0.00  0.00    -0.479 OA
BRANCH  13  19
ATOM     14  C   UNL     1      -6.066  -6.831   0.503  0.00  0.00    -0.003 A 
ATOM     15  C   UNL     1      -6.058  -8.093   1.065  0.00  0.00    +0.007 A 
ATOM     16  C   UNL     1      -4.859  -8.745   1.284  0.00  0.00    +0.001 A 
ATOM     17  C   UNL     1      -3.665  -8.136   0.942  0.00  0.00    +0.004 A 
ATOM     18  C   UNL     1      -3.669  -6.877   0.375  0.00  0.00    +0.046 A 
ATOM     19  C   UNL     1      -4.871  -6.218   0.159  0.00  0.00    +0.125 A 
BRANCH  14  20
ATOM     20  C   UNL     1      -7.374  -6.121   0.263  0.00  0.00    +0.019 C 
ATOM     21  C   UNL     1      -8.106  -5.937   1.594  0.00  0.00    +0.012 C 
BRANCH  20  23
ATOM     22  C   UNL     1      -9.513  -6.177  -1.026  0.00  0.00    +0.004 C 
ATOM     23  C   UNL     1      -8.240  -6.953  -0.684  0.00  0.00    +0.004 C 
ENDBRANCH  20  23
ENDBRANCH  14  20
ENDBRANCH  13  19
ENDBRANCH  10  13
ENDBRANCH   1  10
BRANCH   8  24
ATOM     24  C   UNL     1       0.975  -0.411   0.876  0.00  0.00    -0.007 C 
BRANCH  24  25
ATOM     25  C   UNL     1       2.278  -0.970   0.367  0.00  0.00    -0.057 A 
ATOM     26  C   UNL     1       2.531  -1.007  -0.992  0.00  0.00    +0.002 A 
ATOM     27  C   UNL     1       3.729  -1.515  -1.458  0.00  0.00    +0.000 A 
ATOM     28  C   UNL     1       4.670  -1.995  -0.567  0.00  0.00    +0.000 A 
ATOM     29  C   UNL     1       4.415  -1.963   0.791  0.00  0.00    +0.000 A 
ATOM     30  C   UNL     1       3.219  -1.450   1.258  0.00  0.00    +0.002 A 
ENDBRANCH  24  25
BRANCH  24  31
ATOM     31  C   UNL     1       1.010   1.094   0.801  0.00  0.00    -0.057 A 
ATOM     32  C   UNL     1       0.880   1.729  -0.420  0.00  0.00    +0.002 A 
ATOM     33  C   UNL     1       0.908   3.109  -0.488  0.00  0.00    +0.000 A 
ATOM     34  C   UNL     1       1.075   3.855   0.665  0.00  0.00    +0.000 A 
ATOM     35  C   UNL     1       1.210   3.220   1.885  0.00  0.00    +0.000 A 
ATOM     36  C   UNL     1       1.177   1.839   1.953  0.00  0.00    +0.002 A 
ENDBRANCH  24  31
ENDBRANCH   8  24
TORSDOF 9
