REMARK  Name = ZINC58913179
REMARK  10 active torsions:
REMARK  status: ('A' for Active; 'I' for Inactive)
REMARK    1  A    between atoms: C_1  and  C_2
REMARK    2  A    between atoms: C_5  and  N_9
REMARK    3  A    between atoms: C_7  and  C_8
REMARK    4  A    between atoms: C_10  and  C_31
REMARK    5  A    between atoms: C_12  and  C_15
REMARK    6  A    between atoms: C_13  and  C_14
REMARK    7  A    between atoms: N_16  and  N_17
REMARK    8  A    between atoms: C_18  and  C_20
REMARK    9  A    between atoms: N_22  and  C_23
REMARK   10  A    between atoms: C_28  and  C_29
REMARK                            x       y       z     vdW  Elec       q    Type
REMARK                         _______ _______ _______ _____ _____    ______ ____
ROOT
ATOM      1  C   UNL     1       1.562  -7.421  -0.684  0.00  0.00    +0.140 C 
ATOM      2  N   UNL     1       2.730  -7.258  -1.231  0.00  0.00    -0.187 NA
ENDROOT
BRANCH   1   6
ATOM      3  N   UNL     1       0.086  -4.170   0.034  0.00  0.00    -0.317 N 
ATOM      4  C   UNL     1      -0.918  -4.970   0.500  0.00  0.00    +0.022 A 
ATOM      5  C   UNL     1      -0.568  -6.257   0.326  0.00  0.00    +0.032 A 
ATOM      6  C   UNL     1       0.759  -6.248  -0.298  0.00  0.00    +0.016 A 
ATOM      7  C   UNL     1       1.100  -4.934  -0.455  0.00  0.00    +0.030 A 
ATOM      8  C   UNL     1       2.380  -4.420  -1.061  0.00  0.00    +0.064 C 
ATOM      9  C   UNL     1      -2.209  -4.488   1.111  0.00  0.00    +0.064 C 
BRANCH   3  14
ATOM     10  C   UNL     1       0.028   1.504   0.103  0.00  0.00    +0.044 C 
ATOM     11  C   UNL     1       0.043  -0.003   0.085  0.00  0.00    -0.047 A 
ATOM     12  C   UNL     1       0.041  -0.678  -1.122  0.00  0.00    +0.005 A 
ATOM     13  C   UNL     1       0.055  -2.059  -1.142  0.00  0.00    +0.026 A 
ATOM     14  C   UNL     1       0.072  -2.769   0.051  0.00  0.00    +0.047 A 
ATOM     15  C   UNL     1       0.074  -2.088   1.261  0.00  0.00    +0.029 A 
ATOM     16  C   UNL     1       0.065  -0.707   1.274  0.00  0.00    -0.046 A 
ATOM     17  C   UNL     1       0.074   0.033   2.587  0.00  0.00    +0.044 C 
ENDBRANCH   3  14
ENDBRANCH   1   6
BRANCH   2  18
ATOM     18  N   UNL     1       3.493  -8.374  -1.598  0.00  0.00    -0.199 N 
ATOM     19  C   UNL     1       4.704  -8.205  -2.165  0.00  0.00    +0.318 C 
ATOM     20  O   UNL     1       5.133  -7.085  -2.358  0.00  0.00    -0.263 OA
ATOM     21  H   UNL     1       3.150  -9.268  -1.444  0.00  0.00    +0.178 HD
BRANCH  19  22
ATOM     22  C   UNL     1       5.516  -9.392  -2.555  0.00  0.00    +0.305 C 
ATOM     23  O   UNL     1       5.087 -10.511  -2.363  0.00  0.00    -0.265 OA
ATOM     24  N   UNL     1       6.727  -9.223  -3.123  0.00  0.00    -0.277 N 
ATOM     25  H   UNL     1       7.036  -8.332  -3.350  0.00  0.00    +0.155 HD
BRANCH  24  26
ATOM     26  C   UNL     1       7.538 -10.332  -3.383  0.00  0.00    +0.037 A 
ATOM     27  C   UNL     1       7.383 -11.496  -2.642  0.00  0.00    +0.025 A 
ATOM     28  C   UNL     1       8.185 -12.590  -2.901  0.00  0.00    +0.022 A 
ATOM     29  C   UNL     1       9.143 -12.526  -3.899  0.00  0.00    +0.041 A 
ATOM     30  C   UNL     1       9.299 -11.367  -4.638  0.00  0.00    +0.025 A 
ATOM     31  C   UNL     1       8.496 -10.273  -4.387  0.00  0.00    -0.028 A 
ATOM     32  C   UNL     1       8.662  -9.013  -5.198  0.00  0.00    +0.046 C 
ATOM     33 CL   UNL     1      10.150 -13.903  -4.222  0.00  0.00    -0.084 Cl
ENDBRANCH  24  26
ENDBRANCH  19  22
ENDBRANCH   2  18
TORSDOF 5
