REMARK  Name = ZINC20207102
REMARK  9 active torsions:
REMARK  status: ('A' for Active; 'I' for Inactive)
REMARK    1  A    between atoms: C_1  and  C_2
REMARK    2  A    between atoms: C_5  and  S_8
REMARK    3  A    between atoms: S_8  and  N_11
REMARK    4  A    between atoms: N_11  and  C_12
REMARK    5  A    between atoms: N_11  and  C_26
REMARK    6  A    between atoms: C_12  and  C_13
REMARK    7  A    between atoms: N_15  and  N_16
REMARK    8  A    between atoms: C_17  and  C_18
REMARK    9  A    between atoms: C_31  and  C_32
REMARK                            x       y       z     vdW  Elec       q    Type
REMARK                         _______ _______ _______ _____ _____    ______ ____
ROOT
ATOM      1  N   UNL     1       1.251  -4.840  -0.412  0.00  0.00    -0.194 N 
ENDROOT
BRANCH   1   2
ATOM      2  C   UNL     1       2.033  -5.011  -1.557  0.00  0.00    +0.056 A 
ATOM      3  C   UNL     1       1.979  -6.205  -2.266  0.00  0.00    +0.025 A 
ATOM      4  C   UNL     1       2.753  -6.371  -3.397  0.00  0.00    +0.003 A 
ATOM      5  C   UNL     1       3.582  -5.351  -3.825  0.00  0.00    +0.020 A 
ATOM      6  C   UNL     1       3.639  -4.160  -3.122  0.00  0.00    +0.046 A 
ATOM      7  C   UNL     1       2.863  -3.986  -1.992  0.00  0.00    -0.010 A 
ATOM      8  C   UNL     1       2.921  -2.687  -1.230  0.00  0.00    +0.047 C 
ATOM      9 CL   UNL     1       4.683  -2.883  -3.663  0.00  0.00    -0.083 Cl
ENDBRANCH   1   2
BRANCH   1  10
ATOM     10  S   UNL     1      -0.263  -4.180  -0.535  0.00  0.00    +0.075 S 
ATOM     11  O   UNL     1      -0.945  -4.501   0.670  0.00  0.00    -0.150 OA
ATOM     12  O   UNL     1      -0.762  -4.544  -1.814  0.00  0.00    -0.150 OA
BRANCH  10  17
ATOM     13  C   UNL     1       0.404   1.817  -0.591  0.00  0.00    +0.044 C 
ATOM     14  C   UNL     1       0.238   0.319  -0.577  0.00  0.00    -0.050 A 
ATOM     15  C   UNL     1       0.087  -0.371  -1.765  0.00  0.00    +0.005 A 
ATOM     16  C   UNL     1      -0.066  -1.744  -1.752  0.00  0.00    +0.029 A 
ATOM     17  C   UNL     1      -0.067  -2.429  -0.551  0.00  0.00    +0.109 A 
ATOM     18  C   UNL     1       0.085  -1.739   0.637  0.00  0.00    +0.029 A 
ATOM     19  C   UNL     1       0.242  -0.366   0.624  0.00  0.00    +0.005 A 
ENDBRANCH  10  17
ENDBRANCH   1  10
BRANCH   1  20
ATOM     20  C   UNL     1       1.770  -5.246   0.896  0.00  0.00    +0.228 C 
BRANCH  20  21
ATOM     21  C   UNL     1       1.504  -6.714   1.109  0.00  0.00    +0.251 C 
ATOM     22  O   UNL     1       0.937  -7.358   0.252  0.00  0.00    -0.272 OA
ATOM     23  N   UNL     1       1.896  -7.311   2.252  0.00  0.00    -0.206 N 
ATOM     24  H   UNL     1       2.349  -6.795   2.938  0.00  0.00    +0.177 HD
BRANCH  23  25
ATOM     25  N   UNL     1       1.649  -8.675   2.450  0.00  0.00    -0.188 NA
ATOM     26  C   UNL     1       2.026  -9.250   3.551  0.00  0.00    +0.142 C 
BRANCH  26  27
ATOM     27  C   UNL     1       1.766 -10.686   3.759  0.00  0.00    +0.048 A 
ATOM     28  C   UNL     1       1.118 -11.434   2.771  0.00  0.00    +0.133 A 
ATOM     29  C   UNL     1       0.878 -12.780   2.974  0.00  0.00    +0.039 A 
ATOM     30  C   UNL     1       1.277 -13.386   4.152  0.00  0.00    +0.004 A 
ATOM     31  C   UNL     1       1.918 -12.653   5.134  0.00  0.00    +0.021 A 
ATOM     32  C   UNL     1       2.171 -11.309   4.943  0.00  0.00    +0.052 A 
ATOM     33 CL   UNL     1       2.984 -10.393   6.174  0.00  0.00    -0.083 Cl
ATOM     34  F   UNL     1       0.727 -10.843   1.621  0.00  0.00    -0.205 F 
ENDBRANCH  26  27
ENDBRANCH  23  25
ENDBRANCH  20  21
ENDBRANCH   1  20
TORSDOF 7
