REMARK  Name = ZINC22708186
REMARK  13 active torsions:
REMARK  status: ('A' for Active; 'I' for Inactive)
REMARK    1  A    between atoms: C_1  and  C_2
REMARK    2  A    between atoms: C_2  and  C_25
REMARK    3  A    between atoms: N_5  and  C_9
REMARK    4  A    between atoms: C_9  and  C_10
REMARK    5  A    between atoms: C_12  and  C_15
REMARK    6  A    between atoms: C_18  and  O_23
REMARK    7  A    between atoms: C_19  and  O_21
REMARK    8  A    between atoms: O_21  and  C_22
REMARK    9  A    between atoms: O_23  and  C_24
REMARK   10  A    between atoms: C_28  and  C_31
REMARK   11  A    between atoms: C_31  and  C_32
REMARK   12  A    between atoms: C_31  and  C_33
REMARK   13  A    between atoms: C_31  and  C_34
REMARK                            x       y       z     vdW  Elec       q    Type
REMARK                         _______ _______ _______ _____ _____    ______ ____
ROOT
ATOM      1  C   UNL     1      -0.013   1.086   0.008  0.00  0.00    +0.047 C 
ATOM      2  C   UNL     1      -0.729   1.579   1.267  0.00  0.00    +0.135 C 
ATOM      3  C   UNL     1      -0.026   1.077   2.512  0.00  0.00    +0.251 C 
ATOM      4  O   UNL     1       1.113   1.313   2.856  0.00  0.00    -0.272 OA
ATOM      5  N   UNL     1      -0.929   0.314   3.158  0.00  0.00    -0.215 N 
ATOM      6  C   UNL     1      -2.094   0.265   2.501  0.00  0.00    +0.310 C 
ATOM      7  O   UNL     1      -3.062  -0.361   2.887  0.00  0.00    -0.252 OA
ATOM      8  N   UNL     1      -2.073   0.985   1.365  0.00  0.00    -0.281 N 
ATOM      9  H   UNL     1      -2.820   1.181   0.581  0.00  0.00    +0.152 HD
ENDROOT
BRANCH   2  10
ATOM     10  C   UNL     1      -0.809   3.084   1.274  0.00  0.00    -0.015 A 
ATOM     11  C   UNL     1       0.193   3.827   1.871  0.00  0.00    +0.006 A 
ATOM     12  C   UNL     1       0.122   5.207   1.873  0.00  0.00    +0.004 A 
ATOM     13  C   UNL     1      -0.956   5.845   1.288  0.00  0.00    -0.042 A 
ATOM     14  C   UNL     1      -1.960   5.102   0.696  0.00  0.00    +0.004 A 
ATOM     15  C   UNL     1      -1.887   3.722   0.689  0.00  0.00    +0.006 A 
BRANCH  13  16
ATOM     16  C   UNL     1      -1.036   7.350   1.296  0.00  0.00    -0.013 C 
ATOM     17  C   UNL     1      -2.304   7.789   2.032  0.00  0.00    +0.015 C 
ATOM     18  C   UNL     1       0.191   7.922   2.007  0.00  0.00    +0.015 C 
ATOM     19  C   UNL     1      -1.078   7.866  -0.144  0.00  0.00    +0.015 C 
ENDBRANCH  13  16
ENDBRANCH   2  10
BRANCH   5  20
ATOM     20  C   UNL     1      -0.669  -0.378   4.423  0.00  0.00    +0.216 C 
BRANCH  20  21
ATOM     21  C   UNL     1      -1.031   0.526   5.573  0.00  0.00    +0.246 A 
ATOM     22  N   UNL     1      -2.201   0.613   6.156  0.00  0.00    -0.190 NA
ATOM     23  C   UNL     1      -2.055   1.542   7.127  0.00  0.00    +0.202 A 
ATOM     24  N   UNL     1      -0.819   1.967   7.072  0.00  0.00    -0.056 NA
ATOM     25  O   UNL     1      -0.220   1.394   6.186  0.00  0.00    -0.336 OA
BRANCH  23  26
ATOM     26  C   UNL     1      -3.102   1.999   8.073  0.00  0.00    +0.026 A 
ATOM     27  C   UNL     1      -4.383   1.453   8.014  0.00  0.00    +0.015 A 
ATOM     28  C   UNL     1      -5.356   1.879   8.894  0.00  0.00    +0.050 A 
ATOM     29  C   UNL     1      -5.063   2.850   9.840  0.00  0.00    +0.162 A 
ATOM     30  C   UNL     1      -3.784   3.399   9.904  0.00  0.00    +0.162 A 
ATOM     31  C   UNL     1      -2.804   2.971   9.027  0.00  0.00    +0.061 A 
BRANCH  30  32
ATOM     32  O   UNL     1      -3.499   4.351  10.832  0.00  0.00    -0.491 OA
ATOM     33  C   UNL     1      -2.167   4.869  10.841  0.00  0.00    +0.277 C 
ENDBRANCH  30  32
BRANCH  29  34
ATOM     34  O   UNL     1      -6.025   3.266  10.705  0.00  0.00    -0.491 OA
ATOM     35  C   UNL     1      -7.314   2.661  10.583  0.00  0.00    +0.277 C 
ENDBRANCH  29  34
ENDBRANCH  23  26
ENDBRANCH  20  21
ENDBRANCH   5  20
TORSDOF 7
