REMARK  Name = ZINC22690324
REMARK  5 active torsions:
REMARK  status: ('A' for Active; 'I' for Inactive)
REMARK    1  A    between atoms: C_1  and  C_2
REMARK    2  A    between atoms: C_7  and  N_8
REMARK    3  A    between atoms: N_8  and  C_9
REMARK    4  A    between atoms: C_9  and  C_10
REMARK    5  A    between atoms: C_23  and  C_25
REMARK                            x       y       z     vdW  Elec       q    Type
REMARK                         _______ _______ _______ _____ _____    ______ ____
ROOT
ATOM      1  C   UNL     1       0.045   0.213   4.831  0.00  0.00    +0.237 C 
ATOM      2  O   UNL     1       0.027   1.407   4.618  0.00  0.00    -0.274 OA
ATOM      3  N   UNL     1       0.063  -0.246   6.098  0.00  0.00    -0.265 N 
ATOM      4  C   UNL     1       0.090  -1.623   6.359  0.00  0.00    +0.058 A 
ATOM      5  C   UNL     1       1.235  -2.365   6.119  0.00  0.00    +0.025 A 
ATOM      6  C   UNL     1       1.250  -3.718   6.403  0.00  0.00    +0.002 A 
ATOM      7  C   UNL     1       0.128  -4.333   6.928  0.00  0.00    +0.002 A 
ATOM      8  C   UNL     1      -1.022  -3.601   7.162  0.00  0.00    +0.025 A 
ATOM      9  C   UNL     1      -1.049  -2.247   6.869  0.00  0.00    +0.055 A 
ATOM     10  N   UNL     1      -2.217  -1.498   7.045  0.00  0.00    -0.284 N 
ATOM     11  C   UNL     1      -2.179  -0.309   7.686  0.00  0.00    +0.219 C 
ATOM     12  O   UNL     1      -3.183   0.368   7.759  0.00  0.00    -0.275 OA
ATOM     13  C   UNL     1      -0.899   0.180   8.311  0.00  0.00    +0.118 C 
ATOM     14  C   UNL     1       0.061   0.686   7.228  0.00  0.00    +0.087 C 
ATOM     15  C   UNL     1       1.475   0.789   7.804  0.00  0.00    +0.029 C 
ATOM     16  H   UNL     1      -3.061  -1.834   6.704  0.00  0.00    +0.155 HD
ENDROOT
BRANCH   1  17
ATOM     17  C   UNL     1       0.047  -0.758   3.678  0.00  0.00    +0.198 C 
BRANCH  17  18
ATOM     18  N   UNL     1       0.025  -0.016   2.415  0.00  0.00    -0.335 N 
ATOM     19  H   UNL     1       0.012   0.954   2.422  0.00  0.00    +0.147 HD
BRANCH  18  26
ATOM     20  C   UNL     1      -0.018   1.503   0.010  0.00  0.00    +0.045 C 
ATOM     21  C   UNL     1       0.002  -0.004   0.002  0.00  0.00    -0.030 A 
ATOM     22  C   UNL     1       0.006  -0.689  -1.198  0.00  0.00    +0.005 A 
ATOM     23  C   UNL     1       0.024  -2.071  -1.206  0.00  0.00    +0.000 A 
ATOM     24  C   UNL     1       0.039  -2.773  -0.014  0.00  0.00    +0.002 A 
ATOM     25  C   UNL     1       0.036  -2.095   1.188  0.00  0.00    +0.023 A 
ATOM     26  C   UNL     1       0.023  -0.706   1.200  0.00  0.00    +0.030 A 
ENDBRANCH  18  26
ENDBRANCH  17  18
ENDBRANCH   1  17
TORSDOF 3
