REMARK  Name = ZINC41006964
REMARK  12 active torsions:
REMARK  status: ('A' for Active; 'I' for Inactive)
REMARK    1  A    between atoms: C_1  and  C_2
REMARK    2  A    between atoms: C_2  and  C_3
REMARK    3  A    between atoms: C_3  and  C_4
REMARK    4  A    between atoms: C_4  and  O_5
REMARK    5  A    between atoms: O_5  and  C_6
REMARK    6  A    between atoms: C_9  and  C_12
REMARK    7  A    between atoms: C_14  and  C_33
REMARK    8  A    between atoms: C_19  and  C_31
REMARK    9  A    between atoms: C_19  and  O_32
REMARK   10  A    between atoms: C_20  and  C_22
REMARK   11  A    between atoms: N_24  and  C_25
REMARK   12  A    between atoms: N_35  and  C_36
REMARK                            x       y       z     vdW  Elec       q    Type
REMARK                         _______ _______ _______ _____ _____    ______ ____
ROOT
ATOM      1  C   UNL     1       2.301  -7.796  -2.928  0.00  0.00    +0.053 C 
ATOM      2  C   UNL     1       3.669  -7.206  -2.568  0.00  0.00    +0.149 C 
ATOM      3  C   UNL     1       4.620  -8.343  -2.266  0.00  0.00    +0.148 C 
ATOM      4  O   UNL     1       5.265  -8.357  -1.246  0.00  0.00    -0.296 OA
ATOM      5  C   UNL     1       4.741  -9.463  -3.276  0.00  0.00    +0.110 C 
ATOM      6  C   UNL     1       3.335  -9.972  -3.610  0.00  0.00    +0.082 C 
ATOM      7  C   UNL     1       2.466  -8.800  -4.070  0.00  0.00    +0.115 C 
ATOM      8  C   UNL     1       3.421 -11.013  -4.728  0.00  0.00    +0.042 C 
ENDROOT
BRANCH   1  12
ATOM      9  C   UNL     1      -0.328  -4.659  -4.154  0.00  0.00    +0.121 A 
ATOM     10  C   UNL     1      -0.536  -5.308  -2.946  0.00  0.00    +0.046 A 
ATOM     11  C   UNL     1       0.315  -6.322  -2.552  0.00  0.00    +0.007 A 
ATOM     12  C   UNL     1       1.374  -6.690  -3.360  0.00  0.00    -0.042 A 
ATOM     13  C   UNL     1       1.585  -6.044  -4.565  0.00  0.00    +0.007 A 
ATOM     14  C   UNL     1       0.733  -5.034  -4.966  0.00  0.00    +0.046 A 
BRANCH   9  15
ATOM     15  O   UNL     1      -1.164  -3.661  -4.544  0.00  0.00    -0.492 OA
BRANCH  15  16
ATOM     16  C   UNL     1      -2.234  -3.328  -3.658  0.00  0.00    +0.229 C 
BRANCH  16  17
ATOM     17  C   UNL     1      -3.062  -2.191  -4.262  0.00  0.00    +0.041 C 
BRANCH  17  19
ATOM     18  C   UNL     1      -5.035  -0.699  -3.917  0.00  0.00    +0.004 C 
ATOM     19  C   UNL     1      -4.208  -1.835  -3.313  0.00  0.00    -0.000 C 
ENDBRANCH  17  19
ENDBRANCH  16  17
ENDBRANCH  15  16
ENDBRANCH   9  15
ENDBRANCH   1  12
BRANCH   7  20
ATOM     20  C   UNL     1       3.123  -8.120  -5.243  0.00  0.00    +0.224 C 
ATOM     21  O   UNL     1       4.330  -7.995  -5.274  0.00  0.00    -0.275 OA
ATOM     22  N   UNL     1       2.371  -7.651  -6.259  0.00  0.00    -0.285 N 
ATOM     23  H   UNL     1       1.404  -7.691  -6.204  0.00  0.00    +0.155 HD
BRANCH  22  24
ATOM     24  C   UNL     1       2.986  -7.106  -7.391  0.00  0.00    +0.033 A 
ATOM     25  C   UNL     1       4.190  -7.628  -7.848  0.00  0.00    +0.023 A 
ATOM     26  C   UNL     1       4.794  -7.088  -8.967  0.00  0.00    +0.002 A 
ATOM     27  C   UNL     1       4.202  -6.030  -9.632  0.00  0.00    +0.000 A 
ATOM     28  C   UNL     1       3.004  -5.508  -9.179  0.00  0.00    +0.002 A 
ATOM     29  C   UNL     1       2.392  -6.048  -8.065  0.00  0.00    +0.023 A 
ENDBRANCH  22  24
ENDBRANCH   7  20
BRANCH   2  30
ATOM     30  C   UNL     1       4.192  -6.397  -3.727  0.00  0.00    +0.228 C 
ATOM     31  O   UNL     1       3.535  -5.481  -4.173  0.00  0.00    -0.275 OA
ATOM     32  N   UNL     1       5.391  -6.692  -4.268  0.00  0.00    -0.285 N 
ATOM     33  H   UNL     1       5.877  -7.477  -3.970  0.00  0.00    +0.155 HD
BRANCH  32  34
ATOM     34  C   UNL     1       5.933  -5.867  -5.260  0.00  0.00    +0.033 A 
ATOM     35  C   UNL     1       5.668  -4.504  -5.252  0.00  0.00    +0.023 A 
ATOM     36  C   UNL     1       6.204  -3.693  -6.232  0.00  0.00    +0.002 A 
ATOM     37  C   UNL     1       7.005  -4.236  -7.220  0.00  0.00    +0.000 A 
ATOM     38  C   UNL     1       7.271  -5.593  -7.231  0.00  0.00    +0.002 A 
ATOM     39  C   UNL     1       6.742  -6.409  -6.250  0.00  0.00    +0.023 A 
ENDBRANCH  32  34
ENDBRANCH   2  30
BRANCH   6  40
ATOM     40  O   UNL     1       2.754 -10.567  -2.448  0.00  0.00    -0.388 OA
ATOM     41  H   UNL     1       3.254 -11.318  -2.099  0.00  0.00    +0.210 HD
ENDBRANCH   6  40
TORSDOF 10
