REMARK  Name = ZINC01993745
REMARK  6 active torsions:
REMARK  status: ('A' for Active; 'I' for Inactive)
REMARK    1  A    between atoms: C_6  and  O_11
REMARK    2  A    between atoms: O_11  and  C_12
REMARK    3  A    between atoms: C_17  and  O_23
REMARK    4  A    between atoms: O_23  and  C_24
REMARK    5  A    between atoms: C_24  and  C_25
REMARK    6  A    between atoms: N_27  and  C_28
REMARK                            x       y       z     vdW  Elec       q    Type
REMARK                         _______ _______ _______ _____ _____    ______ ____
ROOT
ATOM      1  C   UNL     1       5.814   3.080   0.652  0.00  0.00    +0.210 A 
ATOM      2  C   UNL     1       5.717   1.739   0.748  0.00  0.00    +0.245 A 
ATOM      3  O   UNL     1       6.782   0.929   0.687  0.00  0.00    -0.459 OA
ATOM      4  C   UNL     1       8.037   1.396   0.536  0.00  0.00    +0.142 A 
ATOM      5  C   UNL     1       9.120   0.529   0.482  0.00  0.00    +0.092 A 
ATOM      6  C   UNL     1      10.399   1.036   0.327  0.00  0.00    +0.125 A 
ATOM      7  C   UNL     1      10.609   2.410   0.224  0.00  0.00    +0.046 A 
ATOM      8  C   UNL     1       9.555   3.276   0.274  0.00  0.00    +0.019 A 
ATOM      9  C   UNL     1       8.259   2.780   0.431  0.00  0.00    +0.068 A 
ATOM     10  C   UNL     1       7.095   3.681   0.491  0.00  0.00    +0.234 A 
ATOM     11  O   UNL     1       7.222   4.891   0.405  0.00  0.00    -0.283 OA
ENDROOT
BRANCH   1  12
ATOM     12  O   UNL     1       4.697   3.854   0.715  0.00  0.00    -0.449 OA
BRANCH  12  18
ATOM     13  C   UNL     1       1.203   6.090  -4.046  0.00  0.00    +0.001 A 
ATOM     14  C   UNL     1       0.585   6.412  -2.839  0.00  0.00    +0.001 A 
ATOM     15  C   UNL     1       1.137   6.046  -1.650  0.00  0.00    +0.008 A 
ATOM     16  C   UNL     1       2.345   5.327  -1.636  0.00  0.00    -0.014 A 
ATOM     17  C   UNL     1       2.944   4.933  -0.429  0.00  0.00    +0.054 A 
ATOM     18  C   UNL     1       4.118   4.235  -0.454  0.00  0.00    +0.129 A 
ATOM     19  C   UNL     1       4.733   3.908  -1.667  0.00  0.00    +0.047 A 
ATOM     20  C   UNL     1       4.178   4.275  -2.853  0.00  0.00    +0.012 A 
ATOM     21  C   UNL     1       2.970   4.994  -2.864  0.00  0.00    -0.018 A 
ATOM     22  C   UNL     1       2.369   5.389  -4.072  0.00  0.00    +0.008 A 
ENDBRANCH  12  18
ENDBRANCH   1  12
BRANCH   6  23
ATOM     23  O   UNL     1      11.457   0.188   0.274  0.00  0.00    -0.483 OA
BRANCH  23  24
ATOM     24  C   UNL     1      12.751   0.774   0.112  0.00  0.00    +0.324 C 
BRANCH  24  25
ATOM     25  C   UNL     1      13.793  -0.314   0.075  0.00  0.00    +0.255 C 
ATOM     26  O   UNL     1      13.461  -1.476   0.177  0.00  0.00    -0.272 OA
ATOM     27  N   UNL     1      15.095   0.005  -0.072  0.00  0.00    -0.283 N 
ATOM     28  H   UNL     1      15.368   0.936  -0.080  0.00  0.00    +0.155 HD
BRANCH  27  29
ATOM     29  C   UNL     1      16.052  -1.007  -0.213  0.00  0.00    +0.034 A 
ATOM     30  C   UNL     1      17.328  -0.835   0.308  0.00  0.00    +0.026 A 
ATOM     31  C   UNL     1      18.269  -1.837   0.174  0.00  0.00    +0.040 A 
ATOM     32  C   UNL     1      17.944  -3.008  -0.490  0.00  0.00    +0.124 A 
ATOM     33  C   UNL     1      16.674  -3.179  -1.016  0.00  0.00    +0.040 A 
ATOM     34  C   UNL     1      15.729  -2.182  -0.878  0.00  0.00    +0.026 A 
ATOM     35  F   UNL     1      18.868  -3.985  -0.626  0.00  0.00    -0.205 F 
ENDBRANCH  27  29
ENDBRANCH  24  25
ENDBRANCH  23  24
ENDBRANCH   6  23
TORSDOF 6
