REMARK  Name = ZINC64058082
REMARK  9 active torsions:
REMARK  status: ('A' for Active; 'I' for Inactive)
REMARK    1  A    between atoms: C_1  and  O_2
REMARK    2  A    between atoms: O_2  and  C_3
REMARK    3  A    between atoms: C_3  and  C_5
REMARK    4  A    between atoms: N_11  and  C_30
REMARK    5  A    between atoms: C_18  and  O_20
REMARK    6  A    between atoms: O_20  and  C_21
REMARK    7  A    between atoms: C_21  and  C_22
REMARK    8  A    between atoms: C_22  and  C_23
REMARK    9  A    between atoms: C_30  and  C_31
REMARK                            x       y       z     vdW  Elec       q    Type
REMARK                         _______ _______ _______ _____ _____    ______ ____
ROOT
ATOM      1  C   UNL     1       0.657  -2.104  -1.120  0.00  0.00    +0.147 C 
ATOM      2  C   UNL     1       1.375  -2.523  -2.400  0.00  0.00    +0.093 C 
ATOM      3  C   UNL     1       2.761  -1.921  -2.454  0.00  0.00    +0.039 C 
ATOM      4  C   UNL     1       3.701  -2.824  -3.260  0.00  0.00    +0.086 C 
ATOM      5  N   UNL     1       3.566  -2.658  -4.650  0.00  0.00    -0.299 NA
ATOM      6  C   UNL     1       2.242  -3.049  -5.173  0.00  0.00    +0.103 C 
ATOM      7  C   UNL     1       1.229  -1.962  -4.908  0.00  0.00    +0.123 C 
ATOM      8  N   UNL     1       0.604  -2.110  -3.584  0.00  0.00    -0.296 N 
ATOM      9  C   UNL     1      -0.716  -1.876  -3.518  0.00  0.00    +0.218 C 
ATOM     10  O   UNL     1      -1.291  -1.613  -4.553  0.00  0.00    -0.276 OA
ATOM     11  C   UNL     1      -1.532  -1.915  -2.265  0.00  0.00    +0.128 C 
ATOM     12  C   UNL     1      -0.766  -2.674  -1.142  0.00  0.00    +0.142 C 
ENDROOT
BRANCH   1  13
ATOM     13  C   UNL     1       0.598  -0.600  -1.043  0.00  0.00    +0.314 C 
ATOM     14  O   UNL     1       1.088   0.070  -1.921  0.00  0.00    -0.250 OA
BRANCH  13  16
ATOM     15  C   UNL     1      -0.017   1.425   0.010  0.00  0.00    +0.280 C 
ATOM     16  O   UNL     1       0.002  -0.004   0.002  0.00  0.00    -0.468 OA
ENDBRANCH  13  16
ENDBRANCH   1  13
BRANCH  12  17
ATOM     17  O   UNL     1      -1.398  -2.446   0.119  0.00  0.00    -0.375 OA
BRANCH  17  18
ATOM     18  C   UNL     1      -2.364  -3.438   0.472  0.00  0.00    +0.165 C 
BRANCH  18  19
ATOM     19  C   UNL     1      -2.974  -3.094   1.833  0.00  0.00    +0.066 C 
BRANCH  19  20
ATOM     20  C   UNL     1      -3.992  -4.140   2.206  0.00  0.00    -0.010 A 
ATOM     21  C   UNL     1      -5.329  -3.936   1.920  0.00  0.00    +0.006 A 
ATOM     22  C   UNL     1      -6.264  -4.895   2.262  0.00  0.00    +0.000 A 
ATOM     23  C   UNL     1      -5.863  -6.059   2.891  0.00  0.00    +0.003 A 
ATOM     24  C   UNL     1      -4.527  -6.265   3.178  0.00  0.00    +0.038 A 
ATOM     25  C   UNL     1      -3.589  -5.308   2.831  0.00  0.00    +0.127 A 
ATOM     26  F   UNL     1      -2.282  -5.510   3.107  0.00  0.00    -0.205 F 
ENDBRANCH  19  20
ENDBRANCH  18  19
ENDBRANCH  17  18
ENDBRANCH  12  17
BRANCH   5  27
ATOM     27  C   UNL     1       4.643  -3.351  -5.370  0.00  0.00    +0.113 C 
BRANCH  27  28
ATOM     28  C   UNL     1       4.611  -2.947  -6.846  0.00  0.00    +0.117 C 
ATOM     29  C   UNL     1       5.819  -3.506  -7.564  0.00  0.00    +0.008 C 
ATOM     30  C   UNL     1       6.501  -2.438  -8.036  0.00  0.00    -0.004 A 
ATOM     31  C   UNL     1       7.743  -2.313  -8.808  0.00  0.00    +0.010 A 
ATOM     32  C   UNL     1       8.188  -1.080  -9.141  0.00  0.00    +0.001 A 
ATOM     33  C   UNL     1       7.495   0.079  -8.768  0.00  0.00    +0.002 A 
ATOM     34  C   UNL     1       6.347   0.045  -8.058  0.00  0.00    +0.026 A 
ATOM     35  C   UNL     1       5.788  -1.198  -7.654  0.00  0.00    +0.043 A 
ATOM     36  N   UNL     1       4.704  -1.489  -6.973  0.00  0.00    -0.377 N 
ATOM     37  H   UNL     1       4.071  -0.848  -6.614  0.00  0.00    +0.160 HD
ENDBRANCH  27  28
ENDBRANCH   5  27
TORSDOF 8
