REMARK  Name = ZINC39896766
REMARK  11 active torsions:
REMARK  status: ('A' for Active; 'I' for Inactive)
REMARK    1  A    between atoms: C_1  and  C_2
REMARK    2  A    between atoms: C_7  and  C_8
REMARK    3  A    between atoms: C_8  and  C_9
REMARK    4  A    between atoms: N_13  and  C_31
REMARK    5  A    between atoms: C_15  and  C_16
REMARK    6  A    between atoms: C_15  and  C_18
REMARK    7  A    between atoms: N_20  and  C_21
REMARK    8  A    between atoms: C_21  and  C_23
REMARK    9  A    between atoms: C_21  and  C_24
REMARK   10  A    between atoms: C_34  and  C_38
REMARK   11  A    between atoms: C_35  and  C_37
REMARK                            x       y       z     vdW  Elec       q    Type
REMARK                         _______ _______ _______ _____ _____    ______ ____
ROOT
ATOM      1  C   UNL     1      -0.914  -0.075   3.233  0.00  0.00    +0.143 C 
ATOM      2  C   UNL     1      -1.073   0.829   4.446  0.00  0.00    +0.238 C 
ATOM      3  O   UNL     1      -0.216   1.620   4.776  0.00  0.00    -0.274 OA
ATOM      4  N   UNL     1      -2.205   0.697   5.116  0.00  0.00    -0.232 N 
ATOM      5  C   UNL     1      -3.182  -0.197   4.751  0.00  0.00    +0.098 C 
ATOM      6  C   UNL     1      -4.411  -0.430   5.369  0.00  0.00    +0.141 C 
ATOM      7  S   UNL     1      -2.511  -0.989   3.295  0.00  0.00    -0.095 S 
ENDROOT
BRANCH   4   8
ATOM      8  C   UNL     1      -2.416   1.500   6.245  0.00  0.00    +0.042 A 
ATOM      9  C   UNL     1      -1.993   1.069   7.495  0.00  0.00    +0.024 A 
ATOM     10  C   UNL     1      -2.202   1.863   8.605  0.00  0.00    +0.005 A 
ATOM     11  C   UNL     1      -2.832   3.087   8.473  0.00  0.00    -0.047 A 
ATOM     12  C   UNL     1      -3.254   3.519   7.230  0.00  0.00    -0.046 A 
ATOM     13  C   UNL     1      -3.043   2.732   6.114  0.00  0.00    +0.027 A 
ATOM     14  C   UNL     1      -3.940   4.854   7.090  0.00  0.00    +0.044 C 
ATOM     15  C   UNL     1      -3.059   3.950   9.687  0.00  0.00    +0.044 C 
ENDBRANCH   4   8
BRANCH   6  16
ATOM     16  C   UNL     1      -5.370  -1.354   4.765  0.00  0.00    +0.257 C 
ATOM     17  O   UNL     1      -5.097  -1.919   3.722  0.00  0.00    -0.269 OA
ATOM     18  N   UNL     1      -6.557  -1.579   5.363  0.00  0.00    -0.304 N 
ATOM     19  H   UNL     1      -6.775  -1.129   6.194  0.00  0.00    +0.150 HD
BRANCH  18  20
ATOM     20  C   UNL     1      -7.518  -2.504   4.757  0.00  0.00    +0.100 C 
ATOM     21  C   UNL     1      -7.193  -3.934   5.192  0.00  0.00    +0.033 C 
BRANCH  20  22
ATOM     22  C   UNL     1      -8.911  -2.147   5.207  0.00  0.00    -0.027 A 
ATOM     23  C   UNL     1      -9.137  -1.758   6.514  0.00  0.00    +0.005 A 
ATOM     24  C   UNL     1     -10.415  -1.430   6.926  0.00  0.00    +0.000 A 
ATOM     25  C   UNL     1     -11.467  -1.490   6.031  0.00  0.00    +0.000 A 
ATOM     26  C   UNL     1     -11.241  -1.879   4.724  0.00  0.00    +0.000 A 
ATOM     27  C   UNL     1      -9.962  -2.202   4.310  0.00  0.00    +0.005 A 
ENDBRANCH  20  22
ENDBRANCH  18  20
ENDBRANCH   6  16
BRANCH   6  28
ATOM     28  C   UNL     1      -4.733   0.235   6.596  0.00  0.00    +0.107 C 
ATOM     29  N   UNL     1      -4.988   0.762   7.570  0.00  0.00    -0.191 NA
ENDBRANCH   6  28
BRANCH   1  30
ATOM     30  C   UNL     1       0.275  -1.024   3.400  0.00  0.00    +0.059 C 
BRANCH  30  37
ATOM     31  C   UNL     1       1.737  -0.038   1.112  0.00  0.00    +0.044 C 
ATOM     32  C   UNL     1       1.111  -1.408   1.073  0.00  0.00    -0.047 A 
ATOM     33  C   UNL     1       1.241  -2.195  -0.056  0.00  0.00    +0.003 A 
ATOM     34  C   UNL     1       0.667  -3.452  -0.092  0.00  0.00    +0.000 A 
ATOM     35  C   UNL     1      -0.038  -3.922   1.001  0.00  0.00    +0.000 A 
ATOM     36  C   UNL     1      -0.167  -3.135   2.130  0.00  0.00    +0.004 A 
ATOM     37  C   UNL     1       0.411  -1.880   2.167  0.00  0.00    -0.043 A 
ENDBRANCH  30  37
ENDBRANCH   1  30
TORSDOF 7
