REMARK  Name = ZINC39977051
REMARK  4 active torsions:
REMARK  status: ('A' for Active; 'I' for Inactive)
REMARK    1  A    between atoms: C_1  and  C_2
REMARK    2  A    between atoms: C_9  and  N_13
REMARK    3  A    between atoms: C_16  and  C_19
REMARK    4  A    between atoms: C_19  and  N_21
REMARK                            x       y       z     vdW  Elec       q    Type
REMARK                         _______ _______ _______ _____ _____    ______ ____
ROOT
ATOM      1  N   UNL     1       2.450  -2.667   1.240  0.00  0.00    -0.283 NA
ATOM      2  C   UNL     1       3.226  -2.204   0.083  0.00  0.00    +0.087 C 
ATOM      3  C   UNL     1       3.158  -3.251  -1.031  0.00  0.00    +0.028 C 
ATOM      4  C   UNL     1       3.721  -4.577  -0.513  0.00  0.00    +0.079 C 
ATOM      5  C   UNL     1       2.926  -5.013   0.721  0.00  0.00    +0.028 C 
ATOM      6  C   UNL     1       3.001  -3.914   1.784  0.00  0.00    +0.087 C 
ENDROOT
BRANCH   1  14
ATOM      7  C   UNL     1      -0.019   1.526   0.010  0.00  0.00    +0.052 C 
ATOM      8  C   UNL     1       0.002  -0.004   0.002  0.00  0.00    +0.189 C 
ATOM      9  N   UNL     1      -1.370  -0.542   0.094  0.00  0.00    -0.246 N 
ATOM     10  N   UNL     1      -1.425  -1.290   1.281  0.00  0.00    -0.169 NA
ATOM     11  C   UNL     1      -0.300  -1.276   1.899  0.00  0.00    +0.154 C 
ATOM     12  N   UNL     1       0.660  -0.513   1.197  0.00  0.00    -0.226 N 
ATOM     13  N   UNL     1       1.934  -0.362   1.662  0.00  0.00    -0.216 NA
ATOM     14  C   UNL     1       2.378  -1.627   2.276  0.00  0.00    +0.166 C 
ATOM     15  C   UNL     1       1.421  -2.070   3.354  0.00  0.00    +0.012 C 
ATOM     16  C   UNL     1       0.089  -1.921   3.176  0.00  0.00    +0.045 C 
ATOM     17  H   UNL     1      -2.092  -0.404  -0.539  0.00  0.00    +0.170 HD
ATOM     18  H   UNL     1       1.991   0.399   2.322  0.00  0.00    +0.147 HD
ENDBRANCH   1  14
BRANCH   4  19
ATOM     19  C   UNL     1       3.601  -5.629  -1.586  0.00  0.00    +0.242 C 
ATOM     20  O   UNL     1       3.112  -5.345  -2.663  0.00  0.00    -0.273 OA
BRANCH  19  21
ATOM     21  N   UNL     1       4.030  -6.865  -1.356  0.00  0.00    -0.156 NA
ATOM     22  C   UNL     1       3.924  -7.794  -2.304  0.00  0.00    +0.164 A 
ATOM     23  N   UNL     1       4.302  -9.096  -2.239  0.00  0.00    -0.335 N 
ATOM     24  H   UNL     1       4.703  -9.446  -1.428  0.00  0.00    +0.168 HD
ATOM     25  C   UNL     1       4.113  -9.921  -3.331  0.00  0.00    +0.055 A 
ATOM     26  C   UNL     1       4.426 -11.280  -3.479  0.00  0.00    +0.027 A 
ATOM     27  C   UNL     1       4.159 -11.936  -4.658  0.00  0.00    +0.002 A 
ATOM     28  C   UNL     1       3.577 -11.278  -5.729  0.00  0.00    +0.001 A 
ATOM     29  C   UNL     1       3.258  -9.937  -5.608  0.00  0.00    +0.017 A 
ATOM     30  C   UNL     1       3.524  -9.280  -4.430  0.00  0.00    +0.039 A 
ATOM     31  S   UNL     1       3.287  -7.621  -3.849  0.00  0.00    -0.052 S 
ENDBRANCH  19  21
ENDBRANCH   4  19
TORSDOF 3
