REMARK  Name = ZINC64676775
REMARK  4 active torsions:
REMARK  status: ('A' for Active; 'I' for Inactive)
REMARK    1  A    between atoms: C_1  and  C_2
REMARK    2  A    between atoms: C_5  and  C_8
REMARK    3  A    between atoms: C_10  and  C_13
REMARK    4  A    between atoms: N_19  and  C_20
REMARK                            x       y       z     vdW  Elec       q    Type
REMARK                         _______ _______ _______ _____ _____    ______ ____
ROOT
ATOM      1  C   UNL     1       0.101  -7.467   1.616  0.00  0.00    +0.058 A 
ATOM      2  C   UNL     1       0.123  -8.773   1.105  0.00  0.00    +0.018 A 
ATOM      3  C   UNL     1       0.138  -9.820   1.987  0.00  0.00    +0.044 A 
ATOM      4  C   UNL     1       0.130  -9.560   3.356  0.00  0.00    +0.119 A 
ATOM      5  N   UNL     1       0.108  -8.316   3.813  0.00  0.00    -0.240 NA
ATOM      6  C   UNL     1       0.100  -7.281   2.999  0.00  0.00    +0.126 A 
ATOM      7  N   UNL     1       0.143 -10.618   4.253  0.00  0.00    -0.326 N 
ATOM      8  H   UNL     1       0.138 -10.445   5.207  0.00  0.00    +0.148 HD
ENDROOT
BRANCH   7   9
ATOM      9  C   UNL     1       0.166 -11.997   3.758  0.00  0.00    +0.072 C 
ATOM     10  C   UNL     1       1.611 -12.412   3.472  0.00  0.00    +0.022 C 
ATOM     11  C   UNL     1       1.634 -13.852   2.956  0.00  0.00    +0.002 C 
ATOM     12  C   UNL     1       1.036 -14.783   4.013  0.00  0.00    +0.000 C 
ATOM     13  C   UNL     1      -0.409 -14.367   4.299  0.00  0.00    +0.002 C 
ATOM     14  C   UNL     1      -0.432 -12.927   4.815  0.00  0.00    +0.022 C 
ENDBRANCH   7   9
BRANCH   1  17
ATOM     15  C   UNL     1       0.059  -4.256  -0.021  0.00  0.00    +0.202 A 
ATOM     16  N   UNL     1       0.070  -5.043   1.066  0.00  0.00    -0.187 NA
ATOM     17  C   UNL     1       0.086  -6.306   0.705  0.00  0.00    +0.260 A 
ATOM     18  O   UNL     1       0.086  -6.359  -0.639  0.00  0.00    -0.332 OA
ATOM     19  N   UNL     1       0.064  -5.013  -1.092  0.00  0.00    -0.056 NA
BRANCH  15  24
ATOM     20  C   UNL     1      -0.018   1.503   0.010  0.00  0.00    +0.044 C 
ATOM     21  C   UNL     1       0.002  -0.004   0.002  0.00  0.00    -0.050 A 
ATOM     22  C   UNL     1       0.006  -0.687  -1.201  0.00  0.00    +0.004 A 
ATOM     23  C   UNL     1       0.024  -2.067  -1.214  0.00  0.00    +0.012 A 
ATOM     24  C   UNL     1       0.040  -2.772  -0.013  0.00  0.00    +0.022 A 
ATOM     25  C   UNL     1       0.036  -2.080   1.196  0.00  0.00    +0.012 A 
ATOM     26  C   UNL     1       0.023  -0.700   1.198  0.00  0.00    +0.004 A 
ENDBRANCH  15  24
ENDBRANCH   1  17
TORSDOF 3
