REMARK  Name = ZINC21232790
REMARK  11 active torsions:
REMARK  status: ('A' for Active; 'I' for Inactive)
REMARK    1  A    between atoms: C_1  and  C_2
REMARK    2  A    between atoms: C_2  and  O_3
REMARK    3  A    between atoms: O_3  and  C_4
REMARK    4  A    between atoms: C_6  and  C_14
REMARK    5  A    between atoms: C_9  and  O_10
REMARK    6  A    between atoms: O_10  and  C_11
REMARK    7  A    between atoms: C_11  and  C_13
REMARK    8  A    between atoms: C_19  and  C_24
REMARK    9  A    between atoms: C_27  and  N_30
REMARK   10  A    between atoms: N_30  and  C_31
REMARK   11  A    between atoms: N_30  and  C_32
REMARK                            x       y       z     vdW  Elec       q    Type
REMARK                         _______ _______ _______ _____ _____    ______ ____
ROOT
ATOM      1  C   UNL     1       1.143  -2.179   0.686  0.00  0.00    +0.136 C 
ATOM      2  C   UNL     1       1.009  -0.676   0.625  0.00  0.00    +0.036 C 
ATOM      3  C   UNL     1       0.018   0.003   0.024  0.00  0.00    +0.017 C 
ATOM      4  C   UNL     1       0.004   1.522   0.041  0.00  0.00    +0.059 C 
ATOM      5  C   UNL     1       1.435   2.057   0.034  0.00  0.00    +0.032 C 
ATOM      6  C   UNL     1       2.141   1.516   1.284  0.00  0.00    +0.088 C 
ATOM      7  C   UNL     1       2.062   0.019   1.266  0.00  0.00    +0.163 C 
ATOM      8  O   UNL     1       2.932  -0.621   1.824  0.00  0.00    -0.292 OA
ATOM      9  N   UNL     1      -1.032  -0.569  -0.620  0.00  0.00    -0.316 N 
ATOM     10  C   UNL     1      -0.933  -1.611  -1.534  0.00  0.00    +0.052 A 
ATOM     11  C   UNL     1      -1.270  -1.461  -2.868  0.00  0.00    +0.025 A 
ATOM     12  C   UNL     1      -1.192  -2.554  -3.714  0.00  0.00    +0.002 A 
ATOM     13  C   UNL     1      -0.785  -3.784  -3.230  0.00  0.00    +0.002 A 
ATOM     14  C   UNL     1      -0.431  -3.931  -1.900  0.00  0.00    +0.025 A 
ATOM     15  C   UNL     1      -0.487  -2.834  -1.056  0.00  0.00    +0.049 A 
ATOM     16  N   UNL     1      -0.034  -2.906   0.261  0.00  0.00    -0.331 N 
ATOM     17  H   UNL     1      -2.055  -0.209  -0.431  0.00  0.00    +0.152 HD
ATOM     18  H   UNL     1      -0.587  -3.527   0.981  0.00  0.00    +0.147 HD
ENDROOT
BRANCH   1  21
ATOM     19  C   UNL     1       4.483  -3.546  -0.433  0.00  0.00    +0.163 A 
ATOM     20  C   UNL     1       3.421  -3.165   0.372  0.00  0.00    +0.055 A 
ATOM     21  C   UNL     1       2.299  -2.588  -0.191  0.00  0.00    -0.019 A 
ATOM     22  C   UNL     1       2.236  -2.381  -1.557  0.00  0.00    +0.009 A 
ATOM     23  C   UNL     1       3.293  -2.753  -2.365  0.00  0.00    +0.050 A 
ATOM     24  C   UNL     1       4.419  -3.337  -1.808  0.00  0.00    +0.173 A 
BRANCH  19  25
ATOM     25  O   UNL     1       5.586  -4.118   0.119  0.00  0.00    -0.489 OA
BRANCH  25  27
ATOM     26  C   UNL     1       6.896  -4.954   1.970  0.00  0.00    +0.048 C 
ATOM     27  C   UNL     1       5.581  -4.302   1.536  0.00  0.00    +0.226 C 
ENDBRANCH  25  27
ENDBRANCH  19  25
BRANCH  24  28
ATOM     28  O   UNL     1       5.460  -3.704  -2.602  0.00  0.00    -0.422 OA
BRANCH  28  29
ATOM     29  C   UNL     1       5.497  -4.983  -3.006  0.00  0.00    +0.309 C 
ATOM     30  O   UNL     1       4.583  -5.727  -2.740  0.00  0.00    -0.251 OA
ATOM     31  C   UNL     1       6.679  -5.492  -3.791  0.00  0.00    +0.136 C 
ENDBRANCH  28  29
ENDBRANCH  24  28
ENDBRANCH   1  21
BRANCH   5  32
ATOM     32  C   UNL     1       1.418   3.563   0.069  0.00  0.00    -0.043 A 
ATOM     33  C   UNL     1       0.820   4.222   1.128  0.00  0.00    +0.006 A 
ATOM     34  C   UNL     1       0.808   5.603   1.165  0.00  0.00    +0.023 A 
ATOM     35  C   UNL     1       1.387   6.329   0.133  0.00  0.00    +0.029 A 
ATOM     36  C   UNL     1       1.982   5.664  -0.932  0.00  0.00    +0.023 A 
ATOM     37  C   UNL     1       1.995   4.283  -0.961  0.00  0.00    +0.006 A 
BRANCH  35  38
ATOM     38  N   UNL     1       1.371   7.725   0.165  0.00  0.00    -0.336 N 
ATOM     39  C   UNL     1       1.983   8.490  -0.924  0.00  0.00    +0.129 C 
ATOM     40  C   UNL     1       0.744   8.425   1.289  0.00  0.00    +0.129 C 
ENDBRANCH  35  38
ENDBRANCH   5  32
TORSDOF 7
