REMARK  Name = ZINC13065227
REMARK  12 active torsions:
REMARK  status: ('A' for Active; 'I' for Inactive)
REMARK    1  A    between atoms: C_1  and  C_2
REMARK    2  A    between atoms: C_2  and  C_3
REMARK    3  A    between atoms: C_3  and  C_5
REMARK    4  A    between atoms: C_3  and  N_69
REMARK    5  A    between atoms: N_9  and  C_10
REMARK    6  A    between atoms: C_10  and  C_11
REMARK    7  A    between atoms: C_17  and  C_18
REMARK    8  A    between atoms: C_17  and  N_69
REMARK    9  A    between atoms: C_25  and  C_26
REMARK   10  A    between atoms: C_25  and  N_69
REMARK   11  A    between atoms: C_29  and  C_39
REMARK   12  A    between atoms: C_32  and  C_38
REMARK                            x       y       z     vdW  Elec       q    Type
REMARK                         _______ _______ _______ _____ _____    ______ ____
ROOT
ATOM      1  N   UNL     1       4.032   0.803  -2.932  0.00  0.00    +0.392 N 
ATOM      2  H   UNL     1       4.662   0.708  -3.737  0.00  0.00    -0.080 HD
ENDROOT
BRANCH   1   3
ATOM      3  C   UNL     1       4.194   2.153  -2.353  0.00  0.00    +0.003 C 
BRANCH   3   4
ATOM      4  C   UNL     1       3.644   3.172  -3.317  0.00  0.00    +0.138 A 
ATOM      5  N   UNL     1       3.828   3.202  -4.614  0.00  0.00    -0.115 NA
ATOM      6  N   UNL     1       3.203   4.227  -5.082  0.00  0.00    -0.023 NA
ATOM      7  N   UNL     1       2.619   4.848  -4.117  0.00  0.00    -0.044 NA
ATOM      8  N   UNL     1       2.865   4.227  -3.013  0.00  0.00    -0.226 N 
BRANCH   8   9
ATOM      9  C   UNL     1       2.391   4.603  -1.679  0.00  0.00    +0.182 C 
BRANCH   9  10
ATOM     10  C   UNL     1       1.066   3.937  -1.410  0.00  0.00    -0.026 A 
ATOM     11  C   UNL     1       1.029   2.688  -0.819  0.00  0.00    +0.005 A 
ATOM     12  C   UNL     1      -0.186   2.076  -0.572  0.00  0.00    +0.000 A 
ATOM     13  C   UNL     1      -1.363   2.711  -0.922  0.00  0.00    +0.000 A 
ATOM     14  C   UNL     1      -1.326   3.962  -1.509  0.00  0.00    +0.000 A 
ATOM     15  C   UNL     1      -0.111   4.574  -1.755  0.00  0.00    +0.005 A 
ENDBRANCH   9  10
ENDBRANCH   8   9
ENDBRANCH   3   4
BRANCH   3  17
ATOM     16  C   UNL     1       5.862   3.764  -1.423  0.00  0.00    +0.002 C 
ATOM     17  C   UNL     1       5.684   2.417  -2.126  0.00  0.00    -0.011 C 
ENDBRANCH   3  17
ENDBRANCH   1   3
BRANCH   1  18
ATOM     18  C   UNL     1       2.639   0.613  -3.388  0.00  0.00    -0.042 C 
BRANCH  18  19
ATOM     19  C   UNL     1       2.599  -0.548  -4.348  0.00  0.00    -0.064 A 
ATOM     20  C   UNL     1       2.918  -0.355  -5.679  0.00  0.00    +0.004 A 
ATOM     21  C   UNL     1       2.887  -1.420  -6.560  0.00  0.00    +0.038 A 
ATOM     22  C   UNL     1       2.526  -2.679  -6.110  0.00  0.00    +0.123 A 
ATOM     23  C   UNL     1       2.202  -2.870  -4.778  0.00  0.00    +0.038 A 
ATOM     24  C   UNL     1       2.239  -1.805  -3.898  0.00  0.00    +0.004 A 
ATOM     25  F   UNL     1       2.490  -3.719  -6.971  0.00  0.00    -0.205 F 
ENDBRANCH  18  19
ENDBRANCH   1  18
BRANCH   1  26
ATOM     26  C   UNL     1       4.379  -0.223  -1.927  0.00  0.00    -0.036 C 
BRANCH  26  27
ATOM     27  C   UNL     1       3.530  -0.062  -0.692  0.00  0.00    +0.001 A 
ATOM     28  C   UNL     1       2.382  -0.773  -0.564  0.00  0.00    +0.017 A 
ATOM     29  C   UNL     1       1.582  -0.597   0.649  0.00  0.00    +0.002 A 
ATOM     30  C   UNL     1       0.392  -1.307   0.841  0.00  0.00    -0.041 A 
ATOM     31  C   UNL     1      -0.334  -1.117   1.982  0.00  0.00    +0.004 A 
ATOM     32  C   UNL     1       0.100  -0.226   2.954  0.00  0.00    +0.005 A 
ATOM     33  C   UNL     1       1.268   0.484   2.787  0.00  0.00    -0.026 A 
ATOM     34  C   UNL     1       2.025   0.307   1.633  0.00  0.00    +0.052 A 
ATOM     35  N   UNL     1       3.199   1.004   1.440  0.00  0.00    -0.322 N 
ATOM     36  H   UNL     1       3.502   1.627   2.119  0.00  0.00    +0.169 HD
ATOM     37  C   UNL     1       3.929   0.832   0.324  0.00  0.00    +0.251 A 
ATOM     38  O   UNL     1       4.961   1.465   0.187  0.00  0.00    -0.268 OA
ATOM     39  C   UNL     1       1.727   1.448   3.851  0.00  0.00    +0.046 C 
ATOM     40  C   UNL     1      -0.087  -2.277  -0.208  0.00  0.00    +0.044 C 
ENDBRANCH  26  27
ENDBRANCH   1  26
TORSDOF 9
