REMARK  Name = ZINC63234412
REMARK  5 active torsions:
REMARK  status: ('A' for Active; 'I' for Inactive)
REMARK    1  A    between atoms: C_1  and  C_2
REMARK    2  A    between atoms: N_18  and  C_19
REMARK    3  A    between atoms: C_19  and  C_20
REMARK    4  A    between atoms: C_20  and  C_22
REMARK    5  A    between atoms: C_20  and  C_28
REMARK                            x       y       z     vdW  Elec       q    Type
REMARK                         _______ _______ _______ _____ _____    ______ ____
ROOT
ATOM      1  C   UNL     1       3.430  -5.765  -2.629  0.00  0.00    +0.115 C 
ENDROOT
BRANCH   1  16
ATOM      2  C   UNL     1      -0.019   1.526   0.010  0.00  0.00    +0.007 C 
ATOM      3  C   UNL     1       0.002  -0.004   0.002  0.00  0.00    -0.013 C 
ATOM      4  C   UNL     1       0.712  -0.494  -1.260  0.00  0.00    +0.004 C 
ATOM      5  C   UNL     1       0.665  -2.021  -1.263  0.00  0.00    +0.010 C 
ATOM      6  C   UNL     1       1.509  -2.579  -0.116  0.00  0.00    +0.038 C 
ATOM      7  C   UNL     1       1.258  -4.064  -0.055  0.00  0.00    +0.028 A 
ATOM      8  C   UNL     1       1.867  -5.040  -0.860  0.00  0.00    +0.126 A 
ATOM      9  N   UNL     1       1.475  -6.301  -0.657  0.00  0.00    -0.221 NA
ATOM     10  C   UNL     1       0.571  -6.645   0.233  0.00  0.00    +0.224 A 
ATOM     11  N   UNL     1      -0.029  -5.766   1.029  0.00  0.00    -0.229 NA
ATOM     12  C   UNL     1       0.322  -4.499   0.895  0.00  0.00    +0.106 A 
ATOM     13  S   UNL     1      -0.172  -3.061   1.801  0.00  0.00    -0.101 S 
ATOM     14  C   UNL     1       1.145  -1.938   1.225  0.00  0.00    +0.061 C 
ATOM     15  C   UNL     1       0.729  -0.503   1.233  0.00  0.00    +0.018 C 
ATOM     16  N   UNL     1       2.821  -4.713  -1.812  0.00  0.00    -0.328 N 
ATOM     17  H   UNL     1       3.085  -3.788  -1.936  0.00  0.00    +0.147 HD
ENDBRANCH   1  16
BRANCH   1  18
ATOM     18  C   UNL     1       4.442  -5.141  -3.592  0.00  0.00    +0.064 C 
BRANCH  18  19
ATOM     19  C   UNL     1       4.979  -6.205  -4.516  0.00  0.00    -0.033 C 
ATOM     20  C   UNL     1       4.895  -6.227  -5.865  0.00  0.00    -0.000 A 
ATOM     21  C   UNL     1       4.301  -5.304  -6.840  0.00  0.00    +0.010 A 
ATOM     22  C   UNL     1       4.376  -5.604  -8.157  0.00  0.00    +0.001 A 
ATOM     23  C   UNL     1       5.004  -6.770  -8.613  0.00  0.00    +0.002 A 
ATOM     24  C   UNL     1       5.572  -7.666  -7.779  0.00  0.00    +0.026 A 
ATOM     25  C   UNL     1       5.553  -7.452  -6.373  0.00  0.00    +0.043 A 
ATOM     26  N   UNL     1       6.025  -8.160  -5.375  0.00  0.00    -0.380 N 
ATOM     27  C   UNL     1       5.725  -7.459  -4.122  0.00  0.00    +0.145 C 
ATOM     28  H   UNL     1       6.498  -9.003  -5.453  0.00  0.00    +0.160 HD
ENDBRANCH  18  19
BRANCH  18  29
ATOM     29  C   UNL     1       5.578  -4.539  -2.806  0.00  0.00    -0.039 A 
ATOM     30  C   UNL     1       6.353  -5.339  -1.988  0.00  0.00    +0.004 A 
ATOM     31  C   UNL     1       7.395  -4.787  -1.267  0.00  0.00    +0.000 A 
ATOM     32  C   UNL     1       7.663  -3.434  -1.365  0.00  0.00    +0.000 A 
ATOM     33  C   UNL     1       6.889  -2.634  -2.184  0.00  0.00    +0.000 A 
ATOM     34  C   UNL     1       5.849  -3.187  -2.908  0.00  0.00    +0.004 A 
ENDBRANCH  18  29
ENDBRANCH   1  18
TORSDOF 4
