REMARK  Name = ZINC06065650
REMARK  8 active torsions:
REMARK  status: ('A' for Active; 'I' for Inactive)
REMARK    1  A    between atoms: C_1  and  C_2
REMARK    2  A    between atoms: C_2  and  C_4
REMARK    3  A    between atoms: C_2  and  O_22
REMARK    4  A    between atoms: N_6  and  C_7
REMARK    5  A    between atoms: C_12  and  O_13
REMARK    6  A    between atoms: O_13  and  C_14
REMARK    7  A    between atoms: O_22  and  C_23
REMARK    8  A    between atoms: C_23  and  C_25
REMARK                            x       y       z     vdW  Elec       q    Type
REMARK                         _______ _______ _______ _____ _____    ______ ____
ROOT
ATOM      1  C   UNL     1      -3.576  -0.713  -0.069  0.00  0.00    +0.258 C 
ATOM      2  O   UNL     1      -3.567  -1.925  -0.076  0.00  0.00    -0.271 OA
ATOM      3  N   UNL     1      -2.417  -0.031   0.025  0.00  0.00    -0.279 N 
ATOM      4  H   UNL     1      -2.428   0.935   0.111  0.00  0.00    +0.155 HD
ENDROOT
BRANCH   3   5
ATOM      5  C   UNL     1      -1.196  -0.718  -0.002  0.00  0.00    +0.079 A 
ATOM      6  C   UNL     1      -1.116  -1.955  -0.618  0.00  0.00    +0.074 A 
ATOM      7  C   UNL     1       0.090  -2.641  -0.648  0.00  0.00    +0.138 A 
ATOM      8  C   UNL     1       1.222  -2.069  -0.050  0.00  0.00    +0.031 A 
ATOM      9  C   UNL     1       1.139  -0.822   0.564  0.00  0.00    +0.059 A 
ATOM     10  C   UNL     1      -0.068  -0.150   0.593  0.00  0.00    +0.142 A 
ATOM     11  C   UNL     1       2.316  -3.037  -0.256  0.00  0.00    +0.028 A 
ATOM     12  C   UNL     1       3.663  -3.061   0.091  0.00  0.00    +0.012 A 
ATOM     13  C   UNL     1       4.440  -4.145  -0.259  0.00  0.00    +0.001 A 
ATOM     14  C   UNL     1       3.881  -5.205  -0.956  0.00  0.00    +0.004 A 
ATOM     15  C   UNL     1       2.547  -5.191  -1.306  0.00  0.00    +0.047 A 
ATOM     16  C   UNL     1       1.748  -4.107  -0.961  0.00  0.00    +0.136 A 
ATOM     17  O   UNL     1       0.441  -3.838  -1.172  0.00  0.00    -0.455 OA
BRANCH  10  18
ATOM     18  O   UNL     1      -0.156   1.066   1.197  0.00  0.00    -0.493 OA
ATOM     19  C   UNL     1       1.038   1.586   1.785  0.00  0.00    +0.277 C 
ENDBRANCH  10  18
ENDBRANCH   3   5
BRANCH   1  21
ATOM     20  C   UNL     1      -4.923   0.823  -1.476  0.00  0.00    +0.062 C 
ATOM     21  C   UNL     1      -4.882   0.032  -0.166  0.00  0.00    +0.259 C 
BRANCH  21  22
ATOM     22  O   UNL     1      -5.983  -0.914  -0.138  0.00  0.00    -0.449 OA
BRANCH  22  23
ATOM     23  C   UNL     1      -7.144  -0.487   0.394  0.00  0.00    +0.340 C 
ATOM     24  O   UNL     1      -7.235   0.646   0.823  0.00  0.00    -0.245 OA
BRANCH  23  25
ATOM     25  C   UNL     1      -8.307  -1.396   0.456  0.00  0.00    +0.059 A 
ATOM     26  C   UNL     1      -8.207  -2.697  -0.041  0.00  0.00    +0.015 A 
ATOM     27  C   UNL     1      -9.296  -3.542   0.025  0.00  0.00    +0.001 A 
ATOM     28  C   UNL     1     -10.487  -3.099   0.572  0.00  0.00    +0.000 A 
ATOM     29  C   UNL     1     -10.594  -1.810   1.062  0.00  0.00    +0.001 A 
ATOM     30  C   UNL     1      -9.512  -0.956   1.007  0.00  0.00    +0.015 A 
ENDBRANCH  23  25
ENDBRANCH  22  23
ENDBRANCH  21  22
ENDBRANCH   1  21
TORSDOF 6
