REMARK  Name = ZINC39942465
REMARK  7 active torsions:
REMARK  status: ('A' for Active; 'I' for Inactive)
REMARK    1  A    between atoms: C_1  and  C_2
REMARK    2  A    between atoms: C_2  and  C_4
REMARK    3  A    between atoms: C_2  and  S_17
REMARK    4  A    between atoms: N_6  and  C_7
REMARK    5  A    between atoms: S_17  and  C_18
REMARK    6  A    between atoms: C_22  and  C_27
REMARK    7  A    between atoms: N_23  and  C_24
REMARK                            x       y       z     vdW  Elec       q    Type
REMARK                         _______ _______ _______ _____ _____    ______ ____
ROOT
ATOM      1  C   UNL     1       2.566  -0.108  -1.263  0.00  0.00    +0.238 C 
ATOM      2  N   UNL     1       2.715   1.356  -1.237  0.00  0.00    -0.237 N 
ATOM      3  N   UNL     1       3.266   1.679   0.009  0.00  0.00    -0.169 NA
ATOM      4  C   UNL     1       3.466   0.608   0.730  0.00  0.00    +0.147 C 
ATOM      5  N   UNL     1       3.073  -0.550   0.047  0.00  0.00    -0.282 N 
ATOM      6  H   UNL     1       2.478   1.976  -1.945  0.00  0.00    +0.171 HD
ENDROOT
BRANCH   4   7
ATOM      7  C   UNL     1       4.008   0.616   2.025  0.00  0.00    +0.022 C 
ATOM      8  C   UNL     1       4.330   1.732   2.797  0.00  0.00    +0.006 A 
ATOM      9  C   UNL     1       4.226   3.119   2.558  0.00  0.00    +0.010 A 
ATOM     10  C   UNL     1       4.624   3.999   3.513  0.00  0.00    +0.001 A 
ATOM     11  C   UNL     1       5.138   3.566   4.737  0.00  0.00    +0.002 A 
ATOM     12  C   UNL     1       5.265   2.250   5.035  0.00  0.00    +0.026 A 
ATOM     13  C   UNL     1       4.870   1.271   4.086  0.00  0.00    +0.043 A 
ATOM     14  N   UNL     1       4.892  -0.047   4.132  0.00  0.00    -0.380 N 
ATOM     15  C   UNL     1       4.360  -0.584   2.876  0.00  0.00    +0.152 C 
ATOM     16  H   UNL     1       5.207  -0.577   4.881  0.00  0.00    +0.160 HD
ENDBRANCH   4   7
BRANCH   5  17
ATOM     17  C   UNL     1       3.150  -1.928   0.537  0.00  0.00    +0.078 C 
ATOM     18  C   UNL     1       2.729  -3.043  -0.423  0.00  0.00    +0.024 C 
ATOM     19  C   UNL     1       1.832  -2.673   0.760  0.00  0.00    +0.024 C 
ENDBRANCH   5  17
BRANCH   1  20
ATOM     20  S   UNL     1       0.821  -0.565  -1.455  0.00  0.00    -0.106 S 
BRANCH  20  22
ATOM     21  C   UNL     1       0.105   1.766  -0.216  0.00  0.00    +0.029 C 
ATOM     22  C   UNL     1      -0.002   0.248  -0.058  0.00  0.00    +0.133 C 
BRANCH  22  23
ATOM     23  C   UNL     1      -1.454  -0.154  -0.027  0.00  0.00    +0.230 C 
ATOM     24  O   UNL     1      -1.981  -0.598  -1.025  0.00  0.00    -0.274 OA
ATOM     25  N   UNL     1      -2.167  -0.019   1.109  0.00  0.00    -0.284 N 
ATOM     26  H   UNL     1      -1.730   0.275   1.923  0.00  0.00    +0.155 HD
BRANCH  25  27
ATOM     27  C   UNL     1      -3.539  -0.302   1.113  0.00  0.00    +0.037 A 
ATOM     28  C   UNL     1      -4.401   0.447   1.902  0.00  0.00    +0.027 A 
ATOM     29  C   UNL     1      -5.753   0.167   1.907  0.00  0.00    +0.051 A 
ATOM     30  C   UNL     1      -6.255  -0.862   1.123  0.00  0.00    +0.162 A 
ATOM     31  C   UNL     1      -5.395  -1.613   0.330  0.00  0.00    +0.164 A 
ATOM     32  C   UNL     1      -4.038  -1.329   0.323  0.00  0.00    +0.072 A 
ATOM     33  O   UNL     1      -5.869  -2.621  -0.451  0.00  0.00    -0.485 OA
ATOM     34  C   UNL     1      -7.177  -3.115  -0.140  0.00  0.00    +0.270 C 
ATOM     35  C   UNL     1      -8.108  -1.913   0.066  0.00  0.00    +0.270 C 
ATOM     36  O   UNL     1      -7.591  -1.126   1.144  0.00  0.00    -0.485 OA
ENDBRANCH  25  27
ENDBRANCH  22  23
ENDBRANCH  20  22
ENDBRANCH   1  20
TORSDOF 6
