REMARK  Name = ZINC63361837
REMARK  7 active torsions:
REMARK  status: ('A' for Active; 'I' for Inactive)
REMARK    1  A    between atoms: C_1  and  C_2
REMARK    2  A    between atoms: C_5  and  C_8
REMARK    3  A    between atoms: C_8  and  N_9
REMARK    4  A    between atoms: C_10  and  C_12
REMARK    5  A    between atoms: C_12  and  C_14
REMARK    6  A    between atoms: C_12  and  N_15
REMARK    7  A    between atoms: C_18  and  C_34
REMARK                            x       y       z     vdW  Elec       q    Type
REMARK                         _______ _______ _______ _____ _____    ______ ____
ROOT
ATOM      1  N   UNL     1       3.156  -8.016  -0.059  0.00  0.00    -0.212 N 
ATOM      2  C   UNL     1       3.725  -8.772   0.903  0.00  0.00    +0.249 C 
ATOM      3  O   UNL     1       4.325  -8.383   1.882  0.00  0.00    -0.273 OA
ATOM      4  C   UNL     1       3.456 -10.207   0.506  0.00  0.00    +0.136 C 
ATOM      5  C   UNL     1       4.767 -10.971   0.324  0.00  0.00    +0.139 C 
ATOM      6  C   UNL     1       4.917 -11.267  -1.161  0.00  0.00    -0.034 C 
ATOM      7  C   UNL     1       6.092 -10.757  -1.524  0.00  0.00    -0.001 A 
ATOM      8  C   UNL     1       6.813 -10.784  -2.807  0.00  0.00    +0.010 A 
ATOM      9  C   UNL     1       8.011 -10.142  -2.833  0.00  0.00    +0.001 A 
ATOM     10  C   UNL     1       8.556  -9.485  -1.726  0.00  0.00    +0.002 A 
ATOM     11  C   UNL     1       7.965  -9.415  -0.507  0.00  0.00    +0.026 A 
ATOM     12  C   UNL     1       6.701 -10.056  -0.354  0.00  0.00    +0.043 A 
ATOM     13  N   UNL     1       5.928 -10.163   0.704  0.00  0.00    -0.375 N 
ATOM     14  C   UNL     1       3.855 -11.944  -1.991  0.00  0.00    +0.052 C 
ATOM     15  C   UNL     1       2.535 -11.189  -1.736  0.00  0.00    +0.115 C 
ATOM     16  N   UNL     1       2.820 -10.079  -0.821  0.00  0.00    -0.269 N 
ATOM     17  C   UNL     1       2.606  -8.771  -1.020  0.00  0.00    +0.313 C 
ATOM     18  O   UNL     1       1.987  -8.321  -1.964  0.00  0.00    -0.252 OA
ATOM     19  C   UNL     1       2.527 -10.897   1.507  0.00  0.00    +0.044 C 
ATOM     20  H   UNL     1       6.088  -9.776   1.579  0.00  0.00    +0.160 HD
ENDROOT
BRANCH   1  21
ATOM     21  C   UNL     1       3.137  -6.551  -0.051  0.00  0.00    +0.168 C 
ATOM     22  C   UNL     1       3.845  -6.025  -1.301  0.00  0.00    +0.038 C 
BRANCH  21  24
ATOM     23  N   UNL     1       1.447  -4.746  -0.032  0.00  0.00    -0.310 N 
ATOM     24  C   UNL     1       1.710  -6.067  -0.040  0.00  0.00    +0.234 C 
ATOM     25  O   UNL     1       0.799  -6.867  -0.040  0.00  0.00    -0.274 OA
ATOM     26  H   UNL     1       2.176  -4.106  -0.032  0.00  0.00    +0.149 HD
BRANCH  23  27
ATOM     27  C   UNL     1       0.059  -4.275  -0.021  0.00  0.00    +0.139 C 
BRANCH  27  32
ATOM     28  C   UNL     1      -0.018   1.503   0.010  0.00  0.00    +0.044 C 
ATOM     29  C   UNL     1       0.002  -0.004   0.002  0.00  0.00    -0.050 A 
ATOM     30  C   UNL     1       0.006  -0.689  -1.199  0.00  0.00    +0.003 A 
ATOM     31  C   UNL     1       0.025  -2.071  -1.206  0.00  0.00    +0.005 A 
ATOM     32  C   UNL     1       0.040  -2.768  -0.013  0.00  0.00    -0.030 A 
ATOM     33  C   UNL     1       0.037  -2.084   1.188  0.00  0.00    +0.005 A 
ATOM     34  C   UNL     1       0.023  -0.702   1.195  0.00  0.00    +0.003 A 
ENDBRANCH  27  32
ENDBRANCH  23  27
ENDBRANCH  21  24
ENDBRANCH   1  21
TORSDOF 4
