REMARK  Name = ZINC24874325
REMARK  11 active torsions:
REMARK  status: ('A' for Active; 'I' for Inactive)
REMARK    1  A    between atoms: C_1  and  C_2
REMARK    2  A    between atoms: C_2  and  N_3
REMARK    3  A    between atoms: N_3  and  C_4
REMARK    4  A    between atoms: N_3  and  C_6
REMARK    5  A    between atoms: C_4  and  C_5
REMARK    6  A    between atoms: C_9  and  C_12
REMARK    7  A    between atoms: C_12  and  C_14
REMARK    8  A    between atoms: C_14  and  N_15
REMARK    9  A    between atoms: C_18  and  S_21
REMARK   10  A    between atoms: S_21  and  C_24
REMARK   11  A    between atoms: C_27  and  C_30
REMARK                            x       y       z     vdW  Elec       q    Type
REMARK                         _______ _______ _______ _____ _____    ______ ____
ROOT
ATOM      1  N   UNL     1      10.107   0.781   3.899  0.00  0.00    +0.385 N 
ATOM      2  C   UNL     1      10.557  -0.461   3.258  0.00  0.00    -0.076 C 
ATOM      3  C   UNL     1      10.156  -0.449   1.781  0.00  0.00    +0.008 C 
ATOM      4  C   UNL     1       8.634  -0.319   1.671  0.00  0.00    +0.132 C 
ATOM      5  C   UNL     1       8.185   0.957   2.388  0.00  0.00    +0.008 C 
ATOM      6  C   UNL     1       8.644   0.905   3.847  0.00  0.00    -0.076 C 
ATOM      7  H   UNL     1      10.534   1.623   3.335  0.00  0.00    -0.081 HD
ENDROOT
BRANCH   4   8
ATOM      8  S   UNL     1       8.158  -0.231  -0.077  0.00  0.00    -0.000 S 
ATOM      9  O   UNL     1       8.301  -1.506  -0.688  0.00  0.00    -0.169 OA
ATOM     10  O   UNL     1       8.718   0.927  -0.679  0.00  0.00    -0.169 OA
BRANCH   8  11
ATOM     11  C   UNL     1       6.421   0.067  -0.059  0.00  0.00    +0.089 A 
ATOM     12  C   UNL     1       5.945   1.365  -0.048  0.00  0.00    +0.027 A 
ATOM     13  C   UNL     1       4.586   1.605  -0.034  0.00  0.00    +0.010 A 
ATOM     14  C   UNL     1       3.693   0.535  -0.031  0.00  0.00    -0.017 A 
ATOM     15  C   UNL     1       4.178  -0.771  -0.037  0.00  0.00    +0.010 A 
ATOM     16  C   UNL     1       5.540  -0.999  -0.056  0.00  0.00    +0.027 A 
BRANCH  14  17
ATOM     17  C   UNL     1       2.231   0.786  -0.015  0.00  0.00    -0.011 A 
ATOM     18  C   UNL     1       1.327  -0.273  -0.012  0.00  0.00    +0.016 A 
ATOM     19  C   UNL     1       0.002  -0.004   0.002  0.00  0.00    +0.046 A 
ATOM     20  S   UNL     1      -0.022   1.780   0.012  0.00  0.00    -0.104 S 
ATOM     21  C   UNL     1       1.740   2.062  -0.004  0.00  0.00    +0.053 A 
ENDBRANCH  14  17
ENDBRANCH   8  11
ENDBRANCH   4   8
BRANCH   1  22
ATOM     22  C   UNL     1      10.594   0.866   5.282  0.00  0.00    +0.002 C 
BRANCH  22  23
ATOM     23  C   UNL     1      10.327   2.247   5.824  0.00  0.00    +0.147 C 
ATOM     24  O   UNL     1       9.784   3.078   5.127  0.00  0.00    -0.294 OA
BRANCH  23  28
ATOM     25  C   UNL     1      11.470   3.224   9.778  0.00  0.00    +0.030 A 
ATOM     26  C   UNL     1      10.847   4.179   8.979  0.00  0.00    +0.024 A 
ATOM     27  C   UNL     1      10.476   3.868   7.702  0.00  0.00    +0.013 A 
ATOM     28  C   UNL     1      10.723   2.586   7.196  0.00  0.00    +0.016 A 
ATOM     29  C   UNL     1      11.346   1.626   8.005  0.00  0.00    +0.013 A 
ATOM     30  C   UNL     1      11.718   1.947   9.279  0.00  0.00    +0.024 A 
BRANCH  25  31
ATOM     31  N   UNL     1      11.845   3.544  11.076  0.00  0.00    -0.330 N 
BRANCH  31  33
ATOM     32  C   UNL     1      14.017   2.629  11.731  0.00  0.00    +0.024 C 
ATOM     33  C   UNL     1      12.501   2.541  11.918  0.00  0.00    +0.102 C 
ENDBRANCH  31  33
BRANCH  31  34
ATOM     34  C   UNL     1      11.586   4.886  11.603  0.00  0.00    +0.102 C 
ATOM     35  C   UNL     1      10.208   4.916  12.268  0.00  0.00    +0.024 C 
ENDBRANCH  31  34
ENDBRANCH  25  31
ENDBRANCH  23  28
ENDBRANCH  22  23
ENDBRANCH   1  22
TORSDOF 9
