REMARK  Name = ZINC30940914
REMARK  3 active torsions:
REMARK  status: ('A' for Active; 'I' for Inactive)
REMARK    1  A    between atoms: C_12  and  C_14
REMARK    2  A    between atoms: N_17  and  C_20
REMARK    3  A    between atoms: C_20  and  C_21
REMARK                            x       y       z     vdW  Elec       q    Type
REMARK                         _______ _______ _______ _____ _____    ______ ____
ROOT
ATOM      1  C   UNL     1      -3.319   2.868   1.863  0.00  0.00    +0.072 C 
ATOM      2  C   UNL     1      -4.110   2.662   0.568  0.00  0.00    -0.006 C 
ATOM      3  C   UNL     1      -5.391   1.884   0.877  0.00  0.00    -0.078 C 
ATOM      4  N   UNL     1      -6.197   2.632   1.851  0.00  0.00    +0.382 N 
ATOM      5  C   UNL     1      -5.476   2.801   3.119  0.00  0.00    -0.078 C 
ATOM      6  C   UNL     1      -4.197   3.606   2.876  0.00  0.00    -0.006 C 
ATOM      7  H   UNL     1      -6.381   3.634   1.434  0.00  0.00    -0.081 HD
ENDROOT
BRANCH   1  19
ATOM      8  C   UNL     1       2.296   5.383  -0.173  0.00  0.00    +0.002 A 
ATOM      9  C   UNL     1       1.144   6.056   0.190  0.00  0.00    +0.002 A 
ATOM     10  C   UNL     1      -0.009   5.352   0.487  0.00  0.00    +0.025 A 
ATOM     11  C   UNL     1      -0.006   3.970   0.420  0.00  0.00    +0.058 A 
ATOM     12  C   UNL     1       1.157   3.288   0.058  0.00  0.00    +0.055 A 
ATOM     13  C   UNL     1       2.307   4.002  -0.240  0.00  0.00    +0.025 A 
ATOM     14  N   UNL     1       1.147   1.890   0.001  0.00  0.00    -0.283 N 
ATOM     15  C   UNL     1      -0.014   1.209   0.009  0.00  0.00    +0.235 C 
ATOM     16  O   UNL     1       0.002  -0.004   0.002  0.00  0.00    -0.274 OA
ATOM     17  C   UNL     1      -1.335   1.935   0.019  0.00  0.00    +0.209 C 
ATOM     18  N   UNL     1      -1.163   3.228   0.705  0.00  0.00    -0.261 N 
ATOM     19  C   UNL     1      -2.086   3.684   1.575  0.00  0.00    +0.223 C 
ATOM     20  O   UNL     1      -1.924   4.753   2.125  0.00  0.00    -0.275 OA
ATOM     21  H   UNL     1       2.095   1.335  -0.050  0.00  0.00    +0.155 HD
ENDBRANCH   1  19
BRANCH   4  22
ATOM     22  C   UNL     1      -7.497   1.984   2.067  0.00  0.00    -0.043 C 
BRANCH  22  23
ATOM     23  C   UNL     1      -8.097   1.606   0.738  0.00  0.00    -0.062 A 
ATOM     24  C   UNL     1      -8.918   2.497   0.071  0.00  0.00    +0.003 A 
ATOM     25  C   UNL     1      -9.465   2.154  -1.151  0.00  0.00    +0.021 A 
ATOM     26  C   UNL     1      -9.200   0.913  -1.703  0.00  0.00    +0.059 A 
ATOM     27  C   UNL     1      -8.382   0.019  -1.033  0.00  0.00    +0.059 A 
ATOM     28  C   UNL     1      -7.831   0.366   0.187  0.00  0.00    +0.023 A 
ATOM     29 CL   UNL     1      -8.048  -1.538  -1.725  0.00  0.00    -0.082 Cl
ATOM     30 CL   UNL     1      -9.891   0.478  -3.235  0.00  0.00    -0.082 Cl
ENDBRANCH  22  23
ENDBRANCH   4  22
TORSDOF 3
