REMARK  Name = ZINC60343171
REMARK  10 active torsions:
REMARK  status: ('A' for Active; 'I' for Inactive)
REMARK    1  A    between atoms: C_1  and  C_2
REMARK    2  A    between atoms: C_2  and  C_4
REMARK    3  A    between atoms: C_2  and  N_26
REMARK    4  A    between atoms: N_10  and  C_11
REMARK    5  A    between atoms: C_11  and  C_12
REMARK    6  A    between atoms: C_27  and  O_29
REMARK    7  A    between atoms: O_29  and  C_30
REMARK    8  A    between atoms: C_30  and  C_31
REMARK    9  A    between atoms: C_30  and  C_32
REMARK   10  A    between atoms: C_30  and  C_33
REMARK                            x       y       z     vdW  Elec       q    Type
REMARK                         _______ _______ _______ _____ _____    ______ ____
ROOT
ATOM      1  C   UNL     1       0.837  -0.380  -1.291  0.00  0.00    -0.048 C 
ATOM      2  C   UNL     1       0.862  -1.903  -1.429  0.00  0.00    -0.014 C 
ATOM      3  C   UNL     1       1.581  -2.281  -2.727  0.00  0.00    -0.003 C 
ATOM      4  C   UNL     1       0.875  -1.603  -3.905  0.00  0.00    -0.019 C 
ATOM      5  C   UNL     1       0.849  -0.090  -3.675  0.00  0.00    -0.078 C 
ATOM      6  N   UNL     1       0.126   0.207  -2.433  0.00  0.00    +0.387 N 
ATOM      7  H   UNL     1      -0.804  -0.182  -2.485  0.00  0.00    -0.081 HD
ENDROOT
BRANCH   1   9
ATOM      8  C   UNL     1       0.897  -0.551   1.201  0.00  0.00    +0.026 C 
ATOM      9  C   UNL     1       0.120   0.003   0.006  0.00  0.00    +0.060 C 
BRANCH   9  10
ATOM     10  N   UNL     1      -1.233  -0.560  -0.000  0.00  0.00    -0.280 N 
ATOM     11  C   UNL     1      -2.205   0.016   0.735  0.00  0.00    +0.401 C 
ATOM     12  O   UNL     1      -1.960   1.001   1.402  0.00  0.00    -0.226 OA
ATOM     13  H   UNL     1      -1.429  -1.346  -0.533  0.00  0.00    +0.152 HD
BRANCH  11  14
ATOM     14  O   UNL     1      -3.448  -0.501   0.729  0.00  0.00    -0.445 OA
BRANCH  14  15
ATOM     15  C   UNL     1      -4.429   0.160   1.531  0.00  0.00    +0.107 C 
ATOM     16  C   UNL     1      -4.584   1.607   1.058  0.00  0.00    +0.055 C 
ATOM     17  C   UNL     1      -5.770  -0.566   1.398  0.00  0.00    +0.055 C 
ATOM     18  C   UNL     1      -3.985   0.146   2.995  0.00  0.00    +0.055 C 
ENDBRANCH  14  15
ENDBRANCH  11  14
ENDBRANCH   9  10
ENDBRANCH   1   9
BRANCH   6  19
ATOM     19  C   UNL     1       0.036   1.662  -2.258  0.00  0.00    -0.003 C 
BRANCH  19  20
ATOM     20  C   UNL     1      -0.844   2.245  -3.334  0.00  0.00    +0.094 A 
ATOM     21  N   UNL     1      -1.061   3.585  -3.364  0.00  0.00    -0.312 N 
ATOM     22  H   UNL     1      -0.646   4.149  -2.693  0.00  0.00    +0.170 HD
ATOM     23  C   UNL     1      -1.840   4.147  -4.308  0.00  0.00    +0.260 A 
ATOM     24  O   UNL     1      -2.026   5.351  -4.323  0.00  0.00    -0.267 OA
ATOM     25  C   UNL     1      -2.446   3.302  -5.294  0.00  0.00    +0.075 A 
ATOM     26  C   UNL     1      -3.324   3.693  -6.407  0.00  0.00    -0.023 A 
ATOM     27  C   UNL     1      -3.771   2.707  -7.204  0.00  0.00    -0.004 A 
ATOM     28  S   UNL     1      -3.059   1.220  -6.537  0.00  0.00    -0.073 S 
ATOM     29  C   UNL     1      -2.164   1.934  -5.183  0.00  0.00    +0.116 A 
ATOM     30  N   UNL     1      -1.379   1.451  -4.223  0.00  0.00    -0.229 NA
ATOM     31  C   UNL     1      -4.662   3.223  -8.301  0.00  0.00    +0.043 C 
ATOM     32  C   UNL     1      -5.071   4.638  -7.835  0.00  0.00    +0.010 C 
ATOM     33  C   UNL     1      -3.891   5.020  -6.921  0.00  0.00    +0.037 C 
ENDBRANCH  19  20
ENDBRANCH   6  19
TORSDOF 6
