REMARK  Name = ZINC08835643
REMARK  14 active torsions:
REMARK  status: ('A' for Active; 'I' for Inactive)
REMARK    1  A    between atoms: C_1  and  C_2
REMARK    2  A    between atoms: C_2  and  N_66
REMARK    3  A    between atoms: C_3  and  C_4
REMARK    4  A    between atoms: C_3  and  N_66
REMARK    5  A    between atoms: C_5  and  C_6
REMARK    6  A    between atoms: C_5  and  N_66
REMARK    7  A    between atoms: C_6  and  N_7
REMARK    8  A    between atoms: C_8  and  C_26
REMARK    9  A    between atoms: C_10  and  C_15
REMARK   10  A    between atoms: C_11  and  O_14
REMARK   11  A    between atoms: C_15  and  C_17
REMARK   12  A    between atoms: C_29  and  C_32
REMARK   13  A    between atoms: C_32  and  C_33
REMARK   14  A    between atoms: C_32  and  C_34
REMARK                            x       y       z     vdW  Elec       q    Type
REMARK                         _______ _______ _______ _____ _____    ______ ____
ROOT
ATOM      1  N   UNL     1       8.727  -3.014  -0.359  0.00  0.00    -0.285 N 
ATOM      2  C   UNL     1       7.278  -3.237  -0.420  0.00  0.00    +0.144 C 
ATOM      3  C   UNL     1       7.074  -4.726  -0.262  0.00  0.00    +0.074 C 
ATOM      4  C   UNL     1       8.303  -5.275  -0.120  0.00  0.00    +0.188 C 
ATOM      5  C   UNL     1       9.322  -4.208  -0.187  0.00  0.00    +0.282 C 
ATOM      6  O   UNL     1      10.521  -4.383  -0.096  0.00  0.00    -0.267 OA
ENDROOT
BRANCH   2   7
ATOM      7  C   UNL     1       6.592  -2.499   0.701  0.00  0.00    -0.022 A 
ATOM      8  C   UNL     1       7.099  -2.566   1.985  0.00  0.00    +0.006 A 
ATOM      9  C   UNL     1       6.473  -1.885   3.012  0.00  0.00    +0.004 A 
ATOM     10  C   UNL     1       5.334  -1.145   2.756  0.00  0.00    -0.045 A 
ATOM     11  C   UNL     1       4.824  -1.081   1.473  0.00  0.00    +0.004 A 
ATOM     12  C   UNL     1       5.453  -1.758   0.445  0.00  0.00    +0.006 A 
BRANCH  10  13
ATOM     13  C   UNL     1       4.648  -0.406   3.877  0.00  0.00    +0.013 C 
ATOM     14  C   UNL     1       4.207  -1.404   4.950  0.00  0.00    +0.012 C 
ATOM     15  C   UNL     1       5.618   0.606   4.489  0.00  0.00    +0.012 C 
ENDBRANCH  10  13
ENDBRANCH   2   7
BRANCH   4  16
ATOM     16  O   UNL     1       8.557  -6.593   0.053  0.00  0.00    -0.502 OA
ATOM     17  H   UNL     1       9.544  -6.735   0.131  0.00  0.00    +0.292 HD
ENDBRANCH   4  16
BRANCH   3  18
ATOM     18  C   UNL     1       5.792  -5.438  -0.258  0.00  0.00    +0.230 C 
ATOM     19  O   UNL     1       5.414  -6.005   0.752  0.00  0.00    -0.284 OA
BRANCH  18  20
ATOM     20  C   UNL     1       4.964  -5.468  -1.471  0.00  0.00    +0.176 A 
ATOM     21  C   UNL     1       3.809  -6.174  -1.614  0.00  0.00    +0.061 A 
ATOM     22  C   UNL     1       3.337  -5.905  -2.971  0.00  0.00    +0.021 A 
ATOM     23  C   UNL     1       2.230  -6.319  -3.716  0.00  0.00    +0.011 A 
ATOM     24  C   UNL     1       2.071  -5.873  -4.998  0.00  0.00    +0.001 A 
ATOM     25  C   UNL     1       3.002  -5.011  -5.563  0.00  0.00    +0.004 A 
ATOM     26  C   UNL     1       4.101  -4.591  -4.845  0.00  0.00    +0.047 A 
ATOM     27  C   UNL     1       4.283  -5.031  -3.539  0.00  0.00    +0.136 A 
ATOM     28  O   UNL     1       5.233  -4.799  -2.611  0.00  0.00    -0.452 OA
ENDBRANCH  18  20
ENDBRANCH   3  18
BRANCH   1  29
ATOM     29  C   UNL     1       9.406  -1.720  -0.466  0.00  0.00    +0.090 C 
BRANCH  29  30
ATOM     30  C   UNL     1       9.557  -1.107   0.928  0.00  0.00    -0.060 C 
BRANCH  30  31
ATOM     31  N   UNL     1      10.261   0.187   0.806  0.00  0.00    +0.380 N 
ATOM     32  H   UNL     1      11.123   0.047   0.267  0.00  0.00    -0.082 HD
BRANCH  31  34
ATOM     33  C   UNL     1       8.114   1.409   0.881  0.00  0.00    -0.017 C 
ATOM     34  C   UNL     1       9.405   1.163   0.100  0.00  0.00    -0.082 C 
ENDBRANCH  31  34
BRANCH  31  35
ATOM     35  C   UNL     1      10.611   0.700   2.147  0.00  0.00    -0.082 C 
ATOM     36  C   UNL     1      11.575   1.878   1.988  0.00  0.00    -0.017 C 
ENDBRANCH  31  35
ENDBRANCH  30  31
ENDBRANCH  29  30
ENDBRANCH   1  29
TORSDOF 10
