REMARK  Name = ZINC09013823
REMARK  12 active torsions:
REMARK  status: ('A' for Active; 'I' for Inactive)
REMARK    1  A    between atoms: C_1  and  N_2
REMARK    2  A    between atoms: C_12  and  C_23
REMARK    3  A    between atoms: N_16  and  C_17
REMARK    4  A    between atoms: C_17  and  C_18
REMARK    5  A    between atoms: C_18  and  C_19
REMARK    6  A    between atoms: C_19  and  O_20
REMARK    7  A    between atoms: O_20  and  C_21
REMARK    8  A    between atoms: C_23  and  C_25
REMARK    9  A    between atoms: C_29  and  S_31
REMARK   10  A    between atoms: S_31  and  N_34
REMARK   11  A    between atoms: N_34  and  C_35
REMARK   12  A    between atoms: N_34  and  C_36
REMARK                            x       y       z     vdW  Elec       q    Type
REMARK                         _______ _______ _______ _____ _____    ______ ____
ROOT
ATOM      1  C   UNL     1       2.698   6.862  -0.040  0.00  0.00    +0.138 C 
ATOM      2  N   UNL     1       2.329   7.475   1.239  0.00  0.00    -0.272 N 
ATOM      3  C   UNL     1       3.041   7.288   2.425  0.00  0.00    +0.042 A 
ATOM      4  C   UNL     1       4.186   6.541   2.693  0.00  0.00    +0.024 A 
ATOM      5  C   UNL     1       4.712   6.510   3.967  0.00  0.00    +0.002 A 
ATOM      6  C   UNL     1       4.109   7.220   4.989  0.00  0.00    +0.000 A 
ATOM      7  C   UNL     1       2.971   7.965   4.732  0.00  0.00    +0.008 A 
ATOM      8  C   UNL     1       2.443   7.999   3.461  0.00  0.00    +0.011 A 
ATOM      9  C   UNL     1       1.250   8.690   2.857  0.00  0.00    +0.174 C 
ATOM     10  C   UNL     1       1.265   8.282   1.405  0.00  0.00    +0.253 C 
ATOM     11  O   UNL     1       0.471   8.617   0.552  0.00  0.00    -0.272 OA
ATOM     12  C   UNL     1      -0.027   8.264   3.528  0.00  0.00    +0.089 C 
ATOM     13  C   UNL     1      -0.605   9.394   4.005  0.00  0.00    +0.250 C 
ATOM     14  C   UNL     1       0.254  10.553   3.678  0.00  0.00    +0.288 C 
ATOM     15  O   UNL     1       0.010  11.707   3.972  0.00  0.00    -0.266 OA
ATOM     16  N   UNL     1       1.343  10.141   3.001  0.00  0.00    -0.273 N 
ATOM     17  O   UNL     1      -1.779   9.452   4.674  0.00  0.00    -0.282 OA
ENDROOT
BRANCH  12  18
ATOM     18  C   UNL     1      -0.546   6.898   3.639  0.00  0.00    +0.196 C 
ATOM     19  O   UNL     1      -0.063   6.127   4.447  0.00  0.00    -0.287 OA
BRANCH  18  20
ATOM     20  C   UNL     1      -1.659   6.457   2.770  0.00  0.00    +0.024 A 
ATOM     21  C   UNL     1      -2.295   7.371   1.928  0.00  0.00    +0.012 A 
ATOM     22  C   UNL     1      -3.332   6.953   1.120  0.00  0.00    +0.003 A 
ATOM     23  C   UNL     1      -3.739   5.630   1.140  0.00  0.00    +0.028 A 
ATOM     24  C   UNL     1      -3.116   4.720   1.976  0.00  0.00    +0.106 A 
ATOM     25  C   UNL     1      -2.077   5.125   2.789  0.00  0.00    +0.040 A 
BRANCH  24  26
ATOM     26  S   UNL     1      -3.645   3.040   1.997  0.00  0.00    +0.060 S 
ATOM     27  O   UNL     1      -2.541   2.272   2.457  0.00  0.00    -0.153 OA
ATOM     28  O   UNL     1      -4.274   2.796   0.746  0.00  0.00    -0.153 OA
BRANCH  26  29
ATOM     29  N   UNL     1      -4.824   2.913   3.153  0.00  0.00    -0.183 NA
ATOM     30  C   UNL     1      -6.229   3.124   2.792  0.00  0.00    +0.131 C 
ATOM     31  C   UNL     1      -4.463   2.589   4.535  0.00  0.00    +0.131 C 
ENDBRANCH  26  29
ENDBRANCH  24  26
ENDBRANCH  18  20
ENDBRANCH  12  18
BRANCH  16  32
ATOM     32  C   UNL     1       2.425  10.993   2.500  0.00  0.00    +0.112 C 
BRANCH  32  33
ATOM     33  C   UNL     1       2.091  11.458   1.081  0.00  0.00    +0.047 C 
BRANCH  33  34
ATOM     34  C   UNL     1       3.221  12.348   0.557  0.00  0.00    +0.161 C 
BRANCH  34  35
ATOM     35  O   UNL     1       2.909  12.783  -0.768  0.00  0.00    -0.383 OA
ATOM     36  C   UNL     1       3.905  13.625  -1.352  0.00  0.00    +0.193 C 
ENDBRANCH  34  35
ENDBRANCH  33  34
ENDBRANCH  32  33
ENDBRANCH  16  32
TORSDOF 8
