REMARK  Name = ZINC02302167
REMARK  7 active torsions:
REMARK  status: ('A' for Active; 'I' for Inactive)
REMARK    1  A    between atoms: C_1  and  C_2
REMARK    2  A    between atoms: C_2  and  O_3
REMARK    3  A    between atoms: O_3  and  C_4
REMARK    4  A    between atoms: C_4  and  C_6
REMARK    5  A    between atoms: C_6  and  N_52
REMARK    6  A    between atoms: C_7  and  C_26
REMARK    7  A    between atoms: C_16  and  C_18
REMARK                            x       y       z     vdW  Elec       q    Type
REMARK                         _______ _______ _______ _____ _____    ______ ____
ROOT
ATOM      1  C   UNL     1      -2.709   4.708  -0.043  0.00  0.00    -0.001 C 
ATOM      2  C   UNL     1      -1.425   3.924   0.028  0.00  0.00    -0.035 A 
ATOM      3  C   UNL     1      -1.466   2.542  -0.016  0.00  0.00    +0.019 A 
ATOM      4  C   UNL     1      -0.296   1.810   0.058  0.00  0.00    +0.018 A 
ATOM      5  C   UNL     1       0.924   2.455   0.164  0.00  0.00    +0.017 A 
ATOM      6  C   UNL     1       0.973   3.834   0.202  0.00  0.00    +0.024 A 
ATOM      7  C   UNL     1      -0.202   4.571   0.134  0.00  0.00    +0.028 A 
ATOM      8  N   UNL     1      -0.152   5.970   0.169  0.00  0.00    -0.353 N 
ATOM      9  C   UNL     1      -1.409   6.704   0.383  0.00  0.00    +0.050 C 
ATOM     10 BR   UNL     1      -0.361  -0.079   0.004  0.00  0.00    -0.050 Br
ATOM     11  H   UNL     1       0.688   6.442   0.055  0.00  0.00    +0.145 HD
ATOM     12  N   UNL     1      -2.434   6.088  -0.491  0.00  0.00    +0.409 N 
ATOM     13  H   UNL     1      -2.080   6.062  -1.454  0.00  0.00    -0.076 HD
ENDROOT
BRANCH   9  14
ATOM     14  C   UNL     1      -1.814   6.609   1.831  0.00  0.00    -0.026 A 
ATOM     15  C   UNL     1      -1.423   5.521   2.589  0.00  0.00    +0.005 A 
ATOM     16  C   UNL     1      -1.791   5.436   3.918  0.00  0.00    +0.000 A 
ATOM     17  C   UNL     1      -2.558   6.436   4.489  0.00  0.00    +0.001 A 
ATOM     18  C   UNL     1      -2.953   7.522   3.731  0.00  0.00    +0.020 A 
ATOM     19  C   UNL     1      -2.581   7.609   2.401  0.00  0.00    +0.044 A 
ATOM     20 CL   UNL     1      -3.078   8.973   1.449  0.00  0.00    -0.083 Cl
ENDBRANCH   9  14
BRANCH   1  21
ATOM     21  C   UNL     1      -3.634   4.053  -1.036  0.00  0.00    -0.057 A 
ATOM     22  C   UNL     1      -3.476   4.290  -2.389  0.00  0.00    +0.002 A 
ATOM     23  C   UNL     1      -4.322   3.685  -3.300  0.00  0.00    +0.000 A 
ATOM     24  C   UNL     1      -5.331   2.851  -2.857  0.00  0.00    +0.000 A 
ATOM     25  C   UNL     1      -5.493   2.618  -1.504  0.00  0.00    +0.000 A 
ATOM     26  C   UNL     1      -4.644   3.219  -0.594  0.00  0.00    +0.002 A 
ENDBRANCH   1  21
BRANCH  12  27
ATOM     27  C   UNL     1      -3.676   6.888  -0.456  0.00  0.00    +0.048 C 
BRANCH  27  28
ATOM     28  C   UNL     1      -3.426   8.203  -1.149  0.00  0.00    +0.290 C 
ATOM     29  O   UNL     1      -2.364   8.411  -1.686  0.00  0.00    -0.253 OA
BRANCH  28  30
ATOM     30  O   UNL     1      -4.384   9.143  -1.169  0.00  0.00    -0.466 OA
BRANCH  30  32
ATOM     31  C   UNL     1      -5.277  11.326  -1.772  0.00  0.00    +0.048 C 
ATOM     32  C   UNL     1      -4.074  10.385  -1.854  0.00  0.00    +0.228 C 
ENDBRANCH  30  32
ENDBRANCH  28  30
ENDBRANCH  27  28
ENDBRANCH  12  27
TORSDOF 6
