REMARK  Name = ZINC36495328
REMARK  16 active torsions:
REMARK  status: ('A' for Active; 'I' for Inactive)
REMARK    1  A    between atoms: C_1  and  C_2
REMARK    2  A    between atoms: C_2  and  C_3
REMARK    3  A    between atoms: C_3  and  C_4
REMARK    4  A    between atoms: C_4  and  C_5
REMARK    5  A    between atoms: C_5  and  C_6
REMARK    6  A    between atoms: C_6  and  C_8
REMARK    7  A    between atoms: C_6  and  N_22
REMARK    8  A    between atoms: N_10  and  C_11
REMARK    9  A    between atoms: C_11  and  S_12
REMARK   10  A    between atoms: S_12  and  C_15
REMARK   11  A    between atoms: C_18  and  C_21
REMARK   12  A    between atoms: N_22  and  C_23
REMARK   13  A    between atoms: C_23  and  C_24
REMARK   14  A    between atoms: C_29  and  C_31
REMARK   15  A    between atoms: C_31  and  C_32
REMARK   16  A    between atoms: C_37  and  C_38
REMARK                            x       y       z     vdW  Elec       q    Type
REMARK                         _______ _______ _______ _____ _____    ______ ____
ROOT
ATOM      1  C   UNL     1      -2.558  -4.067  -0.205  0.00  0.00    +0.162 C 
ENDROOT
BRANCH   1   2
ATOM      2  C   UNL     1      -3.802  -4.618  -0.853  0.00  0.00    +0.235 C 
ATOM      3  O   UNL     1      -4.387  -5.552  -0.347  0.00  0.00    -0.274 OA
ATOM      4  N   UNL     1      -4.265  -4.072  -1.996  0.00  0.00    -0.295 N 
ATOM      5  H   UNL     1      -3.797  -3.325  -2.401  0.00  0.00    +0.150 HD
BRANCH   4   6
ATOM      6  C   UNL     1      -5.474  -4.608  -2.626  0.00  0.00    +0.278 C 
BRANCH   6   7
ATOM      7  S   UNL     1      -6.913  -3.642  -2.091  0.00  0.00    +0.013 S 
ATOM      8  O   UNL     1      -8.086  -4.109  -2.742  0.00  0.00    -0.168 OA
ATOM      9  O   UNL     1      -6.888  -3.467  -0.681  0.00  0.00    -0.168 OA
BRANCH   7  10
ATOM     10  C   UNL     1      -6.645  -2.029  -2.748  0.00  0.00    +0.090 A 
ATOM     11  C   UNL     1      -5.955  -1.087  -2.009  0.00  0.00    +0.027 A 
ATOM     12  C   UNL     1      -5.745   0.178  -2.525  0.00  0.00    +0.005 A 
ATOM     13  C   UNL     1      -6.225   0.501  -3.780  0.00  0.00    -0.050 A 
ATOM     14  C   UNL     1      -6.915  -0.441  -4.520  0.00  0.00    +0.005 A 
ATOM     15  C   UNL     1      -7.121  -1.708  -4.006  0.00  0.00    +0.027 A 
ATOM     16  C   UNL     1      -5.997   1.881  -4.342  0.00  0.00    +0.044 C 
ENDBRANCH   7  10
ENDBRANCH   6   7
ENDBRANCH   4   6
ENDBRANCH   1   2
BRANCH   1  17
ATOM     17  N   UNL     1      -2.081  -5.006   0.813  0.00  0.00    -0.282 N 
ATOM     18  C   UNL     1      -2.837  -5.265   1.898  0.00  0.00    +0.221 C 
ATOM     19  O   UNL     1      -3.912  -4.720   2.032  0.00  0.00    -0.275 OA
BRANCH  17  20
ATOM     20  C   UNL     1      -0.782  -5.664   0.651  0.00  0.00    +0.182 C 
BRANCH  20  21
ATOM     21  C   UNL     1       0.308  -4.758   1.163  0.00  0.00    +0.122 A 
ATOM     22  C   UNL     1       0.806  -4.756   2.413  0.00  0.00    +0.046 A 
ATOM     23  C   UNL     1       1.803  -3.754   2.455  0.00  0.00    +0.041 A 
ATOM     24  C   UNL     1       1.853  -3.203   1.229  0.00  0.00    +0.195 A 
ATOM     25  O   UNL     1       0.950  -3.819   0.449  0.00  0.00    -0.466 OA
ENDBRANCH  20  21
ENDBRANCH  17  20
BRANCH  18  26
ATOM     26  C   UNL     1      -2.346  -6.231   2.945  0.00  0.00    +0.131 C 
BRANCH  26  27
ATOM     27  C   UNL     1      -3.369  -6.342   4.045  0.00  0.00    -0.036 A 
ATOM     28  C   UNL     1      -3.253  -5.559   5.179  0.00  0.00    +0.004 A 
ATOM     29  C   UNL     1      -4.192  -5.661   6.188  0.00  0.00    +0.000 A 
ATOM     30  C   UNL     1      -5.248  -6.546   6.064  0.00  0.00    +0.000 A 
ATOM     31  C   UNL     1      -5.364  -7.328   4.930  0.00  0.00    +0.003 A 
ATOM     32  C   UNL     1      -4.427  -7.223   3.919  0.00  0.00    -0.047 A 
ATOM     33  C   UNL     1      -4.557  -8.072   2.680  0.00  0.00    +0.044 C 
ENDBRANCH  26  27
ENDBRANCH  18  26
ENDBRANCH   1  17
BRANCH   1  34
ATOM     34  C   UNL     1      -2.877  -2.722   0.451  0.00  0.00    +0.032 C 
BRANCH  34  35
ATOM     35  C   UNL     1      -1.590  -2.104   1.000  0.00  0.00    +0.002 C 
BRANCH  35  36
ATOM     36  C   UNL     1      -1.909  -0.760   1.657  0.00  0.00    -0.000 C 
BRANCH  36  38
ATOM     37  C   UNL     1      -0.942   1.203   2.863  0.00  0.00    +0.004 C 
ATOM     38  C   UNL     1      -0.622  -0.142   2.206  0.00  0.00    -0.003 C 
ENDBRANCH  36  38
ENDBRANCH  35  36
ENDBRANCH  34  35
ENDBRANCH   1  34
TORSDOF 13
