REMARK  Name = ZINC12439520
REMARK  5 active torsions:
REMARK  status: ('A' for Active; 'I' for Inactive)
REMARK    1  A    between atoms: C_1  and  C_2
REMARK    2  A    between atoms: C_8  and  C_28
REMARK    3  A    between atoms: C_9  and  C_11
REMARK    4  A    between atoms: C_16  and  C_19
REMARK    5  A    between atoms: C_16  and  N_22
REMARK                            x       y       z     vdW  Elec       q    Type
REMARK                         _______ _______ _______ _____ _____    ______ ____
ROOT
ATOM      1  C   UNL     1       0.165  -5.047   0.900  0.00  0.00    +0.282 C 
ATOM      2  O   UNL     1       0.262  -4.718   2.067  0.00  0.00    -0.267 OA
ATOM      3  N   UNL     1       0.057  -6.350   0.573  0.00  0.00    -0.295 N 
ATOM      4  C   UNL     1       0.109  -6.777  -0.832  0.00  0.00    +0.107 C 
ATOM      5  C   UNL     1       1.188  -7.854  -0.980  0.00  0.00    +0.016 C 
ATOM      6  C   UNL     1       0.911  -8.987   0.011  0.00  0.00    +0.015 C 
ATOM      7  C   UNL     1       0.966  -8.442   1.440  0.00  0.00    +0.016 C 
ATOM      8  C   UNL     1      -0.109  -7.372   1.616  0.00  0.00    +0.107 C 
ENDROOT
BRANCH   1  17
ATOM      9  C   UNL     1       0.429   0.913  -3.580  0.00  0.00    +0.044 C 
ATOM     10  C   UNL     1       0.277  -0.498  -3.074  0.00  0.00    -0.050 A 
ATOM     11  C   UNL     1      -0.035  -1.519  -3.961  0.00  0.00    +0.007 A 
ATOM     12  C   UNL     1      -0.178  -2.816  -3.520  0.00  0.00    +0.047 A 
ATOM     13  C   UNL     1      -0.010  -3.112  -2.172  0.00  0.00    +0.136 A 
ATOM     14  C   UNL     1       0.306  -2.073  -1.277  0.00  0.00    +0.024 A 
ATOM     15  C   UNL     1       0.452  -0.765  -1.745  0.00  0.00    +0.015 A 
ATOM     16  C   UNL     1       0.413  -2.702   0.039  0.00  0.00    +0.008 A 
ATOM     17  C   UNL     1       0.164  -4.023  -0.155  0.00  0.00    +0.194 A 
ATOM     18  O   UNL     1      -0.084  -4.253  -1.461  0.00  0.00    -0.450 OA
ATOM     19  C   UNL     1       0.736  -2.023   1.345  0.00  0.00    +0.048 C 
ENDBRANCH   1  17
BRANCH   6  20
ATOM     20  N   UNL     1       1.925 -10.038  -0.152  0.00  0.00    +0.389 N 
ATOM     21  C   UNL     1       1.867 -10.563  -1.521  0.00  0.00    -0.077 C 
ATOM     22  C   UNL     1       2.974 -11.601  -1.720  0.00  0.00    -0.019 C 
ATOM     23  C   UNL     1       2.778 -12.747  -0.724  0.00  0.00    -0.004 C 
ATOM     24  C   UNL     1       2.765 -12.177   0.698  0.00  0.00    -0.019 C 
ATOM     25  C   UNL     1       1.666 -11.118   0.807  0.00  0.00    -0.077 C 
ATOM     26  H   UNL     1       2.840  -9.650   0.019  0.00  0.00    -0.080 HD
ENDBRANCH   6  20
BRANCH   6  27
ATOM     27  C   UNL     1      -0.456  -9.564  -0.254  0.00  0.00    +0.200 C 
ATOM     28  O   UNL     1      -1.030  -9.312  -1.293  0.00  0.00    -0.278 OA
ATOM     29  N   UNL     1      -1.041 -10.359   0.663  0.00  0.00    -0.330 N 
ATOM     30  H   UNL     1      -0.616 -10.502   1.523  0.00  0.00    +0.145 HD
ATOM     31  H   UNL     1      -1.887 -10.790   0.462  0.00  0.00    +0.145 HD
ENDBRANCH   6  27
TORSDOF 3
