REMARK  Name = ZINC40013774
REMARK  14 active torsions:
REMARK  status: ('A' for Active; 'I' for Inactive)
REMARK    1  A    between atoms: C_1  and  C_2
REMARK    2  A    between atoms: C_2  and  C_3
REMARK    3  A    between atoms: C_3  and  C_4
REMARK    4  A    between atoms: C_4  and  N_5
REMARK    5  A    between atoms: N_5  and  C_6
REMARK    6  A    between atoms: N_5  and  C_10
REMARK    7  A    between atoms: C_6  and  C_7
REMARK    8  A    between atoms: C_7  and  C_8
REMARK    9  A    between atoms: C_8  and  C_9
REMARK   10  A    between atoms: C_10  and  C_11
REMARK   11  A    between atoms: C_11  and  C_12
REMARK   12  A    between atoms: C_12  and  N_13
REMARK   13  A    between atoms: C_14  and  C_30
REMARK   14  A    between atoms: C_33  and  N_36
REMARK                            x       y       z     vdW  Elec       q    Type
REMARK                         _______ _______ _______ _____ _____    ______ ____
ROOT
ATOM      1  N   UNL     1      -5.973  -6.444   0.249  0.00  0.00    -0.284 N 
ATOM      2  C   UNL     1      -6.935  -6.507   1.362  0.00  0.00    +0.144 C 
ATOM      3  C   UNL     1      -8.212  -7.003   0.768  0.00  0.00    +0.072 A 
ATOM      4  C   UNL     1      -9.518  -7.278   1.376  0.00  0.00    +0.199 A 
ATOM      5  O   UNL     1      -9.803  -6.959   2.517  0.00  0.00    -0.287 OA
ATOM      6  C   UNL     1     -10.459  -7.983   0.470  0.00  0.00    +0.067 A 
ATOM      7  C   UNL     1     -11.663  -8.490   0.959  0.00  0.00    +0.053 A 
ATOM      8  C   UNL     1     -12.523  -9.147   0.104  0.00  0.00    +0.124 A 
ATOM      9  C   UNL     1     -12.189  -9.300  -1.237  0.00  0.00    +0.042 A 
ATOM     10  C   UNL     1     -11.004  -8.801  -1.729  0.00  0.00    +0.050 A 
ATOM     11  C   UNL     1     -10.119  -8.131  -0.885  0.00  0.00    +0.140 A 
ATOM     12  O   UNL     1      -8.967  -7.642  -1.398  0.00  0.00    -0.450 OA
ATOM     13  C   UNL     1      -8.002  -7.200  -0.568  0.00  0.00    +0.199 A 
ATOM     14  C   UNL     1      -6.605  -6.844  -0.873  0.00  0.00    +0.283 C 
ATOM     15  O   UNL     1      -6.096  -6.906  -1.974  0.00  0.00    -0.267 OA
ATOM     16  F   UNL     1     -13.691  -9.641   0.569  0.00  0.00    -0.205 F 
ENDROOT
BRANCH   2  17
ATOM     17  C   UNL     1      -7.133  -5.136   1.956  0.00  0.00    -0.022 A 
ATOM     18  C   UNL     1      -7.213  -4.030   1.131  0.00  0.00    +0.008 A 
ATOM     19  C   UNL     1      -7.396  -2.773   1.676  0.00  0.00    +0.033 A 
ATOM     20  C   UNL     1      -7.498  -2.622   3.046  0.00  0.00    +0.126 A 
ATOM     21  C   UNL     1      -7.419  -3.728   3.871  0.00  0.00    +0.033 A 
ATOM     22  C   UNL     1      -7.241  -4.986   3.326  0.00  0.00    +0.008 A 
BRANCH  20  23
ATOM     23  N   UNL     1      -7.692  -1.276   3.630  0.00  0.00    +0.056 N 
ATOM     24  O   UNL     1      -7.761  -0.308   2.909  0.00  0.00    -0.126 OA
ATOM     25  O   UNL     1      -7.782  -1.144   4.829  0.00  0.00    -0.126 OA
ENDBRANCH  20  23
ENDBRANCH   2  17
BRANCH   1  26
ATOM     26  C   UNL     1      -4.575  -6.014   0.343  0.00  0.00    +0.107 C 
BRANCH  26  27
ATOM     27  C   UNL     1      -4.489  -4.504   0.114  0.00  0.00    +0.000 C 
BRANCH  27  28
ATOM     28  C   UNL     1      -3.030  -4.055   0.212  0.00  0.00    -0.077 C 
BRANCH  28  29
ATOM     29  N   UNL     1      -2.931  -2.631  -0.134  0.00  0.00    +0.380 N 
ATOM     30  H   UNL     1      -3.342  -2.477  -1.042  0.00  0.00    -0.082 HD
BRANCH  29  31
ATOM     31  C   UNL     1      -3.647  -1.832   0.870  0.00  0.00    -0.079 C 
BRANCH  31  32
ATOM     32  C   UNL     1      -3.650  -0.362   0.444  0.00  0.00    -0.019 C 
BRANCH  32  34
ATOM     33  C   UNL     1      -4.399   1.939   1.063  0.00  0.00    +0.004 C 
ATOM     34  C   UNL     1      -4.395   0.470   1.489  0.00  0.00    -0.005 C 
ENDBRANCH  32  34
ENDBRANCH  31  32
ENDBRANCH  29  31
BRANCH  29  35
ATOM     35  C   UNL     1      -1.518  -2.231  -0.162  0.00  0.00    -0.079 C 
BRANCH  35  36
ATOM     36  C   UNL     1      -0.808  -2.947  -1.312  0.00  0.00    -0.019 C 
BRANCH  36  37
ATOM     37  C   UNL     1       0.681  -2.593  -1.292  0.00  0.00    -0.005 C 
ATOM     38  C   UNL     1       1.391  -3.310  -2.443  0.00  0.00    +0.004 C 
ENDBRANCH  36  37
ENDBRANCH  35  36
ENDBRANCH  29  35
ENDBRANCH  28  29
ENDBRANCH  27  28
ENDBRANCH  26  27
ENDBRANCH   1  26
TORSDOF 12
