REMARK  Name = ZINC36157154
REMARK  10 active torsions:
REMARK  status: ('A' for Active; 'I' for Inactive)
REMARK    1  A    between atoms: C_4  and  C_7
REMARK    2  A    between atoms: C_7  and  N_8
REMARK    3  A    between atoms: N_8  and  C_9
REMARK    4  A    between atoms: N_8  and  C_15
REMARK    5  A    between atoms: C_9  and  C_10
REMARK    6  A    between atoms: C_15  and  C_16
REMARK    7  A    between atoms: C_19  and  C_21
REMARK    8  A    between atoms: C_21  and  C_22
REMARK    9  A    between atoms: C_21  and  C_29
REMARK   10  A    between atoms: C_21  and  O_36
REMARK                            x       y       z     vdW  Elec       q    Type
REMARK                         _______ _______ _______ _____ _____    ______ ____
ROOT
ATOM      1  C   UNL     1       5.537  -2.957   2.936  0.00  0.00    +0.089 A 
ATOM      2  C   UNL     1       5.406  -3.873   3.912  0.00  0.00    +0.043 A 
ATOM      3  C   UNL     1       5.968  -3.311   5.080  0.00  0.00    +0.048 A 
ATOM      4  C   UNL     1       6.410  -2.084   4.749  0.00  0.00    +0.146 A 
ATOM      5  O   UNL     1       6.151  -1.878   3.447  0.00  0.00    -0.463 OA
ENDROOT
BRANCH   1   6
ATOM      6  C   UNL     1       5.079  -3.117   1.509  0.00  0.00    -0.002 C 
BRANCH   6   7
ATOM      7  N   UNL     1       3.659  -2.753   1.407  0.00  0.00    +0.392 N 
ATOM      8  H   UNL     1       3.124  -3.297   2.067  0.00  0.00    -0.080 HD
BRANCH   7   9
ATOM      9  C   UNL     1       3.498  -1.324   1.705  0.00  0.00    -0.042 C 
BRANCH   9  13
ATOM     10  C   UNL     1      -0.658  -0.338   1.752  0.00  0.00    +0.000 A 
ATOM     11  C   UNL     1      -0.032  -0.747   2.914  0.00  0.00    +0.000 A 
ATOM     12  C   UNL     1       1.312  -1.067   2.899  0.00  0.00    +0.002 A 
ATOM     13  C   UNL     1       2.031  -0.977   1.722  0.00  0.00    -0.064 A 
ATOM     14  C   UNL     1       1.405  -0.568   0.559  0.00  0.00    +0.002 A 
ATOM     15  C   UNL     1       0.060  -0.247   0.574  0.00  0.00    +0.000 A 
ENDBRANCH   9  13
ENDBRANCH   7   9
BRANCH   7  16
ATOM     16  C   UNL     1       3.180  -3.026   0.046  0.00  0.00    -0.002 C 
BRANCH  16  17
ATOM     17  C   UNL     1       3.209  -4.511  -0.208  0.00  0.00    +0.089 A 
ATOM     18  C   UNL     1       2.198  -5.368   0.019  0.00  0.00    +0.042 A 
ATOM     19  C   UNL     1       2.656  -6.652  -0.358  0.00  0.00    +0.041 A 
ATOM     20  C   UNL     1       3.919  -6.502  -0.794  0.00  0.00    +0.195 A 
ATOM     21  O   UNL     1       4.247  -5.203  -0.706  0.00  0.00    -0.470 OA
ENDBRANCH  16  17
ENDBRANCH   7  16
ENDBRANCH   6   7
ENDBRANCH   1   6
BRANCH   4  22
ATOM     22  C   UNL     1       7.085  -1.109   5.678  0.00  0.00    +0.174 C 
BRANCH  22  23
ATOM     23  C   UNL     1       8.043  -0.249   4.895  0.00  0.00    -0.002 A 
ATOM     24  C   UNL     1       9.403  -0.340   5.129  0.00  0.00    +0.007 A 
ATOM     25  C   UNL     1      10.283   0.448   4.411  0.00  0.00    +0.003 A 
ATOM     26  C   UNL     1       9.804   1.329   3.459  0.00  0.00    +0.038 A 
ATOM     27  C   UNL     1       8.443   1.420   3.224  0.00  0.00    +0.124 A 
ATOM     28  C   UNL     1       7.563   0.626   3.940  0.00  0.00    +0.045 A 
ATOM     29  F   UNL     1       7.974   2.281   2.295  0.00  0.00    -0.205 F 
ENDBRANCH  22  23
BRANCH  22  30
ATOM     30  C   UNL     1       6.046  -0.236   6.332  0.00  0.00    -0.002 A 
ATOM     31  C   UNL     1       4.982   0.244   5.592  0.00  0.00    +0.007 A 
ATOM     32  C   UNL     1       4.027   1.045   6.190  0.00  0.00    +0.003 A 
ATOM     33  C   UNL     1       4.136   1.367   7.530  0.00  0.00    +0.038 A 
ATOM     34  C   UNL     1       5.201   0.887   8.273  0.00  0.00    +0.124 A 
ATOM     35  C   UNL     1       6.153   0.079   7.673  0.00  0.00    +0.045 A 
ATOM     36  F   UNL     1       5.309   1.201   9.582  0.00  0.00    -0.205 F 
ENDBRANCH  22  30
BRANCH  22  37
ATOM     37  O   UNL     1       7.804  -1.829   6.683  0.00  0.00    -0.372 OA
ATOM     38  H   UNL     1       8.491  -2.413   6.333  0.00  0.00    +0.212 HD
ENDBRANCH  22  37
ENDBRANCH   4  22
TORSDOF 10
