REMARK  Name = ZINC38670577
REMARK  8 active torsions:
REMARK  status: ('A' for Active; 'I' for Inactive)
REMARK    1  A    between atoms: C_1  and  N_2
REMARK    2  A    between atoms: C_10  and  C_12
REMARK    3  A    between atoms: C_12  and  C_14
REMARK    4  A    between atoms: C_12  and  N_32
REMARK    5  A    between atoms: C_14  and  N_15
REMARK    6  A    between atoms: C_16  and  C_18
REMARK    7  A    between atoms: C_21  and  S_24
REMARK    8  A    between atoms: S_24  and  N_27
REMARK                            x       y       z     vdW  Elec       q    Type
REMARK                         _______ _______ _______ _____ _____    ______ ____
ROOT
ATOM      1  C   UNL     1       5.156  -2.845  -1.995  0.00  0.00    +0.094 C 
ENDROOT
BRANCH   1   2
ATOM      2  N   UNL     1       4.115  -3.685  -2.593  0.00  0.00    -0.313 N 
ATOM      3  C   UNL     1       4.051  -3.827  -3.932  0.00  0.00    +0.244 C 
ATOM      4  O   UNL     1       4.855  -3.257  -4.643  0.00  0.00    -0.270 OA
ATOM      5  H   UNL     1       3.473  -4.139  -2.026  0.00  0.00    +0.149 HD
BRANCH   3   6
ATOM      6  C   UNL     1       3.001  -4.675  -4.536  0.00  0.00    +0.037 A 
ATOM      7  C   UNL     1       2.071  -5.325  -3.722  0.00  0.00    +0.015 A 
ATOM      8  C   UNL     1       1.094  -6.115  -4.292  0.00  0.00    +0.029 A 
ATOM      9  C   UNL     1       1.034  -6.263  -5.666  0.00  0.00    +0.106 A 
ATOM     10  C   UNL     1       1.952  -5.621  -6.478  0.00  0.00    +0.029 A 
ATOM     11  C   UNL     1       2.930  -4.824  -5.922  0.00  0.00    +0.015 A 
BRANCH   9  12
ATOM     12  S   UNL     1      -0.218  -7.273  -6.385  0.00  0.00    +0.061 S 
ATOM     13  O   UNL     1       0.273  -7.686  -7.653  0.00  0.00    -0.153 OA
ATOM     14  O   UNL     1      -0.617  -8.200  -5.384  0.00  0.00    -0.153 OA
BRANCH  12  15
ATOM     15  N   UNL     1      -1.525  -6.300  -6.678  0.00  0.00    -0.177 NA
ATOM     16  C   UNL     1      -2.625  -6.037  -5.739  0.00  0.00    +0.109 C 
ATOM     17  C   UNL     1      -3.622  -5.099  -6.451  0.00  0.00    +0.018 C 
ATOM     18  C   UNL     1      -3.312  -5.339  -7.952  0.00  0.00    +0.018 C 
ATOM     19  C   UNL     1      -1.776  -5.548  -7.921  0.00  0.00    +0.109 C 
ENDBRANCH  12  15
ENDBRANCH   9  12
ENDBRANCH   3   6
ENDBRANCH   1   2
BRANCH   1  20
ATOM     20  C   UNL     1       4.927  -2.746  -0.486  0.00  0.00    -0.020 C 
BRANCH  20  30
ATOM     21  C   UNL     1       0.100   1.470   0.744  0.00  0.00    +0.129 C 
ATOM     22  N   UNL     1       0.079   0.023   0.518  0.00  0.00    -0.333 N 
ATOM     23  C   UNL     1      -1.189  -0.718   0.543  0.00  0.00    +0.105 C 
ATOM     24  C   UNL     1      -0.970  -1.996   1.364  0.00  0.00    +0.024 C 
ATOM     25  C   UNL     1       0.068  -2.866   0.654  0.00  0.00    +0.038 C 
ATOM     26  C   UNL     1       1.301  -2.062   0.335  0.00  0.00    -0.026 A 
ATOM     27  C   UNL     1       1.266  -0.676   0.271  0.00  0.00    +0.033 A 
ATOM     28  C   UNL     1       2.420   0.037  -0.037  0.00  0.00    +0.023 A 
ATOM     29  C   UNL     1       3.602  -0.633  -0.282  0.00  0.00    +0.004 A 
ATOM     30  C   UNL     1       3.636  -2.014  -0.220  0.00  0.00    -0.059 A 
ATOM     31  C   UNL     1       2.491  -2.727   0.096  0.00  0.00    +0.007 A 
ENDBRANCH  20  30
BRANCH  20  32
ATOM     32  N   UNL     1       6.041  -2.014   0.132  0.00  0.00    +0.385 N 
ATOM     33  C   UNL     1       5.839  -1.918   1.600  0.00  0.00    -0.078 C 
ATOM     34  C   UNL     1       7.269  -1.665   2.139  0.00  0.00    -0.020 C 
ATOM     35  C   UNL     1       8.146  -2.545   1.218  0.00  0.00    -0.020 C 
ATOM     36  C   UNL     1       7.305  -2.759  -0.053  0.00  0.00    -0.078 C 
ATOM     37  H   UNL     1       6.118  -1.092  -0.271  0.00  0.00    -0.081 HD
ENDBRANCH  20  32
ENDBRANCH   1  20
TORSDOF 7
