REMARK  Name = ZINC40978957
REMARK  11 active torsions:
REMARK  status: ('A' for Active; 'I' for Inactive)
REMARK    1  A    between atoms: C_1  and  C_2
REMARK    2  A    between atoms: C_2  and  C_3
REMARK    3  A    between atoms: C_3  and  C_4
REMARK    4  A    between atoms: C_4  and  O_5
REMARK    5  A    between atoms: O_5  and  C_6
REMARK    6  A    between atoms: C_11  and  C_12
REMARK    7  A    between atoms: C_14  and  C_23
REMARK    8  A    between atoms: C_15  and  C_22
REMARK    9  A    between atoms: C_23  and  O_25
REMARK   10  A    between atoms: O_25  and  C_26
REMARK   11  A    between atoms: C_26  and  C_27
REMARK                            x       y       z     vdW  Elec       q    Type
REMARK                         _______ _______ _______ _____ _____    ______ ____
ROOT
ATOM      1  C   UNL     1       2.824  -3.362  -4.739  0.00  0.00    +0.184 C 
ATOM      2  C   UNL     1       2.141  -3.483  -6.076  0.00  0.00    +0.082 C 
ATOM      3  C   UNL     1       2.677  -4.141  -7.116  0.00  0.00    +0.020 C 
ATOM      4  N   UNL     1       3.906  -4.750  -7.043  0.00  0.00    -0.286 N 
ATOM      5  C   UNL     1       4.701  -4.452  -5.947  0.00  0.00    +0.240 A 
ATOM      6  N   UNL     1       4.210  -3.798  -4.862  0.00  0.00    -0.201 N 
ATOM      7  N   UNL     1       5.283  -3.672  -3.982  0.00  0.00    -0.042 NA
ATOM      8  N   UNL     1       6.298  -4.232  -4.558  0.00  0.00    -0.021 NA
ATOM      9  N   UNL     1       5.960  -4.694  -5.714  0.00  0.00    -0.092 NA
ATOM     10  C   UNL     1       1.904  -4.214  -8.407  0.00  0.00    +0.061 C 
ATOM     11  H   UNL     1       4.205  -5.364  -7.731  0.00  0.00    +0.155 HD
ENDROOT
BRANCH   1  17
ATOM     12  C   UNL     1       1.552  -3.654  -2.598  0.00  0.00    +0.126 A 
ATOM     13  C   UNL     1       0.891  -4.452  -1.675  0.00  0.00    +0.047 A 
ATOM     14  C   UNL     1       0.797  -5.814  -1.882  0.00  0.00    +0.019 A 
ATOM     15  C   UNL     1       1.361  -6.383  -3.010  0.00  0.00    +0.018 A 
ATOM     16  C   UNL     1       2.021  -5.590  -3.932  0.00  0.00    +0.025 A 
ATOM     17  C   UNL     1       2.111  -4.226  -3.731  0.00  0.00    +0.024 A 
ATOM     18 BR   UNL     1       1.231  -8.249  -3.292  0.00  0.00    -0.050 Br
BRANCH  12  19
ATOM     19  O   UNL     1       1.646  -2.313  -2.396  0.00  0.00    -0.492 OA
BRANCH  19  20
ATOM     20  C   UNL     1       1.046  -1.793  -1.208  0.00  0.00    +0.229 C 
BRANCH  20  21
ATOM     21  C   UNL     1       1.252  -0.278  -1.154  0.00  0.00    +0.041 C 
BRANCH  21  23
ATOM     22  C   UNL     1       0.816   1.794   0.173  0.00  0.00    +0.004 C 
ATOM     23  C   UNL     1       0.610   0.279   0.119  0.00  0.00    -0.000 C 
ENDBRANCH  21  23
ENDBRANCH  20  21
ENDBRANCH  19  20
ENDBRANCH  12  19
ENDBRANCH   1  17
BRANCH   2  24
ATOM     24  C   UNL     1       0.877  -2.876  -6.244  0.00  0.00    +0.339 C 
ATOM     25  O   UNL     1       0.800  -1.683  -6.475  0.00  0.00    -0.245 OA
BRANCH  24  26
ATOM     26  O   UNL     1      -0.246  -3.618  -6.148  0.00  0.00    -0.457 OA
BRANCH  26  27
ATOM     27  C   UNL     1      -1.490  -2.938  -6.329  0.00  0.00    +0.259 C 
BRANCH  27  28
ATOM     28  C   UNL     1      -2.624  -3.921  -6.187  0.00  0.00    +0.006 C 
ATOM     29  C   UNL     1      -3.677  -3.607  -5.472  0.00  0.00    +0.007 C 
ENDBRANCH  27  28
ENDBRANCH  26  27
ENDBRANCH  24  26
ENDBRANCH   2  24
TORSDOF 9
