REMARK  Name = ZINC20533158
REMARK  8 active torsions:
REMARK  status: ('A' for Active; 'I' for Inactive)
REMARK    1  A    between atoms: C_1  and  C_2
REMARK    2  A    between atoms: C_2  and  N_3
REMARK    3  A    between atoms: C_7  and  C_9
REMARK    4  A    between atoms: C_9  and  N_10
REMARK    5  A    between atoms: N_10  and  C_11
REMARK    6  A    between atoms: N_21  and  C_24
REMARK    7  A    between atoms: C_26  and  C_31
REMARK    8  A    between atoms: C_29  and  C_30
REMARK                            x       y       z     vdW  Elec       q    Type
REMARK                         _______ _______ _______ _____ _____    ______ ____
ROOT
ATOM      1  C   UNL     1       1.825  -2.100   0.656  0.00  0.00    +0.081 C 
ATOM      2  C   UNL     1       1.794  -0.728   0.769  0.00  0.00    +0.059 C 
ATOM      3  C   UNL     1       0.511  -0.002   0.870  0.00  0.00    +0.000 A 
ATOM      4  C   UNL     1      -0.710  -0.667   0.855  0.00  0.00    +0.009 A 
ATOM      5  C   UNL     1      -1.881   0.056   0.952  0.00  0.00    +0.001 A 
ATOM      6  C   UNL     1      -1.849   1.438   1.064  0.00  0.00    +0.001 A 
ATOM      7  C   UNL     1      -0.648   2.115   1.087  0.00  0.00    +0.014 A 
ATOM      8  C   UNL     1       0.547   1.403   0.984  0.00  0.00    +0.046 A 
ATOM      9  C   UNL     1       1.847   2.086   0.999  0.00  0.00    +0.258 C 
ATOM     10  O   UNL     1       1.886   3.298   1.097  0.00  0.00    -0.269 OA
ATOM     11  N   UNL     1       2.995   1.395   0.905  0.00  0.00    -0.202 N 
ATOM     12  C   UNL     1       3.033   0.057   0.794  0.00  0.00    +0.259 C 
ATOM     13  O   UNL     1       4.107  -0.510   0.713  0.00  0.00    -0.269 OA
ENDROOT
BRANCH  11  14
ATOM     14  C   UNL     1       4.205   2.100   0.925  0.00  0.00    +0.048 A 
ATOM     15  C   UNL     1       4.771   2.544  -0.263  0.00  0.00    +0.027 A 
ATOM     16  C   UNL     1       5.962   3.244  -0.240  0.00  0.00    -0.049 A 
ATOM     17  C   UNL     1       6.596   3.493   0.964  0.00  0.00    +0.004 A 
ATOM     18  C   UNL     1       6.038   3.047   2.148  0.00  0.00    +0.005 A 
ATOM     19  C   UNL     1       4.844   2.352   2.132  0.00  0.00    -0.029 A 
ATOM     20  C   UNL     1       4.237   1.865   3.422  0.00  0.00    +0.045 C 
ATOM     21  C   UNL     1       6.573   3.732  -1.528  0.00  0.00    +0.044 C 
ENDBRANCH  11  14
BRANCH   1  22
ATOM     22  N   UNL     1       0.832  -2.850   1.201  0.00  0.00    -0.351 N 
ATOM     23  H   UNL     1       0.067  -2.374   1.832  0.00  0.00    +0.145 HD
BRANCH  22  24
ATOM     24  C   UNL     1       0.779  -4.292   0.948  0.00  0.00    +0.086 C 
BRANCH  24  29
ATOM     25  N   UNL     1      -0.550  -6.326   1.327  0.00  0.00    +0.382 N 
ATOM     26  C   UNL     1      -0.544  -7.019   2.633  0.00  0.00    -0.078 C 
ATOM     27  C   UNL     1      -1.096  -5.977   3.637  0.00  0.00    -0.020 C 
ATOM     28  C   UNL     1      -0.476  -4.662   3.096  0.00  0.00    -0.016 C 
ATOM     29  C   UNL     1      -0.493  -4.872   1.567  0.00  0.00    -0.051 C 
ATOM     30  H   UNL     1      -1.470  -6.574   0.777  0.00  0.00    -0.081 HD
BRANCH  25  32
ATOM     31  C   UNL     1       0.366  -8.225   0.081  0.00  0.00    -0.017 C 
ATOM     32  C   UNL     1       0.576  -6.766   0.493  0.00  0.00    -0.082 C 
ENDBRANCH  25  32
ENDBRANCH  24  29
ENDBRANCH  22  24
ENDBRANCH   1  22
TORSDOF 5
