REMARK  Name = ZINC36206458
REMARK  13 active torsions:
REMARK  status: ('A' for Active; 'I' for Inactive)
REMARK    1  A    between atoms: C_1  and  C_2
REMARK    2  A    between atoms: C_5  and  C_9
REMARK    3  A    between atoms: C_6  and  C_8
REMARK    4  A    between atoms: C_18  and  C_20
REMARK    5  A    between atoms: C_20  and  N_21
REMARK    6  A    between atoms: N_21  and  C_22
REMARK    7  A    between atoms: N_21  and  C_28
REMARK    8  A    between atoms: C_22  and  C_23
REMARK    9  A    between atoms: C_23  and  C_24
REMARK   10  A    between atoms: C_23  and  C_25
REMARK   11  A    between atoms: C_23  and  O_27
REMARK   12  A    between atoms: C_28  and  C_29
REMARK   13  A    between atoms: C_28  and  C_30
REMARK                            x       y       z     vdW  Elec       q    Type
REMARK                         _______ _______ _______ _____ _____    ______ ____
ROOT
ATOM      1  C   UNL     1       0.333  -4.258   0.474  0.00  0.00    +0.004 A 
ATOM      2  C   UNL     1       1.478  -4.968   0.329  0.00  0.00    +0.056 A 
ATOM      3  S   UNL     1       0.953  -6.653   0.576  0.00  0.00    -0.076 S 
ATOM      4  C   UNL     1      -0.774  -6.369   0.865  0.00  0.00    +0.116 A 
ATOM      5  C   UNL     1      -0.903  -4.974   0.769  0.00  0.00    +0.080 A 
ATOM      6  C   UNL     1      -2.223  -4.457   0.969  0.00  0.00    +0.260 A 
ATOM      7  O   UNL     1      -2.436  -3.259   0.901  0.00  0.00    -0.267 OA
ATOM      8  N   UNL     1      -3.226  -5.315   1.233  0.00  0.00    -0.312 N 
ATOM      9  H   UNL     1      -4.122  -4.971   1.369  0.00  0.00    +0.170 HD
ATOM     10  C   UNL     1      -3.007  -6.653   1.312  0.00  0.00    +0.094 A 
ATOM     11  N   UNL     1      -1.816  -7.155   1.124  0.00  0.00    -0.229 NA
ENDROOT
BRANCH   1  16
ATOM     12  C   UNL     1       0.349   1.476  -0.045  0.00  0.00    +0.044 C 
ATOM     13  C   UNL     1       0.345  -0.025   0.091  0.00  0.00    -0.050 A 
ATOM     14  C   UNL     1       0.642  -0.816  -1.004  0.00  0.00    +0.004 A 
ATOM     15  C   UNL     1       0.640  -2.191  -0.886  0.00  0.00    +0.009 A 
ATOM     16  C   UNL     1       0.337  -2.782   0.340  0.00  0.00    -0.014 A 
ATOM     17  C   UNL     1       0.038  -1.979   1.440  0.00  0.00    -0.042 A 
ATOM     18  C   UNL     1       0.049  -0.605   1.311  0.00  0.00    +0.007 A 
ATOM     19  C   UNL     1      -0.291  -2.610   2.768  0.00  0.00    +0.044 C 
ENDBRANCH   1  16
BRANCH  10  20
ATOM     20  C   UNL     1      -4.161  -7.575   1.610  0.00  0.00    -0.003 C 
BRANCH  20  21
ATOM     21  N   UNL     1      -3.718  -8.970   1.485  0.00  0.00    +0.388 N 
ATOM     22  H   UNL     1      -2.929  -9.128   2.093  0.00  0.00    -0.081 HD
BRANCH  21  23
ATOM     23  C   UNL     1      -3.325  -9.237   0.095  0.00  0.00    -0.074 C 
ATOM     24  C   UNL     1      -2.735 -10.645  -0.008  0.00  0.00    -0.014 C 
ATOM     25  C   UNL     1      -4.554  -9.132  -0.811  0.00  0.00    -0.014 C 
ENDBRANCH  21  23
BRANCH  21  26
ATOM     26  C   UNL     1      -4.816  -9.869   1.865  0.00  0.00    -0.039 C 
BRANCH  26  27
ATOM     27  C   UNL     1      -5.089  -9.736   3.364  0.00  0.00    +0.067 C 
ATOM     28  C   UNL     1      -3.784  -9.928   4.139  0.00  0.00    +0.044 C 
BRANCH  27  29
ATOM     29  C   UNL     1      -6.085 -10.784   3.788  0.00  0.00    -0.003 C 
ATOM     30  C   UNL     1      -7.229 -10.425   4.317  0.00  0.00    +0.006 C 
ENDBRANCH  27  29
BRANCH  27  31
ATOM     31  O   UNL     1      -5.619  -8.437   3.638  0.00  0.00    -0.387 OA
ATOM     32  H   UNL     1      -6.448  -8.245   3.179  0.00  0.00    +0.210 HD
ENDBRANCH  27  31
ENDBRANCH  26  27
ENDBRANCH  21  26
ENDBRANCH  20  21
ENDBRANCH  10  20
TORSDOF 8
