REMARK  Name = ZINC13360920
REMARK  10 active torsions:
REMARK  status: ('A' for Active; 'I' for Inactive)
REMARK    1  A    between atoms: C_1  and  O_2
REMARK    2  A    between atoms: O_2  and  C_3
REMARK    3  A    between atoms: C_8  and  O_9
REMARK    4  A    between atoms: O_9  and  C_10
REMARK    5  A    between atoms: C_11  and  C_28
REMARK    6  A    between atoms: N_13  and  S_16
REMARK    7  A    between atoms: S_16  and  C_19
REMARK    8  A    between atoms: C_22  and  O_27
REMARK    9  A    between atoms: C_23  and  C_25
REMARK   10  A    between atoms: C_28  and  C_29
REMARK                            x       y       z     vdW  Elec       q    Type
REMARK                         _______ _______ _______ _____ _____    ______ ____
ROOT
ATOM      1  C   UNL     1      -1.171   3.099   1.393  0.00  0.00    +0.162 A 
ATOM      2  C   UNL     1      -0.584   3.828   0.376  0.00  0.00    +0.053 A 
ATOM      3  C   UNL     1      -0.605   5.218   0.398  0.00  0.00    -0.038 A 
ATOM      4  C   UNL     1      -1.214   5.873   1.446  0.00  0.00    -0.021 A 
ATOM      5  C   UNL     1      -1.799   5.146   2.473  0.00  0.00    +0.055 A 
ATOM      6  C   UNL     1      -1.779   3.763   2.454  0.00  0.00    +0.162 A 
ATOM      7  C   UNL     1      -1.283   7.378   1.524  0.00  0.00    +0.121 C 
ATOM      8  N   UNL     1      -0.401   7.967   0.511  0.00  0.00    -0.168 NA
ATOM      9  C   UNL     1      -0.437   7.382  -0.839  0.00  0.00    +0.115 C 
ATOM     10  C   UNL     1       0.064   5.942  -0.740  0.00  0.00    +0.052 C 
ENDROOT
BRANCH   8  11
ATOM     11  S   UNL     1       0.596   9.239   0.872  0.00  0.00    +0.061 S 
ATOM     12  O   UNL     1       0.497  10.153  -0.211  0.00  0.00    -0.153 OA
ATOM     13  O   UNL     1       0.310   9.612   2.213  0.00  0.00    -0.153 OA
BRANCH  11  14
ATOM     14  C   UNL     1       2.248   8.625   0.863  0.00  0.00    +0.107 A 
ATOM     15  C   UNL     1       2.806   8.129   2.030  0.00  0.00    +0.032 A 
ATOM     16  C   UNL     1       4.097   7.640   2.034  0.00  0.00    +0.048 A 
ATOM     17  C   UNL     1       4.849   7.653   0.869  0.00  0.00    +0.131 A 
ATOM     18  C   UNL     1       4.290   8.159  -0.313  0.00  0.00    +0.106 A 
ATOM     19  C   UNL     1       2.980   8.646  -0.304  0.00  0.00    +0.047 A 
BRANCH  18  20
ATOM     20  C   UNL     1       5.080   8.178  -1.558  0.00  0.00    +0.390 C 
ATOM     21  O   UNL     1       6.219   7.754  -1.561  0.00  0.00    -0.240 OA
ATOM     22  O   UNL     1       4.539   8.665  -2.692  0.00  0.00    -0.240 OA
ENDBRANCH  18  20
BRANCH  17  23
ATOM     23  O   UNL     1       6.120   7.178   0.873  0.00  0.00    -0.506 OA
ATOM     24  H   UNL     1       6.789   7.846   1.077  0.00  0.00    +0.292 HD
ENDBRANCH  17  23
ENDBRANCH  11  14
ENDBRANCH   8  11
BRANCH   1  26
ATOM     25  C   UNL     1      -0.505   1.128   0.240  0.00  0.00    +0.277 C 
ATOM     26  O   UNL     1      -1.148   1.740   1.361  0.00  0.00    -0.491 OA
ENDBRANCH   1  26
BRANCH   6  27
ATOM     27  O   UNL     1      -2.352   3.057   3.466  0.00  0.00    -0.491 OA
ATOM     28  C   UNL     1      -2.957   3.808   4.520  0.00  0.00    +0.277 C 
ENDBRANCH   6  27
BRANCH   7  29
ATOM     29  C   UNL     1      -2.721   7.835   1.274  0.00  0.00    +0.150 C 
BRANCH  29  30
ATOM     30  C   UNL     1      -2.825   9.320   1.512  0.00  0.00    +0.358 C 
ATOM     31  O   UNL     1      -1.885   9.925   1.969  0.00  0.00    -0.246 OA
ATOM     32  O   UNL     1      -3.962   9.969   1.215  0.00  0.00    -0.246 OA
ENDBRANCH  29  30
ENDBRANCH   7  29
TORSDOF 8
