REMARK  Name = ZINC49507767
REMARK  7 active torsions:
REMARK  status: ('A' for Active; 'I' for Inactive)
REMARK    1  A    between atoms: C_1  and  C_2
REMARK    2  A    between atoms: C_2  and  C_34
REMARK    3  A    between atoms: C_8  and  N_17
REMARK    4  A    between atoms: N_11  and  C_14
REMARK    5  A    between atoms: C_14  and  C_15
REMARK    6  A    between atoms: C_18  and  C_20
REMARK    7  A    between atoms: N_25  and  C_27
REMARK                            x       y       z     vdW  Elec       q    Type
REMARK                         _______ _______ _______ _____ _____    ______ ____
ROOT
ATOM      1  C   UNL     1      -0.095   1.534  -0.007  0.00  0.00    +0.024 C 
ATOM      2  C   UNL     1      -0.041   0.005  -0.017  0.00  0.00    +0.076 C 
ATOM      3  C   UNL     1      -1.453  -0.552   0.150  0.00  0.00    +0.244 C 
ATOM      4  O   UNL     1      -1.874  -0.442   1.508  0.00  0.00    -0.489 OA
ATOM      5  C   UNL     1      -1.610   0.729   2.148  0.00  0.00    +0.142 A 
ATOM      6  C   UNL     1      -2.623   1.644   2.381  0.00  0.00    +0.049 A 
ATOM      7  C   UNL     1      -2.344   2.833   3.027  0.00  0.00    +0.027 A 
ATOM      8  C   UNL     1      -1.050   3.115   3.446  0.00  0.00    +0.035 A 
ATOM      9  C   UNL     1      -0.032   2.199   3.216  0.00  0.00    +0.050 A 
ATOM     10  C   UNL     1      -0.311   1.007   2.570  0.00  0.00    +0.080 A 
ATOM     11  N   UNL     1       0.702   0.066   2.341  0.00  0.00    -0.264 N 
ATOM     12  C   UNL     1       0.840  -0.472   1.108  0.00  0.00    +0.229 C 
ATOM     13  O   UNL     1       1.670  -1.334   0.909  0.00  0.00    -0.275 OA
ATOM     14  C   UNL     1       0.535  -0.474  -1.351  0.00  0.00    +0.024 C 
ENDROOT
BRANCH   8  15
ATOM     15  N   UNL     1      -0.772   4.323   4.098  0.00  0.00    -0.285 N 
ATOM     16  C   UNL     1      -1.700   4.885   4.899  0.00  0.00    +0.222 C 
ATOM     17  O   UNL     1      -2.739   4.302   5.126  0.00  0.00    -0.275 OA
ATOM     18  H   UNL     1       0.087   4.755   3.974  0.00  0.00    +0.155 HD
BRANCH  16  19
ATOM     19  C   UNL     1      -1.445   6.237   5.513  0.00  0.00    +0.102 C 
ATOM     20  C   UNL     1      -0.250   6.184   6.493  0.00  0.00    +0.110 C 
ATOM     21  C   UNL     1      -0.650   7.114   7.617  0.00  0.00    +0.221 C 
ATOM     22  O   UNL     1       0.111   7.572   8.444  0.00  0.00    -0.275 OA
ATOM     23  N   UNL     1      -1.970   7.360   7.566  0.00  0.00    -0.271 N 
ATOM     24  C   UNL     1      -2.603   6.646   6.450  0.00  0.00    +0.127 C 
BRANCH  23  25
ATOM     25  C   UNL     1      -2.654   8.190   8.461  0.00  0.00    +0.037 A 
ATOM     26  C   UNL     1      -1.988   8.736   9.551  0.00  0.00    +0.023 A 
ATOM     27  C   UNL     1      -2.666   9.555  10.432  0.00  0.00    +0.003 A 
ATOM     28  C   UNL     1      -4.005   9.832  10.232  0.00  0.00    +0.015 A 
ATOM     29  C   UNL     1      -4.672   9.290   9.148  0.00  0.00    +0.020 A 
ATOM     30  C   UNL     1      -3.998   8.474   8.258  0.00  0.00    +0.038 A 
ATOM     31 BR   UNL     1      -6.504   9.671   8.877  0.00  0.00    -0.050 Br
ENDBRANCH  23  25
ENDBRANCH  16  19
ENDBRANCH   8  15
BRANCH  11  32
ATOM     32  C   UNL     1       1.603  -0.330   3.426  0.00  0.00    +0.140 C 
BRANCH  32  33
ATOM     33  C   UNL     1       1.021  -1.513   4.155  0.00  0.00    -0.015 C 
ATOM     34  C   UNL     1       1.725  -2.609   4.293  0.00  0.00    +0.005 C 
ENDBRANCH  32  33
ENDBRANCH  11  32
TORSDOF 5
