REMARK  Name = ZINC38959505
REMARK  15 active torsions:
REMARK  status: ('A' for Active; 'I' for Inactive)
REMARK    1  A    between atoms: C_1  and  C_2
REMARK    2  A    between atoms: C_2  and  O_3
REMARK    3  A    between atoms: O_3  and  C_4
REMARK    4  A    between atoms: C_6  and  C_16
REMARK    5  A    between atoms: C_8  and  O_13
REMARK    6  A    between atoms: C_9  and  O_10
REMARK    7  A    between atoms: O_10  and  C_11
REMARK    8  A    between atoms: C_11  and  C_12
REMARK    9  A    between atoms: O_13  and  C_14
REMARK   10  A    between atoms: C_14  and  C_15
REMARK   11  A    between atoms: N_18  and  C_19
REMARK   12  A    between atoms: N_18  and  C_34
REMARK   13  A    between atoms: C_19  and  C_20
REMARK   14  A    between atoms: C_25  and  O_32
REMARK   15  A    between atoms: O_32  and  C_33
REMARK                            x       y       z     vdW  Elec       q    Type
REMARK                         _______ _______ _______ _____ _____    ______ ____
ROOT
ATOM      1  C   UNL     1      -0.206  -4.988   0.625  0.00  0.00    +0.247 C 
ATOM      2  O   UNL     1       0.173  -4.178  -0.198  0.00  0.00    -0.270 OA
ATOM      3  N   UNL     1      -0.030  -6.306   0.405  0.00  0.00    -0.293 N 
ENDROOT
BRANCH   1   6
ATOM      4  C   UNL     1      -1.176  -4.714   4.245  0.00  0.00    +0.166 A 
ATOM      5  C   UNL     1      -0.563  -5.146   3.084  0.00  0.00    +0.062 A 
ATOM      6  C   UNL     1      -0.860  -4.529   1.866  0.00  0.00    +0.044 A 
ATOM      7  C   UNL     1      -1.776  -3.474   1.826  0.00  0.00    +0.062 A 
ATOM      8  C   UNL     1      -2.386  -3.045   2.989  0.00  0.00    +0.166 A 
ATOM      9  C   UNL     1      -2.093  -3.667   4.200  0.00  0.00    +0.204 A 
BRANCH   4  10
ATOM     10  O   UNL     1      -0.888  -5.315   5.430  0.00  0.00    -0.488 OA
BRANCH  10  12
ATOM     11  C   UNL     1       0.254  -6.931   6.817  0.00  0.00    +0.048 C 
ATOM     12  C   UNL     1       0.061  -6.383   5.402  0.00  0.00    +0.226 C 
ENDBRANCH  10  12
ENDBRANCH   4  10
BRANCH   9  13
ATOM     13  O   UNL     1      -2.698  -3.246   5.342  0.00  0.00    -0.485 OA
BRANCH  13  14
ATOM     14  C   UNL     1      -2.044  -2.212   6.081  0.00  0.00    +0.226 C 
ATOM     15  C   UNL     1      -2.868  -1.875   7.325  0.00  0.00    +0.048 C 
ENDBRANCH  13  14
ENDBRANCH   9  13
BRANCH   8  16
ATOM     16  O   UNL     1      -3.277  -2.019   2.950  0.00  0.00    -0.488 OA
BRANCH  16  17
ATOM     17  C   UNL     1      -3.618  -1.504   1.662  0.00  0.00    +0.226 C 
ATOM     18  C   UNL     1      -4.531  -0.287   1.824  0.00  0.00    +0.048 C 
ENDBRANCH  16  17
ENDBRANCH   8  16
ENDBRANCH   1   6
BRANCH   3  19
ATOM     19  C   UNL     1       0.729  -6.758  -0.764  0.00  0.00    +0.076 C 
ATOM     20  C   UNL     1       2.174  -6.267  -0.655  0.00  0.00    +0.022 C 
ATOM     21  C   UNL     1       2.966  -6.739  -1.876  0.00  0.00    +0.002 C 
ATOM     22  C   UNL     1       2.329  -6.174  -3.147  0.00  0.00    +0.000 C 
ATOM     23  C   UNL     1       0.884  -6.665  -3.256  0.00  0.00    +0.002 C 
ATOM     24  C   UNL     1       0.092  -6.193  -2.035  0.00  0.00    +0.022 C 
ENDBRANCH   3  19
BRANCH   3  25
ATOM     25  C   UNL     1      -0.597  -7.287   1.334  0.00  0.00    +0.125 C 
BRANCH  25  26
ATOM     26  C   UNL     1      -1.937  -7.787   0.792  0.00  0.00    +0.116 C 
ATOM     27  C   UNL     1      -2.384  -8.949   1.657  0.00  0.00    -0.003 C 
ATOM     28  C   UNL     1      -3.593  -8.838   2.278  0.00  0.00    -0.004 A 
ATOM     29  C   UNL     1      -4.100  -9.914   3.130  0.00  0.00    +0.055 A 
ATOM     30  C   UNL     1      -5.313  -9.760   3.730  0.00  0.00    +0.121 A 
ATOM     31  C   UNL     1      -6.074  -8.599   3.543  0.00  0.00    +0.047 A 
ATOM     32  C   UNL     1      -5.656  -7.569   2.764  0.00  0.00    +0.027 A 
ATOM     33  C   UNL     1      -4.416  -7.629   2.101  0.00  0.00    +0.041 A 
ATOM     34  N   UNL     1      -4.019  -6.609   1.340  0.00  0.00    -0.284 N 
ATOM     35  C   UNL     1      -2.868  -6.601   0.688  0.00  0.00    +0.226 C 
ATOM     36  O   UNL     1      -2.560  -5.640   0.009  0.00  0.00    -0.275 OA
ATOM     37  H   UNL     1      -4.601  -5.838   1.260  0.00  0.00    +0.155 HD
BRANCH  30  38
ATOM     38  O   UNL     1      -5.795 -10.752   4.524  0.00  0.00    -0.495 OA
ATOM     39  C   UNL     1      -7.072 -10.537   5.128  0.00  0.00    +0.277 C 
ENDBRANCH  30  38
ENDBRANCH  25  26
ENDBRANCH   3  25
TORSDOF 11
