REMARK  Name = ZINC09313308
REMARK  14 active torsions:
REMARK  status: ('A' for Active; 'I' for Inactive)
REMARK    1  A    between atoms: C_1  and  C_2
REMARK    2  A    between atoms: C_2  and  N_70
REMARK    3  A    between atoms: C_3  and  C_4
REMARK    4  A    between atoms: C_3  and  N_70
REMARK    5  A    between atoms: C_5  and  C_6
REMARK    6  A    between atoms: C_5  and  N_70
REMARK    7  A    between atoms: C_6  and  N_7
REMARK    8  A    between atoms: C_8  and  C_28
REMARK    9  A    between atoms: C_11  and  C_12
REMARK   10  A    between atoms: C_11  and  O_23
REMARK   11  A    between atoms: C_19  and  C_22
REMARK   12  A    between atoms: C_31  and  N_34
REMARK   13  A    between atoms: N_34  and  C_35
REMARK   14  A    between atoms: N_34  and  C_36
REMARK                            x       y       z     vdW  Elec       q    Type
REMARK                         _______ _______ _______ _____ _____    ______ ____
ROOT
ATOM      1  N   UNL     1      -1.473  -8.163   4.247  0.00  0.00    -0.285 N 
ATOM      2  C   UNL     1      -2.412  -7.381   3.438  0.00  0.00    +0.144 C 
ATOM      3  C   UNL     1      -1.752  -6.047   3.176  0.00  0.00    +0.071 C 
ATOM      4  C   UNL     1      -2.272  -4.992   2.451  0.00  0.00    +0.133 C 
ATOM      5  C   UNL     1      -0.509  -6.094   3.823  0.00  0.00    +0.249 C 
ATOM      6  O   UNL     1       0.318  -5.199   3.847  0.00  0.00    -0.282 OA
ATOM      7  C   UNL     1      -0.374  -7.424   4.476  0.00  0.00    +0.288 C 
ATOM      8  O   UNL     1       0.588  -7.788   5.121  0.00  0.00    -0.266 OA
ENDROOT
BRANCH   4   9
ATOM      9  C   UNL     1      -1.495  -3.753   2.296  0.00  0.00    +0.017 A 
ATOM     10  C   UNL     1      -0.192  -3.796   1.785  0.00  0.00    +0.015 A 
ATOM     11  C   UNL     1       0.533  -2.637   1.645  0.00  0.00    +0.046 A 
ATOM     12  C   UNL     1      -0.019  -1.407   2.010  0.00  0.00    +0.124 A 
ATOM     13  C   UNL     1      -1.319  -1.369   2.510  0.00  0.00    -0.002 A 
ATOM     14  C   UNL     1      -2.052  -2.520   2.658  0.00  0.00    +0.019 A 
ATOM     15  C   UNL     1      -1.645   0.086   2.788  0.00  0.00    +0.083 C 
ATOM     16  C   UNL     1      -0.527   0.817   2.007  0.00  0.00    +0.175 C 
ATOM     17  O   UNL     1       0.524  -0.162   1.962  0.00  0.00    -0.488 OA
ATOM     18  C   UNL     1      -0.071   2.069   2.759  0.00  0.00    +0.052 C 
ENDBRANCH   4   9
BRANCH   2  19
ATOM     19  C   UNL     1      -3.703  -7.181   4.189  0.00  0.00    -0.022 A 
ATOM     20  C   UNL     1      -3.678  -6.946   5.552  0.00  0.00    +0.007 A 
ATOM     21  C   UNL     1      -4.859  -6.756   6.243  0.00  0.00    +0.023 A 
ATOM     22  C   UNL     1      -6.073  -6.811   5.569  0.00  0.00    +0.029 A 
ATOM     23  C   UNL     1      -6.094  -7.053   4.201  0.00  0.00    +0.023 A 
ATOM     24  C   UNL     1      -4.910  -7.237   3.516  0.00  0.00    +0.007 A 
BRANCH  22  25
ATOM     25  N   UNL     1      -7.269  -6.625   6.266  0.00  0.00    -0.336 N 
ATOM     26  C   UNL     1      -8.548  -6.683   5.554  0.00  0.00    +0.129 C 
ATOM     27  C   UNL     1      -7.244  -6.370   7.708  0.00  0.00    +0.129 C 
ENDBRANCH  22  25
ENDBRANCH   2  19
BRANCH   4  28
ATOM     28  O   UNL     1      -3.493  -5.099   1.884  0.00  0.00    -0.506 OA
ATOM     29  H   UNL     1      -3.711  -4.251   1.401  0.00  0.00    +0.292 HD
ENDBRANCH   4  28
BRANCH   1  30
ATOM     30  C   UNL     1      -1.698  -9.526   4.733  0.00  0.00    +0.090 C 
BRANCH  30  31
ATOM     31  C   UNL     1      -2.381  -9.474   6.101  0.00  0.00    -0.060 C 
BRANCH  31  32
ATOM     32  N   UNL     1      -2.620 -10.856   6.568  0.00  0.00    +0.380 N 
ATOM     33  H   UNL     1      -3.105 -11.378   5.829  0.00  0.00    -0.082 HD
BRANCH  32  35
ATOM     34  C   UNL     1      -0.601 -10.798   7.993  0.00  0.00    -0.017 C 
ATOM     35  C   UNL     1      -1.333 -11.520   6.860  0.00  0.00    -0.082 C 
ENDBRANCH  32  35
BRANCH  32  36
ATOM     36  C   UNL     1      -3.467 -10.840   7.779  0.00  0.00    -0.082 C 
ATOM     37  C   UNL     1      -3.990 -12.256   8.032  0.00  0.00    -0.017 C 
ENDBRANCH  32  36
ENDBRANCH  31  32
ENDBRANCH  30  31
ENDBRANCH   1  30
TORSDOF 9
