REMARK  Name = ZINC34829755
REMARK  10 active torsions:
REMARK  status: ('A' for Active; 'I' for Inactive)
REMARK    1  A    between atoms: C_1  and  C_2
REMARK    2  A    between atoms: C_5  and  C_8
REMARK    3  A    between atoms: N_17  and  C_18
REMARK    4  A    between atoms: C_18  and  C_19
REMARK    5  A    between atoms: C_25  and  C_28
REMARK    6  A    between atoms: C_29  and  C_31
REMARK    7  A    between atoms: C_33  and  O_39
REMARK    8  A    between atoms: C_35  and  O_37
REMARK    9  A    between atoms: O_37  and  C_38
REMARK   10  A    between atoms: O_39  and  C_40
REMARK                            x       y       z     vdW  Elec       q    Type
REMARK                         _______ _______ _______ _____ _____    ______ ____
ROOT
ATOM      1  C   UNL     1      -3.676  -5.625   1.022  0.00  0.00    +0.199 C 
ATOM      2  O   UNL     1      -3.262  -6.450   1.809  0.00  0.00    -0.278 OA
ATOM      3  N   UNL     1      -4.911  -5.108   1.175  0.00  0.00    -0.300 N 
ATOM      4  C   UNL     1      -5.427  -4.112   0.226  0.00  0.00    +0.126 C 
ATOM      5  C   UNL     1      -5.861  -2.867   1.009  0.00  0.00    +0.127 C 
ATOM      6  N   UNL     1      -6.716  -3.289   2.127  0.00  0.00    -0.292 N 
ATOM      7  C   UNL     1      -6.199  -4.285   3.077  0.00  0.00    +0.091 C 
ATOM      8  C   UNL     1      -5.768  -5.535   2.290  0.00  0.00    +0.130 C 
ATOM      9  C   UNL     1      -5.000  -3.705   3.829  0.00  0.00    +0.029 C 
ATOM     10  C   UNL     1      -7.951  -2.772   2.280  0.00  0.00    +0.247 C 
ATOM     11  O   UNL     1      -8.340  -1.898   1.531  0.00  0.00    -0.270 OA
ENDROOT
BRANCH  10  12
ATOM     12  C   UNL     1      -8.832  -3.269   3.358  0.00  0.00    +0.044 A 
ATOM     13  C   UNL     1      -8.368  -3.321   4.673  0.00  0.00    +0.059 A 
ATOM     14  C   UNL     1      -9.197  -3.787   5.680  0.00  0.00    +0.124 A 
ATOM     15  C   UNL     1     -10.488  -4.201   5.383  0.00  0.00    +0.091 A 
ATOM     16  C   UNL     1     -10.953  -4.151   4.077  0.00  0.00    +0.124 A 
ATOM     17  C   UNL     1     -10.132  -3.682   3.065  0.00  0.00    +0.059 A 
BRANCH  16  18
ATOM     18  O   UNL     1     -12.218  -4.559   3.791  0.00  0.00    -0.495 OA
ATOM     19  C   UNL     1     -13.011  -5.026   4.884  0.00  0.00    +0.277 C 
ENDBRANCH  16  18
BRANCH  14  20
ATOM     20  O   UNL     1      -8.746  -3.838   6.961  0.00  0.00    -0.495 OA
ATOM     21  C   UNL     1      -9.654  -4.329   7.949  0.00  0.00    +0.277 C 
ENDBRANCH  14  20
ENDBRANCH  10  12
BRANCH   1  22
ATOM     22  C   UNL     1      -2.808  -5.178  -0.126  0.00  0.00    +0.020 C 
BRANCH  22  31
ATOM     23  C   UNL     1      -0.637  -5.357  -1.118  0.00  0.00    -0.005 C 
ATOM     24  C   UNL     1       0.658  -6.164  -1.121  0.00  0.00    -0.047 A 
ATOM     25  C   UNL     1       1.850  -5.723  -1.690  0.00  0.00    +0.010 A 
ATOM     26  C   UNL     1       2.953  -6.506  -1.643  0.00  0.00    +0.045 A 
ATOM     27  S   UNL     1       2.348  -7.944  -0.772  0.00  0.00    -0.101 S 
ATOM     28  C   UNL     1       0.681  -7.396  -0.539  0.00  0.00    -0.010 A 
ATOM     29  C   UNL     1      -0.465  -8.084   0.128  0.00  0.00    +0.024 C 
ATOM     30  C   UNL     1      -1.747  -7.324  -0.253  0.00  0.00    -0.072 C 
ATOM     31  N   UNL     1      -1.521  -5.883  -0.070  0.00  0.00    +0.393 N 
ATOM     32  H   UNL     1      -1.096  -5.727   0.832  0.00  0.00    -0.080 HD
BRANCH  23  37
ATOM     33  C   UNL     1       0.541   0.198  -0.049  0.00  0.00    +0.044 C 
ATOM     34  C   UNL     1       0.234  -1.251  -0.328  0.00  0.00    -0.050 A 
ATOM     35  C   UNL     1       0.005  -1.672  -1.624  0.00  0.00    +0.003 A 
ATOM     36  C   UNL     1      -0.276  -3.001  -1.880  0.00  0.00    +0.002 A 
ATOM     37  C   UNL     1      -0.329  -3.909  -0.839  0.00  0.00    -0.057 A 
ATOM     38  C   UNL     1      -0.099  -3.488   0.458  0.00  0.00    +0.002 A 
ATOM     39  C   UNL     1       0.186  -2.160   0.713  0.00  0.00    +0.003 A 
ENDBRANCH  23  37
ENDBRANCH  22  31
ENDBRANCH   1  22
TORSDOF 6
