REMARK  Name = ZINC09375647
REMARK  14 active torsions:
REMARK  status: ('A' for Active; 'I' for Inactive)
REMARK    1  A    between atoms: C_1  and  C_2
REMARK    2  A    between atoms: C_2  and  C_3
REMARK    3  A    between atoms: C_3  and  C_5
REMARK    4  A    between atoms: C_3  and  N_69
REMARK    5  A    between atoms: C_8  and  S_17
REMARK    6  A    between atoms: N_9  and  C_10
REMARK    7  A    between atoms: C_10  and  C_11
REMARK    8  A    between atoms: S_17  and  C_18
REMARK    9  A    between atoms: C_18  and  C_20
REMARK   10  A    between atoms: C_18  and  C_21
REMARK   11  A    between atoms: N_23  and  C_24
REMARK   12  A    between atoms: C_29  and  C_30
REMARK   13  A    between atoms: C_36  and  N_69
REMARK   14  A    between atoms: C_37  and  N_69
REMARK                            x       y       z     vdW  Elec       q    Type
REMARK                         _______ _______ _______ _____ _____    ______ ____
ROOT
ATOM      1  C   UNL     1      -2.640  -6.557   1.698  0.00  0.00    +0.121 A 
ATOM      2  N   UNL     1      -1.560  -6.063   1.161  0.00  0.00    -0.135 NA
ATOM      3  N   UNL     1      -1.619  -4.779   1.151  0.00  0.00    -0.123 NA
ATOM      4  C   UNL     1      -2.749  -4.381   1.686  0.00  0.00    +0.193 A 
ATOM      5  N   UNL     1      -3.434  -5.503   2.057  0.00  0.00    -0.303 N 
ENDROOT
BRANCH   1   6
ATOM      6  C   UNL     1      -2.953  -8.018   1.893  0.00  0.00    +0.000 C 
BRANCH   6   9
ATOM      7  C   UNL     1      -0.567  -8.425   1.960  0.00  0.00    -0.096 C 
ATOM      8  C   UNL     1      -1.816  -8.204   4.022  0.00  0.00    -0.096 C 
ATOM      9  N   UNL     1      -1.859  -8.689   2.627  0.00  0.00    +0.383 N 
ATOM     10  H   UNL     1      -2.032  -9.701   2.630  0.00  0.00    -0.082 HD
ENDBRANCH   6   9
BRANCH   6  12
ATOM     11  C   UNL     1      -3.536 -10.149   0.726  0.00  0.00    +0.002 C 
ATOM     12  C   UNL     1      -3.117  -8.691   0.528  0.00  0.00    -0.011 C 
ENDBRANCH   6  12
ENDBRANCH   1   6
BRANCH   5  13
ATOM     13  C   UNL     1      -4.748  -5.564   2.702  0.00  0.00    +0.160 C 
BRANCH  13  14
ATOM     14  C   UNL     1      -5.823  -5.627   1.648  0.00  0.00    -0.028 A 
ATOM     15  C   UNL     1      -6.380  -4.460   1.159  0.00  0.00    +0.005 A 
ATOM     16  C   UNL     1      -7.363  -4.517   0.189  0.00  0.00    +0.000 A 
ATOM     17  C   UNL     1      -7.795  -5.742  -0.286  0.00  0.00    +0.000 A 
ATOM     18  C   UNL     1      -7.241  -6.909   0.206  0.00  0.00    +0.000 A 
ATOM     19  C   UNL     1      -6.255  -6.851   1.173  0.00  0.00    +0.005 A 
ENDBRANCH  13  14
ENDBRANCH   5  13
BRANCH   4  20
ATOM     20  S   UNL     1      -3.280  -2.713   1.893  0.00  0.00    -0.074 S 
BRANCH  20  21
ATOM     21  C   UNL     1      -1.863  -1.842   1.181  0.00  0.00    +0.137 C 
ATOM     22  C   UNL     1      -1.762  -2.165  -0.311  0.00  0.00    +0.029 C 
BRANCH  21  23
ATOM     23  C   UNL     1      -2.044  -0.357   1.362  0.00  0.00    +0.230 C 
ATOM     24  O   UNL     1      -3.148   0.099   1.572  0.00  0.00    -0.274 OA
ATOM     25  N   UNL     1      -0.979   0.466   1.290  0.00  0.00    -0.284 N 
ATOM     26  H   UNL     1      -0.107   0.111   1.052  0.00  0.00    +0.155 HD
BRANCH  25  27
ATOM     27  C   UNL     1      -1.129   1.829   1.557  0.00  0.00    +0.041 A 
ATOM     28  C   UNL     1      -2.307   2.480   1.217  0.00  0.00    +0.024 A 
ATOM     29  C   UNL     1      -2.455   3.826   1.487  0.00  0.00    +0.002 A 
ATOM     30  C   UNL     1      -1.429   4.536   2.086  0.00  0.00    +0.001 A 
ATOM     31  C   UNL     1      -0.251   3.904   2.425  0.00  0.00    +0.010 A 
ATOM     32  C   UNL     1      -0.091   2.545   2.163  0.00  0.00    +0.003 A 
BRANCH  32  33
ATOM     33  C   UNL     1       1.174   1.860   2.526  0.00  0.00    -0.016 A 
ATOM     34  C   UNL     1       1.142   0.673   3.255  0.00  0.00    +0.008 A 
ATOM     35  C   UNL     1       2.322   0.037   3.585  0.00  0.00    +0.001 A 
ATOM     36  C   UNL     1       3.535   0.582   3.203  0.00  0.00    +0.000 A 
ATOM     37  C   UNL     1       3.572   1.763   2.483  0.00  0.00    +0.001 A 
ATOM     38  C   UNL     1       2.399   2.404   2.143  0.00  0.00    +0.008 A 
ENDBRANCH  32  33
ENDBRANCH  25  27
ENDBRANCH  21  23
ENDBRANCH  20  21
ENDBRANCH   4  20
TORSDOF 10
