REMARK  Name = ZINC52884150
REMARK  5 active torsions:
REMARK  status: ('A' for Active; 'I' for Inactive)
REMARK    1  A    between atoms: C_1  and  C_2
REMARK    2  A    between atoms: C_2  and  C_3
REMARK    3  A    between atoms: C_2  and  C_4
REMARK    4  A    between atoms: C_10  and  C_19
REMARK    5  A    between atoms: C_19  and  N_20
REMARK                            x       y       z     vdW  Elec       q    Type
REMARK                         _______ _______ _______ _____ _____    ______ ____
ROOT
ATOM      1  C   UNL     1      -1.412  -0.526   0.013  0.00  0.00    +0.066 A 
ATOM      2  C   UNL     1      -2.205  -0.717   1.149  0.00  0.00    +0.045 A 
ATOM      3  C   UNL     1      -3.405  -1.196   0.745  0.00  0.00    +0.116 A 
ATOM      4  N   UNL     1      -3.369  -1.304  -0.608  0.00  0.00    -0.221 N 
ATOM      5  N   UNL     1      -2.108  -0.871  -1.039  0.00  0.00    -0.170 NA
ATOM      6  C   UNL     1      -4.407  -1.760  -1.426  0.00  0.00    +0.155 A 
ATOM      7  C   UNL     1      -4.465  -1.361  -2.756  0.00  0.00    -0.020 A 
ATOM      8  C   UNL     1      -5.502  -1.822  -3.544  0.00  0.00    +0.010 A 
ATOM      9  C   UNL     1      -6.451  -2.673  -2.982  0.00  0.00    -0.026 A 
ATOM     10  C   UNL     1      -6.331  -3.034  -1.659  0.00  0.00    +0.047 A 
ATOM     11  N   UNL     1      -5.322  -2.572  -0.931  0.00  0.00    -0.232 NA
ATOM     12  C   UNL     1      -7.308  -3.964  -0.986  0.00  0.00    +0.056 C 
ATOM     13  C   UNL     1      -8.602  -4.057  -1.790  0.00  0.00    +0.006 C 
ATOM     14  C   UNL     1      -8.247  -4.381  -3.246  0.00  0.00    +0.005 C 
ATOM     15  C   UNL     1      -7.573  -3.156  -3.860  0.00  0.00    +0.037 C 
ENDROOT
BRANCH   1  17
ATOM     16  C   UNL     1      -0.019   1.526   0.010  0.00  0.00    +0.014 C 
ATOM     17  C   UNL     1       0.002  -0.004   0.002  0.00  0.00    +0.033 C 
ATOM     18  C   UNL     1       0.742  -0.511   1.242  0.00  0.00    +0.014 C 
ENDBRANCH   1  17
BRANCH   7  19
ATOM     19  C   UNL     1      -3.418  -0.440  -3.326  0.00  0.00    -0.047 C 
BRANCH  19  20
ATOM     20  N   UNL     1      -2.213  -1.214  -3.656  0.00  0.00    +0.381 N 
ATOM     21  H   UNL     1      -2.444  -1.923  -4.335  0.00  0.00    -0.090 HD
ATOM     22  H   UNL     1      -1.512  -0.598  -4.038  0.00  0.00    -0.090 HD
ATOM     23  H   UNL     1      -1.856  -1.653  -2.820  0.00  0.00    -0.090 HD
ENDBRANCH  19  20
ENDBRANCH   7  19
TORSDOF 3
