REMARK  Name = ZINC43721369
REMARK  12 active torsions:
REMARK  status: ('A' for Active; 'I' for Inactive)
REMARK    1  A    between atoms: C_1  and  C_2
REMARK    2  A    between atoms: C_2  and  O_4
REMARK    3  A    between atoms: O_4  and  C_5
REMARK    4  A    between atoms: C_9  and  C_42
REMARK    5  A    between atoms: C_14  and  C_41
REMARK    6  A    between atoms: C_15  and  C_36
REMARK    7  A    between atoms: C_22  and  C_35
REMARK    8  A    between atoms: C_23  and  O_31
REMARK    9  A    between atoms: C_28  and  C_29
REMARK   10  A    between atoms: C_28  and  C_30
REMARK   11  A    between atoms: O_31  and  C_32
REMARK   12  A    between atoms: C_32  and  C_34
REMARK                            x       y       z     vdW  Elec       q    Type
REMARK                         _______ _______ _______ _____ _____    ______ ____
ROOT
ATOM      1  C   UNL     1      -1.862  -2.152   0.952  0.00  0.00    +0.182 C 
ATOM      2  C   UNL     1      -2.315  -2.734   2.283  0.00  0.00    +0.046 C 
ATOM      3  C   UNL     1      -3.766  -2.364   2.566  0.00  0.00    +0.011 C 
ATOM      4  C   UNL     1      -4.670  -2.973   1.473  0.00  0.00    -0.025 C 
ATOM      5  C   UNL     1      -6.095  -2.458   1.713  0.00  0.00    +0.009 C 
ATOM      6  C   UNL     1      -6.591  -2.781   3.104  0.00  0.00    +0.006 C 
ATOM      7  C   UNL     1      -8.025  -2.325   3.364  0.00  0.00    +0.015 C 
ATOM      8  C   UNL     1      -8.603  -1.438   2.277  0.00  0.00    +0.031 C 
ATOM      9  C   UNL     1     -10.045  -1.051   2.560  0.00  0.00    +0.220 C 
ATOM     10  O   UNL     1     -10.978  -1.573   1.617  0.00  0.00    -0.453 OA
ATOM     11  C   UNL     1     -10.607  -1.358   0.324  0.00  0.00    +0.333 C 
ATOM     12  O   UNL     1     -11.261  -0.711  -0.457  0.00  0.00    -0.246 OA
ATOM     13  C   UNL     1      -9.316  -1.994  -0.028  0.00  0.00    +0.092 C 
ATOM     14  C   UNL     1      -8.385  -2.051   0.923  0.00  0.00    -0.043 C 
ATOM     15  C   UNL     1      -7.099  -2.827   0.639  0.00  0.00    +0.030 C 
ATOM     16  C   UNL     1      -6.578  -2.467  -0.747  0.00  0.00    +0.187 C 
ATOM     17  C   UNL     1      -5.146  -2.977  -0.967  0.00  0.00    +0.050 C 
ATOM     18  C   UNL     1      -4.223  -2.437   0.116  0.00  0.00    +0.008 C 
ATOM     19  C   UNL     1      -2.757  -2.599  -0.207  0.00  0.00    +0.006 C 
ATOM     20  C   UNL     1      -2.387  -4.016  -0.639  0.00  0.00    +0.015 C 
ATOM     21  C   UNL     1      -2.419  -1.661  -1.396  0.00  0.00    +0.015 C 
ATOM     22  C   UNL     1      -7.486  -4.317   0.662  0.00  0.00    +0.020 C 
ATOM     23  C   UNL     1      -7.865  -0.089   2.316  0.00  0.00    +0.020 C 
ATOM     24  C   UNL     1      -4.587  -4.485   1.577  0.00  0.00    +0.012 C 
ENDROOT
BRANCH   9  25
ATOM     25  C   UNL     1     -10.472  -1.461   3.946  0.00  0.00    +0.031 A 
ATOM     26  C   UNL     1     -10.552  -0.626   5.084  0.00  0.00    +0.048 A 
ATOM     27  C   UNL     1     -10.976  -1.395   6.103  0.00  0.00    +0.195 A 
ATOM     28  O   UNL     1     -11.155  -2.645   5.644  0.00  0.00    -0.471 OA
ATOM     29  C   UNL     1     -10.856  -2.689   4.336  0.00  0.00    +0.202 A 
ENDBRANCH   9  25
BRANCH   1  30
ATOM     30  O   UNL     1      -1.880  -0.722   1.022  0.00  0.00    -0.461 OA
BRANCH  30  32
ATOM     31  C   UNL     1      -0.706   1.383   1.557  0.00  0.00    +0.136 C 
ATOM     32  C   UNL     1      -0.762  -0.120   1.457  0.00  0.00    +0.304 C 
ATOM     33  O   UNL     1       0.199  -0.782   1.768  0.00  0.00    -0.251 OA
ENDBRANCH  30  32
ENDBRANCH   1  30
BRANCH  16  34
ATOM     34  O   UNL     1      -7.395  -3.096  -1.749  0.00  0.00    -0.461 OA
BRANCH  34  35
ATOM     35  C   UNL     1      -7.511  -2.461  -2.926  0.00  0.00    +0.304 C 
ATOM     36  O   UNL     1      -6.942  -1.410  -3.105  0.00  0.00    -0.251 OA
ATOM     37  C   UNL     1      -8.351  -3.059  -4.025  0.00  0.00    +0.136 C 
ENDBRANCH  34  35
ENDBRANCH  16  34
TORSDOF 5
