REMARK  Name = ZINC06282939
REMARK  8 active torsions:
REMARK  status: ('A' for Active; 'I' for Inactive)
REMARK    1  A    between atoms: C_1  and  O_2
REMARK    2  A    between atoms: O_2  and  C_3
REMARK    3  A    between atoms: C_8  and  C_15
REMARK    4  A    between atoms: C_15  and  C_17
REMARK    5  A    between atoms: C_15  and  N_66
REMARK    6  A    between atoms: N_21  and  C_22
REMARK    7  A    between atoms: C_22  and  C_23
REMARK    8  A    between atoms: C_31  and  C_34
REMARK                            x       y       z     vdW  Elec       q    Type
REMARK                         _______ _______ _______ _____ _____    ______ ____
ROOT
ATOM      1  C   UNL     1       1.536  -1.470  -1.585  0.00  0.00    +0.039 C 
ENDROOT
BRANCH   1   7
ATOM      2  C   UNL     1      -2.941   0.165  -5.994  0.00  0.00    +0.122 A 
ATOM      3  C   UNL     1      -1.962   1.157  -5.960  0.00  0.00    +0.046 A 
ATOM      4  C   UNL     1      -0.900   1.054  -5.109  0.00  0.00    +0.013 A 
ATOM      5  C   UNL     1      -0.792  -0.057  -4.264  0.00  0.00    -0.001 A 
ATOM      6  C   UNL     1       0.334  -0.197  -3.341  0.00  0.00    +0.017 A 
ATOM      7  C   UNL     1       0.388  -1.295  -2.546  0.00  0.00    +0.011 A 
ATOM      8  C   UNL     1      -0.622  -2.276  -2.619  0.00  0.00    +0.251 A 
ATOM      9  O   UNL     1      -0.550  -3.257  -1.899  0.00  0.00    -0.268 OA
ATOM     10  N   UNL     1      -1.664  -2.155  -3.459  0.00  0.00    -0.322 N 
ATOM     11  H   UNL     1      -2.343  -2.846  -3.482  0.00  0.00    +0.169 HD
ATOM     12  C   UNL     1      -1.778  -1.063  -4.295  0.00  0.00    +0.053 A 
ATOM     13  C   UNL     1      -2.852  -0.941  -5.167  0.00  0.00    +0.072 A 
BRANCH   2  15
ATOM     14  C   UNL     1      -4.024   1.449  -7.675  0.00  0.00    +0.277 C 
ATOM     15  O   UNL     1      -3.990   0.284  -6.847  0.00  0.00    -0.495 OA
ENDBRANCH   2  15
ENDBRANCH   1   7
BRANCH   1  21
ATOM     16  C   UNL     1       3.461  -2.854  -1.080  0.00  0.00    -0.072 C 
ATOM     17  C   UNL     1       3.956  -4.300  -1.162  0.00  0.00    +0.017 C 
ATOM     18  C   UNL     1       3.972  -4.750  -2.596  0.00  0.00    -0.048 C 
ATOM     19  C   UNL     1       3.322  -4.115  -3.547  0.00  0.00    -0.041 C 
ATOM     20  C   UNL     1       2.509  -2.877  -3.297  0.00  0.00    -0.049 C 
ATOM     21  N   UNL     1       2.208  -2.760  -1.858  0.00  0.00    +0.392 N 
ATOM     22  H   UNL     1       1.584  -3.527  -1.583  0.00  0.00    -0.080 HD
BRANCH  18  23
ATOM     23  C   UNL     1       4.749  -5.956  -2.952  0.00  0.00    -0.022 A 
ATOM     24  C   UNL     1       4.381  -7.202  -2.443  0.00  0.00    +0.011 A 
ATOM     25  C   UNL     1       5.107  -8.324  -2.784  0.00  0.00    +0.039 A 
ATOM     26  C   UNL     1       6.206  -8.215  -3.620  0.00  0.00    +0.123 A 
ATOM     27  C   UNL     1       6.579  -6.979  -4.123  0.00  0.00    +0.039 A 
ATOM     28  C   UNL     1       5.857  -5.851  -3.794  0.00  0.00    +0.011 A 
ATOM     29  F   UNL     1       6.917  -9.316  -3.946  0.00  0.00    -0.205 F 
ENDBRANCH  18  23
ENDBRANCH   1  21
BRANCH   1  30
ATOM     30  C   UNL     1       2.507  -0.329  -1.749  0.00  0.00    +0.143 A 
ATOM     31  N   UNL     1       3.316  -0.130  -2.761  0.00  0.00    -0.115 NA
ATOM     32  N   UNL     1       3.987   0.945  -2.529  0.00  0.00    -0.023 NA
ATOM     33  N   UNL     1       3.623   1.440  -1.397  0.00  0.00    -0.044 NA
ATOM     34  N   UNL     1       2.709   0.685  -0.887  0.00  0.00    -0.226 N 
BRANCH  34  35
ATOM     35  C   UNL     1       2.026   0.889   0.392  0.00  0.00    +0.182 C 
BRANCH  35  36
ATOM     36  C   UNL     1       0.876   1.844   0.201  0.00  0.00    -0.026 A 
ATOM     37  C   UNL     1      -0.388   1.358  -0.074  0.00  0.00    +0.005 A 
ATOM     38  C   UNL     1      -1.442   2.234  -0.255  0.00  0.00    +0.000 A 
ATOM     39  C   UNL     1      -1.233   3.597  -0.152  0.00  0.00    +0.000 A 
ATOM     40  C   UNL     1       0.031   4.083   0.124  0.00  0.00    +0.000 A 
ATOM     41  C   UNL     1       1.086   3.207   0.300  0.00  0.00    +0.005 A 
ENDBRANCH  35  36
ENDBRANCH  34  35
ENDBRANCH   1  30
TORSDOF 7
