REMARK  Name = ZINC64056460
REMARK  12 active torsions:
REMARK  status: ('A' for Active; 'I' for Inactive)
REMARK    1  A    between atoms: C_1  and  C_2
REMARK    2  A    between atoms: C_4  and  C_12
REMARK    3  A    between atoms: C_12  and  C_14
REMARK    4  A    between atoms: C_14  and  C_16
REMARK    5  A    between atoms: C_14  and  O_17
REMARK    6  A    between atoms: O_17  and  C_18
REMARK    7  A    between atoms: C_18  and  C_20
REMARK    8  A    between atoms: C_22  and  S_32
REMARK    9  A    between atoms: C_25  and  N_26
REMARK   10  A    between atoms: S_32  and  N_35
REMARK   11  A    between atoms: N_35  and  C_36
REMARK   12  A    between atoms: N_35  and  C_37
REMARK                            x       y       z     vdW  Elec       q    Type
REMARK                         _______ _______ _______ _____ _____    ______ ____
ROOT
ATOM      1  C   UNL     1       0.766  -1.775  -5.818  0.00  0.00    +0.342 C 
ATOM      2  O   UNL     1       1.587  -2.636  -5.569  0.00  0.00    -0.245 OA
ENDROOT
BRANCH   1   3
ATOM      3  C   UNL     1       0.061  -1.782  -7.110  0.00  0.00    +0.082 A 
ATOM      4  C   UNL     1      -0.880  -0.790  -7.403  0.00  0.00    +0.045 A 
ATOM      5  C   UNL     1      -1.537  -0.802  -8.614  0.00  0.00    +0.106 A 
ATOM      6  C   UNL     1      -1.270  -1.793  -9.546  0.00  0.00    +0.030 A 
ATOM      7  C   UNL     1      -0.344  -2.779  -9.272  0.00  0.00    +0.026 A 
ATOM      8  C   UNL     1       0.333  -2.781  -8.059  0.00  0.00    +0.044 A 
BRANCH   8   9
ATOM      9  N   UNL     1       1.269  -3.768  -7.783  0.00  0.00    -0.325 N 
ATOM     10  C   UNL     1       0.871  -5.030  -7.140  0.00  0.00    +0.133 C 
ATOM     11  C   UNL     1       1.433  -6.193  -7.967  0.00  0.00    +0.178 C 
ATOM     12  O   UNL     1       2.834  -5.995  -8.165  0.00  0.00    -0.377 OA
ATOM     13  C   UNL     1       3.160  -4.817  -8.906  0.00  0.00    +0.178 C 
ATOM     14  C   UNL     1       2.687  -3.586  -8.132  0.00  0.00    +0.133 C 
ENDBRANCH   8   9
BRANCH   5  15
ATOM     15  S   UNL     1      -2.723   0.449  -8.980  0.00  0.00    +0.060 S 
ATOM     16  O   UNL     1      -3.597  -0.095  -9.960  0.00  0.00    -0.153 OA
ATOM     17  O   UNL     1      -3.189   0.943  -7.733  0.00  0.00    -0.153 OA
BRANCH  15  18
ATOM     18  N   UNL     1      -1.911   1.694  -9.710  0.00  0.00    -0.183 NA
ATOM     19  C   UNL     1      -1.760   1.716 -11.167  0.00  0.00    +0.131 C 
ATOM     20  C   UNL     1      -1.344   2.774  -8.898  0.00  0.00    +0.131 C 
ENDBRANCH  15  18
ENDBRANCH   5  15
ENDBRANCH   1   3
BRANCH   1  21
ATOM     21  O   UNL     1       0.502  -0.814  -4.910  0.00  0.00    -0.450 OA
BRANCH  21  22
ATOM     22  C   UNL     1       1.223  -0.869  -3.678  0.00  0.00    +0.244 C 
ATOM     23  C   UNL     1       2.518  -0.065  -3.809  0.00  0.00    +0.061 C 
BRANCH  22  24
ATOM     24  C   UNL     1       0.379  -0.286  -2.575  0.00  0.00    +0.202 C 
ATOM     25  O   UNL     1      -0.602   0.376  -2.847  0.00  0.00    -0.288 OA
BRANCH  24  28
ATOM     26  C   UNL     1      -0.019   1.526   0.010  0.00  0.00    +0.035 C 
ATOM     27  C   UNL     1       0.002  -0.004   0.002  0.00  0.00    +0.111 C 
ATOM     28  C   UNL     1       0.728  -0.508  -1.226  0.00  0.00    +0.030 C 
ATOM     29  C   UNL     1       1.805  -1.234  -0.750  0.00  0.00    +0.007 A 
ATOM     30  C   UNL     1       2.845  -1.946  -1.391  0.00  0.00    +0.010 A 
ATOM     31  C   UNL     1       3.789  -2.580  -0.660  0.00  0.00    +0.001 A 
ATOM     32  C   UNL     1       3.790  -2.566   0.744  0.00  0.00    +0.002 A 
ATOM     33  C   UNL     1       2.842  -1.915   1.453  0.00  0.00    +0.026 A 
ATOM     34  C   UNL     1       1.776  -1.199   0.733  0.00  0.00    +0.043 A 
ATOM     35  N   UNL     1       0.756  -0.505   1.155  0.00  0.00    -0.377 N 
ATOM     36  H   UNL     1       0.532  -0.344   2.085  0.00  0.00    +0.160 HD
ENDBRANCH  24  28
ENDBRANCH  22  24
ENDBRANCH  21  22
ENDBRANCH   1  21
TORSDOF 8
