REMARK  Name = ZINC02778333
REMARK  11 active torsions:
REMARK  status: ('A' for Active; 'I' for Inactive)
REMARK    1  A    between atoms: C_1  and  C_2
REMARK    2  A    between atoms: C_4  and  C_36
REMARK    3  A    between atoms: N_5  and  C_7
REMARK    4  A    between atoms: C_7  and  C_8
REMARK    5  A    between atoms: C_11  and  C_13
REMARK    6  A    between atoms: N_15  and  N_16
REMARK    7  A    between atoms: C_17  and  C_35
REMARK    8  A    between atoms: C_27  and  C_31
REMARK    9  A    between atoms: C_31  and  C_32
REMARK   10  A    between atoms: C_31  and  C_33
REMARK   11  A    between atoms: C_31  and  C_34
REMARK                            x       y       z     vdW  Elec       q    Type
REMARK                         _______ _______ _______ _____ _____    ______ ____
ROOT
ATOM      1  N   UNL     1      -2.821   8.908   5.750  0.00  0.00    -0.209 N 
ATOM      2  C   UNL     1      -3.616   9.281   6.785  0.00  0.00    +0.129 A 
ATOM      3  N   UNL     1      -3.467  10.440   7.369  0.00  0.00    -0.225 NA
ATOM      4  C   UNL     1      -2.529  11.293   6.966  0.00  0.00    +0.116 A 
ATOM      5  C   UNL     1      -1.660  10.996   5.904  0.00  0.00    +0.077 A 
ATOM      6  C   UNL     1      -1.846   9.715   5.289  0.00  0.00    +0.280 A 
ATOM      7  O   UNL     1      -1.137   9.363   4.362  0.00  0.00    -0.265 OA
ATOM      8  C   UNL     1      -0.680  12.030   5.571  0.00  0.00    -0.023 A 
ATOM      9  C   UNL     1      -0.705  13.158   6.311  0.00  0.00    -0.004 A 
ATOM     10  S   UNL     1      -2.017  12.913   7.478  0.00  0.00    -0.073 S 
ATOM     11  C   UNL     1       0.185  14.355   6.172  0.00  0.00    +0.046 C 
ATOM     12  C   UNL     1       0.900  14.271   4.816  0.00  0.00    -0.000 C 
ATOM     13  C   UNL     1       1.472  12.861   4.648  0.00  0.00    +0.009 C 
ATOM     14  C   UNL     1       0.334  11.860   4.443  0.00  0.00    +0.037 C 
ATOM     15  C   UNL     1      -4.690   8.341   7.269  0.00  0.00    +0.088 C 
ENDROOT
BRANCH   1  18
ATOM     16  C   UNL     1      -3.611   7.570   3.947  0.00  0.00    +0.297 C 
ATOM     17  O   UNL     1      -3.981   8.579   3.377  0.00  0.00    -0.265 OA
ATOM     18  N   UNL     1      -3.014   7.656   5.152  0.00  0.00    -0.212 N 
ATOM     19  H   UNL     1      -2.719   6.851   5.606  0.00  0.00    +0.176 HD
BRANCH  16  23
ATOM     20  C   UNL     1      -3.795   4.090   2.993  0.00  0.00    +0.127 A 
ATOM     21  C   UNL     1      -4.379   4.641   1.907  0.00  0.00    +0.047 A 
ATOM     22  C   UNL     1      -4.401   6.030   2.110  0.00  0.00    +0.055 A 
ATOM     23  C   UNL     1      -3.813   6.259   3.321  0.00  0.00    +0.191 A 
ATOM     24  O   UNL     1      -3.453   5.068   3.841  0.00  0.00    -0.453 OA
BRANCH  20  25
ATOM     25  C   UNL     1      -3.561   2.617   3.211  0.00  0.00    +0.217 C 
BRANCH  25  30
ATOM     26  C   UNL     1      -0.013   1.086   0.008  0.00  0.00    +0.067 C 
ATOM     27  C   UNL     1      -0.718   1.572   1.248  0.00  0.00    +0.060 A 
ATOM     28  C   UNL     1      -0.116   1.847   2.480  0.00  0.00    +0.047 A 
ATOM     29  C   UNL     1      -1.082   2.258   3.333  0.00  0.00    +0.037 A 
ATOM     30  N   UNL     1      -2.254   2.244   2.665  0.00  0.00    -0.261 N 
ATOM     31  N   UNL     1      -1.999   1.815   1.356  0.00  0.00    -0.176 NA
ATOM     32  C   UNL     1      -0.884   2.660   4.772  0.00  0.00    +0.065 C 
ENDBRANCH  25  30
ENDBRANCH  20  25
ENDBRANCH  16  23
ENDBRANCH   1  18
BRANCH  12  33
ATOM     33  C   UNL     1       2.037  15.295   4.771  0.00  0.00    -0.035 C 
ATOM     34  C   UNL     1       3.035  14.997   5.891  0.00  0.00    +0.011 C 
ATOM     35  C   UNL     1       2.747  15.209   3.418  0.00  0.00    +0.011 C 
ATOM     36  C   UNL     1       1.464  16.701   4.958  0.00  0.00    +0.011 C 
ENDBRANCH  12  33
TORSDOF 5
