REMARK  Name = ZINC50900615
REMARK  8 active torsions:
REMARK  status: ('A' for Active; 'I' for Inactive)
REMARK    1  A    between atoms: C_1  and  O_2
REMARK    2  A    between atoms: O_2  and  C_3
REMARK    3  A    between atoms: C_3  and  C_5
REMARK    4  A    between atoms: C_13  and  C_16
REMARK    5  A    between atoms: C_14  and  O_15
REMARK    6  A    between atoms: C_16  and  N_17
REMARK    7  A    between atoms: C_21  and  C_24
REMARK    8  A    between atoms: N_26  and  C_27
REMARK                            x       y       z     vdW  Elec       q    Type
REMARK                         _______ _______ _______ _____ _____    ______ ____
ROOT
ATOM      1  C   UNL     1       0.680  -2.085   1.091  0.00  0.00    +0.101 A 
ATOM      2  C   UNL     1       0.103  -2.838   0.080  0.00  0.00    +0.027 A 
ATOM      3  C   UNL     1       0.162  -4.238   0.142  0.00  0.00    -0.017 A 
ATOM      4  C   UNL     1      -0.412  -5.033  -0.867  0.00  0.00    +0.008 A 
ATOM      5  C   UNL     1      -0.338  -6.389  -0.780  0.00  0.00    +0.001 A 
ATOM      6  C   UNL     1       0.300  -7.005   0.296  0.00  0.00    +0.001 A 
ATOM      7  C   UNL     1       0.867  -6.269   1.290  0.00  0.00    +0.009 A 
ATOM      8  C   UNL     1       0.812  -4.865   1.236  0.00  0.00    -0.013 A 
ATOM      9  C   UNL     1       1.389  -4.079   2.248  0.00  0.00    -0.014 A 
ATOM     10  C   UNL     1       1.329  -2.719   2.172  0.00  0.00    +0.133 A 
ENDROOT
BRANCH   1  11
ATOM     11  C   UNL     1       0.621  -0.613   1.033  0.00  0.00    +0.343 C 
ATOM     12  O   UNL     1       1.129   0.051   1.914  0.00  0.00    -0.245 OA
BRANCH  11  14
ATOM     13  C   UNL     1      -0.017   1.425   0.010  0.00  0.00    +0.280 C 
ATOM     14  O   UNL     1       0.002  -0.004   0.002  0.00  0.00    -0.464 OA
ENDBRANCH  11  14
ENDBRANCH   1  11
BRANCH  10  15
ATOM     15  O   UNL     1       1.894  -1.966   3.151  0.00  0.00    -0.506 OA
ATOM     16  H   UNL     1       1.297  -1.761   3.883  0.00  0.00    +0.292 HD
ENDBRANCH  10  15
BRANCH   9  17
ATOM     17  C   UNL     1       2.080  -4.739   3.413  0.00  0.00    -0.039 C 
BRANCH  17  18
ATOM     18  N   UNL     1       3.501  -4.934   3.093  0.00  0.00    +0.383 N 
ATOM     19  C   UNL     1       3.625  -5.874   1.973  0.00  0.00    -0.078 C 
ATOM     20  C   UNL     1       5.098  -6.018   1.583  0.00  0.00    -0.018 C 
ATOM     21  C   UNL     1       5.889  -6.544   2.784  0.00  0.00    +0.009 C 
ATOM     22  C   UNL     1       5.692  -5.594   3.969  0.00  0.00    +0.058 C 
ATOM     23  C   UNL     1       4.197  -5.466   4.270  0.00  0.00    -0.066 C 
ATOM     24  H   UNL     1       3.910  -4.049   2.833  0.00  0.00    -0.081 HD
BRANCH  22  25
ATOM     25  C   UNL     1       6.405  -6.142   5.178  0.00  0.00    +0.215 C 
ATOM     26  O   UNL     1       5.780  -6.402   6.184  0.00  0.00    -0.276 OA
ATOM     27  N   UNL     1       7.737  -6.344   5.140  0.00  0.00    -0.312 N 
ATOM     28  H   UNL     1       8.237  -6.136   4.335  0.00  0.00    +0.149 HD
BRANCH  27  29
ATOM     29  C   UNL     1       8.431  -6.877   6.316  0.00  0.00    +0.073 C 
ATOM     30  C   UNL     1       9.758  -6.226   6.708  0.00  0.00    +0.024 C 
ATOM     31  C   UNL     1       9.746  -7.622   6.082  0.00  0.00    +0.024 C 
ENDBRANCH  27  29
ENDBRANCH  22  25
ENDBRANCH  17  18
ENDBRANCH   9  17
TORSDOF 7
