REMARK  Name = ZINC58007389
REMARK  10 active torsions:
REMARK  status: ('A' for Active; 'I' for Inactive)
REMARK    1  A    between atoms: C_1  and  C_2
REMARK    2  A    between atoms: C_4  and  C_33
REMARK    3  A    between atoms: C_6  and  O_8
REMARK    4  A    between atoms: O_8  and  C_9
REMARK    5  A    between atoms: C_9  and  C_10
REMARK    6  A    between atoms: C_10  and  C_12
REMARK    7  A    between atoms: C_10  and  O_32
REMARK    8  A    between atoms: C_12  and  N_13
REMARK    9  A    between atoms: C_16  and  C_20
REMARK   10  A    between atoms: C_16  and  C_21
REMARK                            x       y       z     vdW  Elec       q    Type
REMARK                         _______ _______ _______ _____ _____    ______ ____
ROOT
ATOM      1  N   UNL     1      -0.049  -3.028   7.211  0.00  0.00    -0.221 N 
ATOM      2  C   UNL     1      -1.149  -3.589   7.750  0.00  0.00    +0.251 C 
ATOM      3  O   UNL     1      -2.296  -3.449   7.385  0.00  0.00    -0.272 OA
ATOM      4  C   UNL     1      -0.653  -4.432   8.909  0.00  0.00    +0.135 C 
ATOM      5  N   UNL     1       0.806  -4.229   8.885  0.00  0.00    -0.281 N 
ATOM      6  C   UNL     1       1.062  -3.399   7.858  0.00  0.00    +0.310 C 
ATOM      7  O   UNL     1       2.178  -3.026   7.553  0.00  0.00    -0.252 OA
ATOM      8  C   UNL     1      -1.245  -3.934  10.229  0.00  0.00    +0.047 C 
ATOM      9  H   UNL     1       1.455  -4.619   9.491  0.00  0.00    +0.152 HD
ENDROOT
BRANCH   4  10
ATOM     10  C   UNL     1      -0.990  -5.884   8.690  0.00  0.00    -0.012 A 
ATOM     11  C   UNL     1      -2.113  -6.229   7.962  0.00  0.00    +0.010 A 
ATOM     12  C   UNL     1      -2.428  -7.560   7.756  0.00  0.00    +0.050 A 
ATOM     13  C   UNL     1      -1.613  -8.548   8.282  0.00  0.00    +0.162 A 
ATOM     14  C   UNL     1      -0.485  -8.202   9.013  0.00  0.00    +0.162 A 
ATOM     15  C   UNL     1      -0.170  -6.868   9.213  0.00  0.00    +0.055 A 
ATOM     16  O   UNL     1       0.313  -9.183   9.526  0.00  0.00    -0.488 OA
ATOM     17  C   UNL     1      -0.256  -9.965  10.578  0.00  0.00    +0.232 C 
ATOM     18  C   UNL     1      -1.097 -11.099  10.012  0.00  0.00    +0.082 C 
ATOM     19  C   UNL     1      -2.311 -10.595   9.248  0.00  0.00    +0.232 C 
ATOM     20  O   UNL     1      -1.911  -9.865   8.086  0.00  0.00    -0.488 OA
ENDBRANCH   4  10
BRANCH   1  21
ATOM     21  C   UNL     1      -0.066  -2.127   6.056  0.00  0.00    +0.152 C 
BRANCH  21  22
ATOM     22  C   UNL     1       0.065  -2.946   4.769  0.00  0.00    +0.170 C 
BRANCH  22  23
ATOM     23  O   UNL     1       1.296  -3.671   4.789  0.00  0.00    -0.387 OA
ATOM     24  H   UNL     1       2.081  -3.111   4.852  0.00  0.00    +0.210 HD
ENDBRANCH  22  23
BRANCH  22  25
ATOM     25  C   UNL     1       0.046  -2.005   3.563  0.00  0.00    +0.261 C 
BRANCH  25  26
ATOM     26  O   UNL     1       0.051  -2.775   2.359  0.00  0.00    -0.489 OA
BRANCH  26  32
ATOM     27  C   UNL     1      -0.018   1.503   0.010  0.00  0.00    +0.044 C 
ATOM     28  C   UNL     1       0.002  -0.004   0.002  0.00  0.00    -0.047 A 
ATOM     29  C   UNL     1       0.006  -0.688  -1.200  0.00  0.00    +0.007 A 
ATOM     30  C   UNL     1       0.025  -2.071  -1.210  0.00  0.00    -0.047 A 
ATOM     31  C   UNL     1       0.040  -2.772  -0.020  0.00  0.00    +0.049 A 
ATOM     32  C   UNL     1       0.036  -2.088   1.187  0.00  0.00    +0.121 A 
ATOM     33  C   UNL     1       0.023  -0.701   1.195  0.00  0.00    +0.049 A 
ATOM     34  C   UNL     1       0.029  -2.813  -2.522  0.00  0.00    +0.044 C 
ENDBRANCH  26  32
ENDBRANCH  25  26
ENDBRANCH  22  25
ENDBRANCH  21  22
ENDBRANCH   1  21
TORSDOF 7
