REMARK  Name = ZINC01433647
REMARK  9 active torsions:
REMARK  status: ('A' for Active; 'I' for Inactive)
REMARK    1  A    between atoms: C_1  and  C_2
REMARK    2  A    between atoms: C_6  and  N_8
REMARK    3  A    between atoms: N_8  and  C_9
REMARK    4  A    between atoms: C_9  and  C_10
REMARK    5  A    between atoms: N_12  and  N_13
REMARK    6  A    between atoms: C_14  and  C_15
REMARK    7  A    between atoms: C_16  and  C_25
REMARK    8  A    between atoms: C_18  and  O_23
REMARK    9  A    between atoms: C_20  and  O_21
REMARK                            x       y       z     vdW  Elec       q    Type
REMARK                         _______ _______ _______ _____ _____    ______ ____
ROOT
ATOM      1  N   UNL     1       1.632   9.730   0.041  0.00  0.00    -0.188 NA
ATOM      2  C   UNL     1       2.607  10.587   0.037  0.00  0.00    +0.142 C 
ENDROOT
BRANCH   2   3
ATOM      3  C   UNL     1       2.318  12.031   0.048  0.00  0.00    +0.041 A 
ATOM      4  C   UNL     1       3.366  12.956   0.049  0.00  0.00    -0.021 A 
ATOM      5  C   UNL     1       3.092  14.307   0.053  0.00  0.00    +0.064 A 
ATOM      6  C   UNL     1       1.775  14.754   0.068  0.00  0.00    +0.148 A 
ATOM      7  C   UNL     1       0.728  13.843   0.073  0.00  0.00    +0.102 A 
ATOM      8  C   UNL     1       0.992  12.484   0.063  0.00  0.00    +0.143 A 
ATOM      9 BR   UNL     1      -1.060  14.459   0.092  0.00  0.00    -0.043 Br
ATOM     10 BR   UNL     1       4.511  15.557   0.047  0.00  0.00    -0.046 Br
ATOM     11  C   UNL     1       4.795  12.477   0.040  0.00  0.00    +0.046 C 
BRANCH   8  12
ATOM     12  O   UNL     1      -0.033  11.591   0.067  0.00  0.00    -0.505 OA
ATOM     13  H   UNL     1      -0.321  11.327   0.951  0.00  0.00    +0.292 HD
ENDBRANCH   8  12
BRANCH   6  14
ATOM     14  O   UNL     1       1.513  16.087   0.078  0.00  0.00    -0.504 OA
ATOM     15  H   UNL     1       1.445  16.468   0.964  0.00  0.00    +0.292 HD
ENDBRANCH   6  14
ENDBRANCH   2   3
BRANCH   1  18
ATOM     16  C   UNL     1       0.894   7.466   0.035  0.00  0.00    +0.249 C 
ATOM     17  O   UNL     1      -0.255   7.855   0.048  0.00  0.00    -0.272 OA
ATOM     18  N   UNL     1       1.907   8.356   0.031  0.00  0.00    -0.206 N 
ATOM     19  H   UNL     1       2.825   8.045   0.020  0.00  0.00    +0.177 HD
BRANCH  16  20
ATOM     20  C   UNL     1       1.190   5.989   0.024  0.00  0.00    +0.199 C 
BRANCH  20  21
ATOM     21  N   UNL     1      -0.069   5.239   0.031  0.00  0.00    -0.335 N 
ATOM     22  H   UNL     1      -0.916   5.713   0.042  0.00  0.00    +0.147 HD
BRANCH  21  28
ATOM     23  C   UNL     1      -2.514   0.976   0.019  0.00  0.00    +0.044 C 
ATOM     24  C   UNL     1      -1.220   1.749   0.017  0.00  0.00    -0.049 A 
ATOM     25  C   UNL     1      -0.013   1.076   0.008  0.00  0.00    +0.003 A 
ATOM     26  C   UNL     1       1.176   1.782   0.000  0.00  0.00    +0.002 A 
ATOM     27  C   UNL     1       1.161   3.163   0.008  0.00  0.00    +0.023 A 
ATOM     28  C   UNL     1      -0.050   3.842   0.023  0.00  0.00    +0.028 A 
ATOM     29  C   UNL     1      -1.243   3.130   0.031  0.00  0.00    +0.026 A 
ENDBRANCH  21  28
ENDBRANCH  20  21
ENDBRANCH  16  20
ENDBRANCH   1  18
TORSDOF 7
