REMARK  Name = ZINC27202339
REMARK  13 active torsions:
REMARK  status: ('A' for Active; 'I' for Inactive)
REMARK    1  A    between atoms: C_1  and  C_2
REMARK    2  A    between atoms: C_2  and  C_3
REMARK    3  A    between atoms: C_3  and  C_5
REMARK    4  A    between atoms: C_3  and  C_6
REMARK    5  A    between atoms: C_6  and  C_8
REMARK    6  A    between atoms: C_6  and  N_27
REMARK    7  A    between atoms: N_10  and  N_11
REMARK    8  A    between atoms: C_12  and  C_14
REMARK    9  A    between atoms: C_14  and  C_16
REMARK   10  A    between atoms: C_14  and  O_17
REMARK   11  A    between atoms: O_17  and  C_18
REMARK   12  A    between atoms: C_19  and  C_26
REMARK   13  A    between atoms: C_23  and  C_24
REMARK                            x       y       z     vdW  Elec       q    Type
REMARK                         _______ _______ _______ _____ _____    ______ ____
ROOT
ATOM      1  C   UNL     1       0.157   0.205   5.494  0.00  0.00    +0.250 C 
ATOM      2  O   UNL     1       0.293  -0.209   6.626  0.00  0.00    -0.272 OA
ATOM      3  N   UNL     1       0.055   1.530   5.269  0.00  0.00    -0.233 N 
ATOM      4  H   UNL     1      -0.013   1.909   4.238  0.00  0.00    +0.173 HD
ENDROOT
BRANCH   3   5
ATOM      5  N   UNL     1       0.036   2.425   6.347  0.00  0.00    -0.231 N 
ATOM      6  C   UNL     1      -0.066   3.749   6.122  0.00  0.00    +0.270 C 
ATOM      7  O   UNL     1      -0.141   4.168   4.986  0.00  0.00    -0.270 OA
ATOM      8  H   UNL     1       0.105   2.045   7.377  0.00  0.00    +0.173 HD
BRANCH   6   9
ATOM      9  C   UNL     1      -0.086   4.711   7.282  0.00  0.00    +0.257 C 
ATOM     10  C   UNL     1       1.259   4.661   8.010  0.00  0.00    +0.062 C 
BRANCH   9  11
ATOM     11  O   UNL     1      -0.316   6.036   6.798  0.00  0.00    -0.479 OA
BRANCH  11  12
ATOM     12  C   UNL     1      -1.044   6.865   7.592  0.00  0.00    +0.127 A 
ATOM     13  C   UNL     1      -2.430   6.846   7.531  0.00  0.00    -0.007 A 
ATOM     14  C   UNL     1      -3.168   7.686   8.342  0.00  0.00    +0.027 A 
ATOM     15  C   UNL     1      -2.526   8.554   9.207  0.00  0.00    +0.042 A 
ATOM     16  C   UNL     1      -1.144   8.579   9.265  0.00  0.00    +0.027 A 
ATOM     17  C   UNL     1      -0.402   7.736   8.460  0.00  0.00    -0.007 A 
ATOM     18  C   UNL     1       1.103   7.764   8.523  0.00  0.00    +0.047 C 
ATOM     19 CL   UNL     1      -3.456   9.613  10.221  0.00  0.00    -0.084 Cl
ATOM     20  C   UNL     1      -3.130   5.904   6.585  0.00  0.00    +0.047 C 
ENDBRANCH  11  12
ENDBRANCH   9  11
ENDBRANCH   6   9
ENDBRANCH   3   5
BRANCH   1  21
ATOM     21  C   UNL     1       0.102  -0.762   4.339  0.00  0.00    +0.165 C 
BRANCH  21  22
ATOM     22  N   UNL     1       0.794  -2.000   4.705  0.00  0.00    -0.288 N 
ATOM     23  C   UNL     1       1.317  -2.788   3.746  0.00  0.00    +0.298 C 
ATOM     24  O   UNL     1       1.215  -2.473   2.576  0.00  0.00    -0.253 OA
ATOM     25  N   UNL     1       1.954  -3.928   4.083  0.00  0.00    -0.313 N 
ATOM     26  H   UNL     1       0.887  -2.286   5.764  0.00  0.00    +0.151 HD
ATOM     27  H   UNL     1       2.381  -4.571   3.300  0.00  0.00    +0.146 HD
ATOM     28  H   UNL     1       2.047  -4.214   5.141  0.00  0.00    +0.146 HD
ENDBRANCH  21  22
BRANCH  21  29
ATOM     29  C   UNL     1      -1.358  -1.073   4.005  0.00  0.00    +0.015 C 
ATOM     30  C   UNL     1      -2.026  -1.740   5.209  0.00  0.00    +0.010 C 
BRANCH  29  32
ATOM     31  C   UNL     1      -0.961  -1.271   1.546  0.00  0.00    +0.004 C 
ATOM     32  C   UNL     1      -1.415  -2.017   2.802  0.00  0.00    +0.002 C 
ENDBRANCH  29  32
ENDBRANCH  21  29
ENDBRANCH   1  21
TORSDOF 8
