REMARK  Name = ZINC36146349
REMARK  13 active torsions:
REMARK  status: ('A' for Active; 'I' for Inactive)
REMARK    1  A    between atoms: C_1  and  N_2
REMARK    2  A    between atoms: N_2  and  C_3
REMARK    3  A    between atoms: N_2  and  C_4
REMARK    4  A    between atoms: C_7  and  C_10
REMARK    5  A    between atoms: C_13  and  C_16
REMARK    6  A    between atoms: C_16  and  N_17
REMARK    7  A    between atoms: N_17  and  C_18
REMARK    8  A    between atoms: N_17  and  C_26
REMARK    9  A    between atoms: C_18  and  C_19
REMARK   10  A    between atoms: C_26  and  C_27
REMARK   11  A    between atoms: C_27  and  C_29
REMARK   12  A    between atoms: C_27  and  O_36
REMARK   13  A    between atoms: C_29  and  C_30
REMARK                            x       y       z     vdW  Elec       q    Type
REMARK                         _______ _______ _______ _____ _____    ______ ____
ROOT
ATOM      1  N   UNL     1      -9.249  -4.775   0.155  0.00  0.00    +0.386 N 
ATOM      2  H   UNL     1      -9.151  -4.722  -0.848  0.00  0.00    -0.081 HD
ENDROOT
BRANCH   1   3
ATOM      3  C   UNL     1      -8.432  -3.727   0.782  0.00  0.00    -0.030 C 
BRANCH   3   7
ATOM      4  C   UNL     1      -4.784  -3.442   1.052  0.00  0.00    +0.091 C 
ATOM      5  N   UNL     1      -4.994  -4.708   0.912  0.00  0.00    -0.089 NA
ATOM      6  O   UNL     1      -6.352  -5.015   0.665  0.00  0.00    -0.392 OA
ATOM      7  C   UNL     1      -7.003  -3.801   0.240  0.00  0.00    +0.194 C 
ATOM      8  C   UNL     1      -6.108  -2.720   0.895  0.00  0.00    +0.104 C 
BRANCH   4  12
ATOM      9  C   UNL     1      -1.032  -1.615   1.836  0.00  0.00    +0.029 A 
ATOM     10  C   UNL     1      -1.116  -2.997   1.702  0.00  0.00    +0.024 A 
ATOM     11  C   UNL     1      -2.331  -3.593   1.448  0.00  0.00    +0.011 A 
ATOM     12  C   UNL     1      -3.481  -2.807   1.325  0.00  0.00    -0.000 A 
ATOM     13  C   UNL     1      -3.392  -1.419   1.461  0.00  0.00    +0.011 A 
ATOM     14  C   UNL     1      -2.175  -0.831   1.720  0.00  0.00    +0.024 A 
BRANCH   9  16
ATOM     15  C   UNL     1       0.290   0.439   2.242  0.00  0.00    +0.129 C 
ATOM     16  N   UNL     1       0.200  -1.016   2.094  0.00  0.00    -0.336 N 
ATOM     17  C   UNL     1       1.405  -1.840   2.216  0.00  0.00    +0.129 C 
ENDBRANCH   9  16
ENDBRANCH   4  12
ENDBRANCH   3   7
ENDBRANCH   1   3
BRANCH   1  18
ATOM     18  C   UNL     1      -8.797  -6.093   0.621  0.00  0.00    -0.043 C 
BRANCH  18  19
ATOM     19  C   UNL     1      -9.016  -6.201   2.108  0.00  0.00    -0.063 A 
ATOM     20  C   UNL     1      -8.052  -5.736   2.984  0.00  0.00    +0.002 A 
ATOM     21  C   UNL     1      -8.252  -5.835   4.348  0.00  0.00    +0.002 A 
ATOM     22  C   UNL     1      -9.415  -6.399   4.838  0.00  0.00    +0.020 A 
ATOM     23  C   UNL     1     -10.379  -6.864   3.962  0.00  0.00    +0.041 A 
ATOM     24  C   UNL     1     -10.181  -6.759   2.597  0.00  0.00    +0.021 A 
ATOM     25 CL   UNL     1     -11.840  -7.573   4.576  0.00  0.00    -0.084 Cl
ENDBRANCH  18  19
ENDBRANCH   1  18
BRANCH   1  26
ATOM     26  C   UNL     1     -10.658  -4.582   0.521  0.00  0.00    -0.046 C 
BRANCH  26  27
ATOM     27  C   UNL     1     -11.527  -5.576  -0.253  0.00  0.00    +0.102 C 
BRANCH  27  28
ATOM     28  O   UNL     1     -11.371  -5.354  -1.656  0.00  0.00    -0.393 OA
ATOM     29  H   UNL     1     -11.626  -4.467  -1.944  0.00  0.00    +0.210 HD
ENDBRANCH  27  28
BRANCH  27  30
ATOM     30  C   UNL     1     -12.994  -5.381   0.135  0.00  0.00    +0.064 C 
BRANCH  30  31
ATOM     31  C   UNL     1     -13.835  -6.439  -0.533  0.00  0.00    -0.045 A 
ATOM     32  C   UNL     1     -14.369  -6.208  -1.786  0.00  0.00    +0.004 A 
ATOM     33  C   UNL     1     -15.141  -7.178  -2.398  0.00  0.00    +0.000 A 
ATOM     34  C   UNL     1     -15.377  -8.380  -1.757  0.00  0.00    +0.000 A 
ATOM     35  C   UNL     1     -14.841  -8.611  -0.504  0.00  0.00    +0.000 A 
ATOM     36  C   UNL     1     -14.066  -7.643   0.106  0.00  0.00    +0.004 A 
ENDBRANCH  30  31
ENDBRANCH  27  30
ENDBRANCH  26  27
ENDBRANCH   1  26
TORSDOF 11
