REMARK  Name = ZINC39455534
REMARK  11 active torsions:
REMARK  status: ('A' for Active; 'I' for Inactive)
REMARK    1  A    between atoms: C_1  and  C_2
REMARK    2  A    between atoms: C_2  and  N_3
REMARK    3  A    between atoms: C_6  and  N_9
REMARK    4  A    between atoms: C_16  and  C_21
REMARK    5  A    between atoms: C_18  and  O_19
REMARK    6  A    between atoms: O_19  and  C_20
REMARK    7  A    between atoms: C_23  and  C_35
REMARK    8  A    between atoms: C_25  and  O_33
REMARK    9  A    between atoms: C_28  and  O_31
REMARK   10  A    between atoms: O_31  and  C_32
REMARK   11  A    between atoms: O_33  and  C_34
REMARK                            x       y       z     vdW  Elec       q    Type
REMARK                         _______ _______ _______ _____ _____    ______ ____
ROOT
ATOM      1  N   UNL     1      -4.961  -2.660  -0.828  0.00  0.00    -0.292 NA
ATOM      2  C   UNL     1      -5.571  -2.181   0.410  0.00  0.00    +0.126 C 
ATOM      3  C   UNL     1      -7.076  -2.331   0.441  0.00  0.00    +0.244 C 
ATOM      4  O   UNL     1      -7.449  -3.715   0.425  0.00  0.00    -0.487 OA
ATOM      5  C   UNL     1      -7.537  -4.280  -0.811  0.00  0.00    +0.166 A 
ATOM      6  C   UNL     1      -6.394  -4.475  -1.562  0.00  0.00    +0.013 A 
ATOM      7  C   UNL     1      -6.470  -5.015  -2.828  0.00  0.00    +0.018 A 
ATOM      8  C   UNL     1      -7.711  -5.386  -3.347  0.00  0.00    +0.004 A 
ATOM      9  C   UNL     1      -8.864  -5.209  -2.584  0.00  0.00    +0.059 A 
ATOM     10  C   UNL     1      -8.779  -4.656  -1.319  0.00  0.00    +0.162 A 
ATOM     11  C   UNL     1      -5.045  -4.118  -0.969  0.00  0.00    +0.123 C 
ENDROOT
BRANCH   8  12
ATOM     12  C   UNL     1      -7.802  -5.968  -4.707  0.00  0.00    +0.072 A 
ATOM     13  C   UNL     1      -9.060  -6.331  -5.215  0.00  0.00    +0.032 A 
ATOM     14  C   UNL     1      -9.157  -6.866  -6.465  0.00  0.00    -0.036 A 
ATOM     15  C   UNL     1      -7.976  -7.039  -7.212  0.00  0.00    +0.049 A 
ATOM     16  C   UNL     1      -8.006  -7.586  -8.509  0.00  0.00    +0.130 A 
ATOM     17  C   UNL     1      -6.830  -7.739  -9.209  0.00  0.00    +0.050 A 
ATOM     18  C   UNL     1      -5.614  -7.360  -8.647  0.00  0.00    +0.051 A 
ATOM     19  C   UNL     1      -5.554  -6.827  -7.392  0.00  0.00    +0.146 A 
ATOM     20  C   UNL     1      -6.737  -6.654  -6.644  0.00  0.00    +0.117 A 
ATOM     21  N   UNL     1      -6.701  -6.129  -5.416  0.00  0.00    -0.243 NA
ATOM     22  C   UNL     1     -10.495  -7.264  -7.033  0.00  0.00    +0.044 C 
BRANCH  19  23
ATOM     23  O   UNL     1      -4.355  -6.463  -6.864  0.00  0.00    -0.493 OA
ATOM     24  C   UNL     1      -3.199  -6.667  -7.678  0.00  0.00    +0.277 C 
ENDBRANCH  19  23
BRANCH  16  25
ATOM     25  O   UNL     1      -9.188  -7.960  -9.066  0.00  0.00    -0.494 OA
ATOM     26  C   UNL     1      -9.138  -8.507 -10.386  0.00  0.00    +0.277 C 
ENDBRANCH  16  25
ENDBRANCH   8  12
BRANCH   1  30
ATOM     27  N   UNL     1      -0.812  -2.818  -1.571  0.00  0.00    +0.380 N 
ATOM     28  C   UNL     1      -1.224  -2.583  -0.182  0.00  0.00    -0.077 C 
ATOM     29  C   UNL     1      -2.681  -3.014   0.000  0.00  0.00    +0.000 C 
ATOM     30  C   UNL     1      -3.571  -2.199  -0.943  0.00  0.00    +0.054 C 
ATOM     31  C   UNL     1      -3.085  -2.393  -2.382  0.00  0.00    +0.000 C 
ATOM     32  C   UNL     1      -1.613  -1.985  -2.477  0.00  0.00    -0.077 C 
ATOM     33  H   UNL     1      -0.949  -3.791  -1.801  0.00  0.00    -0.082 HD
BRANCH  27  35
ATOM     34  C   UNL     1       1.456  -3.426  -0.874  0.00  0.00    -0.017 C 
ATOM     35  C   UNL     1       0.609  -2.476  -1.723  0.00  0.00    -0.082 C 
ENDBRANCH  27  35
ENDBRANCH   1  30
BRANCH  10  36
ATOM     36  O   UNL     1      -9.903  -4.481  -0.573  0.00  0.00    -0.491 OA
ATOM     37  C   UNL     1     -11.140  -4.890  -1.159  0.00  0.00    +0.277 C 
ENDBRANCH  10  36
TORSDOF 6
