REMARK  Name = ZINC02095794
REMARK  12 active torsions:
REMARK  status: ('A' for Active; 'I' for Inactive)
REMARK    1  A    between atoms: C_1  and  C_2
REMARK    2  A    between atoms: C_2  and  N_74
REMARK    3  A    between atoms: C_3  and  C_4
REMARK    4  A    between atoms: C_3  and  N_74
REMARK    5  A    between atoms: C_5  and  C_6
REMARK    6  A    between atoms: C_5  and  N_74
REMARK    7  A    between atoms: C_6  and  C_7
REMARK    8  A    between atoms: C_7  and  N_8
REMARK    9  A    between atoms: C_28  and  C_30
REMARK   10  A    between atoms: C_33  and  C_36
REMARK   11  A    between atoms: C_36  and  C_37
REMARK   12  A    between atoms: C_36  and  C_38
REMARK                            x       y       z     vdW  Elec       q    Type
REMARK                         _______ _______ _______ _____ _____    ______ ____
ROOT
ATOM      1  N   UNL     1      -3.356  -1.183  -2.410  0.00  0.00    -0.291 N 
ATOM      2  C   UNL     1      -3.164   0.253  -2.288  0.00  0.00    +0.203 C 
ATOM      3  C   UNL     1      -1.981   0.591  -1.440  0.00  0.00    +0.234 C 
ATOM      4  O   UNL     1      -1.709   1.763  -1.290  0.00  0.00    -0.274 OA
ATOM      5  N   UNL     1      -1.220  -0.307  -0.840  0.00  0.00    -0.276 N 
ATOM      6  C   UNL     1      -1.468  -1.748  -0.873  0.00  0.00    +0.167 C 
ATOM      7  C   UNL     1      -2.604  -2.086  -1.785  0.00  0.00    +0.237 C 
ATOM      8  O   UNL     1      -2.856  -3.259  -1.967  0.00  0.00    -0.274 OA
ATOM      9  C   UNL     1      -1.784  -2.238   0.547  0.00  0.00    +0.069 C 
ATOM     10  C   UNL     1      -0.789  -1.633   1.504  0.00  0.00    -0.015 A 
ATOM     11  C   UNL     1      -0.473  -2.052   2.854  0.00  0.00    +0.003 A 
ATOM     12  C   UNL     1      -0.953  -3.088   3.662  0.00  0.00    +0.010 A 
ATOM     13  C   UNL     1      -0.415  -3.192   4.921  0.00  0.00    +0.001 A 
ATOM     14  C   UNL     1       0.554  -2.317   5.382  0.00  0.00    +0.002 A 
ATOM     15  C   UNL     1       1.046  -1.282   4.605  0.00  0.00    +0.026 A 
ATOM     16  C   UNL     1       0.520  -1.153   3.321  0.00  0.00    +0.047 A 
ATOM     17  N   UNL     1       0.773  -0.268   2.313  0.00  0.00    -0.356 N 
ATOM     18  H   UNL     1       1.414   0.459   2.356  0.00  0.00    +0.166 HD
ATOM     19  C   UNL     1      -0.012  -0.563   1.230  0.00  0.00    +0.046 A 
ATOM     20  C   UNL     1      -0.039   0.172  -0.091  0.00  0.00    +0.154 C 
ENDROOT
BRANCH  20  21
ATOM     21  C   UNL     1      -0.153   1.655   0.151  0.00  0.00    -0.021 A 
ATOM     22  C   UNL     1       0.721   2.526  -0.472  0.00  0.00    +0.006 A 
ATOM     23  C   UNL     1       0.613   3.887  -0.254  0.00  0.00    +0.004 A 
ATOM     24  C   UNL     1      -0.362   4.376   0.595  0.00  0.00    -0.045 A 
ATOM     25  C   UNL     1      -1.233   3.505   1.222  0.00  0.00    +0.004 A 
ATOM     26  C   UNL     1      -1.128   2.144   1.000  0.00  0.00    +0.006 A 
BRANCH  24  27
ATOM     27  C   UNL     1      -0.476   5.859   0.836  0.00  0.00    +0.013 C 
ATOM     28  C   UNL     1       0.831   6.380   1.437  0.00  0.00    +0.012 C 
ATOM     29  C   UNL     1      -0.748   6.572  -0.490  0.00  0.00    +0.012 C 
ENDBRANCH  24  27
ENDBRANCH  20  21
BRANCH   1  30
ATOM     30  C   UNL     1      -4.440  -1.663  -3.271  0.00  0.00    +0.106 C 
BRANCH  30  31
ATOM     31  C   UNL     1      -5.721  -1.805  -2.446  0.00  0.00    +0.000 C 
BRANCH  31  32
ATOM     32  C   UNL     1      -6.853  -2.307  -3.345  0.00  0.00    -0.077 C 
BRANCH  32  33
ATOM     33  N   UNL     1      -8.099  -2.359  -2.552  0.00  0.00    +0.379 N 
ATOM     34  H   UNL     1      -7.886  -2.732  -1.620  0.00  0.00    -0.082 HD
BRANCH  33  36
ATOM     35  C   UNL     1      -9.818  -1.049  -1.405  0.00  0.00    -0.017 C 
ATOM     36  C   UNL     1      -8.663  -1.000  -2.408  0.00  0.00    -0.082 C 
ENDBRANCH  33  36
BRANCH  33  37
ATOM     37  C   UNL     1      -9.081  -3.246  -3.212  0.00  0.00    -0.082 C 
ATOM     38  C   UNL     1      -8.693  -4.699  -2.932  0.00  0.00    -0.017 C 
ENDBRANCH  33  37
ENDBRANCH  32  33
ENDBRANCH  31  32
ENDBRANCH  30  31
ENDBRANCH   1  30
TORSDOF 8
