REMARK  Name = ZINC39922226
REMARK  6 active torsions:
REMARK  status: ('A' for Active; 'I' for Inactive)
REMARK    1  A    between atoms: C_1  and  C_2
REMARK    2  A    between atoms: C_4  and  C_24
REMARK    3  A    between atoms: C_8  and  S_12
REMARK    4  A    between atoms: S_12  and  C_13
REMARK    5  A    between atoms: C_13  and  C_14
REMARK    6  A    between atoms: N_16  and  C_17
REMARK                            x       y       z     vdW  Elec       q    Type
REMARK                         _______ _______ _______ _____ _____    ______ ____
ROOT
ATOM      1  C   UNL     1      -0.019   1.526   0.010  0.00  0.00    +0.024 C 
ATOM      2  C   UNL     1       0.002  -0.004   0.002  0.00  0.00    +0.076 C 
ATOM      3  C   UNL     1       0.769  -0.528  -1.190  0.00  0.00    -0.045 C 
ATOM      4  C   UNL     1       1.866  -1.259  -0.955  0.00  0.00    +0.071 C 
ATOM      5  C   UNL     1       2.243  -1.498   0.456  0.00  0.00    +0.112 C 
ATOM      6  N   UNL     1       3.303  -2.204   0.753  0.00  0.00    -0.217 NA
ATOM      7  C   UNL     1       4.075  -2.729  -0.199  0.00  0.00    +0.182 C 
ATOM      8  N   UNL     1       3.833  -2.580  -1.490  0.00  0.00    -0.151 NA
ATOM      9  C   UNL     1       2.792  -1.889  -1.952  0.00  0.00    +0.272 C 
ATOM     10  O   UNL     1       2.598  -1.770  -3.151  0.00  0.00    -0.268 OA
ATOM     11  S   UNL     1       0.998  -0.657   1.404  0.00  0.00    -0.098 S 
ATOM     12  C   UNL     1       0.314  -0.238  -2.597  0.00  0.00    +0.041 C 
ENDROOT
BRANCH   7  13
ATOM     13  S   UNL     1       5.485  -3.667   0.287  0.00  0.00    -0.079 S 
BRANCH  13  14
ATOM     14  C   UNL     1       6.232  -4.182  -1.284  0.00  0.00    +0.172 C 
BRANCH  14  15
ATOM     15  C   UNL     1       7.465  -5.004  -1.008  0.00  0.00    +0.224 C 
ATOM     16  O   UNL     1       7.806  -5.221   0.135  0.00  0.00    -0.275 OA
ATOM     17  N   UNL     1       8.188  -5.498  -2.033  0.00  0.00    -0.312 N 
ATOM     18  H   UNL     1       7.915  -5.324  -2.947  0.00  0.00    +0.149 HD
BRANCH  17  19
ATOM     19  C   UNL     1       9.387  -6.296  -1.765  0.00  0.00    +0.073 C 
ATOM     20  C   UNL     1      10.584  -5.366  -1.560  0.00  0.00    +0.022 C 
ATOM     21  C   UNL     1      11.836  -6.200  -1.280  0.00  0.00    +0.002 C 
ATOM     22  C   UNL     1      12.107  -7.127  -2.467  0.00  0.00    +0.000 C 
ATOM     23  C   UNL     1      10.910  -8.057  -2.672  0.00  0.00    +0.002 C 
ATOM     24  C   UNL     1       9.658  -7.223  -2.952  0.00  0.00    +0.022 C 
ENDBRANCH  17  19
ENDBRANCH  14  15
ENDBRANCH  13  14
ENDBRANCH   7  13
TORSDOF 4
