REMARK  Name = ZINC40322424
REMARK  9 active torsions:
REMARK  status: ('A' for Active; 'I' for Inactive)
REMARK    1  A    between atoms: C_1  and  C_2
REMARK    2  A    between atoms: C_5  and  S_8
REMARK    3  A    between atoms: S_8  and  C_11
REMARK    4  A    between atoms: C_14  and  C_16
REMARK    5  A    between atoms: N_18  and  C_19
REMARK    6  A    between atoms: C_22  and  N_26
REMARK    7  A    between atoms: C_24  and  C_25
REMARK    8  A    between atoms: N_27  and  C_28
REMARK    9  A    between atoms: C_33  and  C_34
REMARK                            x       y       z     vdW  Elec       q    Type
REMARK                         _______ _______ _______ _____ _____    ______ ____
ROOT
ATOM      1  C   UNL     1       4.588  -6.463  -1.796  0.00  0.00    +0.284 C 
ATOM      2  O   UNL     1       5.431  -7.276  -1.464  0.00  0.00    -0.266 OA
ATOM      3  N   UNL     1       4.667  -5.864  -3.001  0.00  0.00    -0.279 N 
ATOM      4  H   UNL     1       3.954  -5.277  -3.299  0.00  0.00    +0.155 HD
ENDROOT
BRANCH   3   5
ATOM      5  C   UNL     1       5.774  -6.087  -3.820  0.00  0.00    +0.037 A 
ATOM      6  C   UNL     1       6.989  -6.465  -3.256  0.00  0.00    +0.026 A 
ATOM      7  C   UNL     1       8.084  -6.686  -4.060  0.00  0.00    +0.031 A 
ATOM      8  C   UNL     1       7.974  -6.530  -5.446  0.00  0.00    +0.087 A 
ATOM      9  C   UNL     1       6.751  -6.151  -6.009  0.00  0.00    +0.034 A 
ATOM     10  C   UNL     1       5.659  -5.937  -5.198  0.00  0.00    -0.027 A 
ATOM     11  C   UNL     1       4.339  -5.533  -5.804  0.00  0.00    +0.046 C 
BRANCH   8  12
ATOM     12  N   UNL     1       9.057  -6.748  -6.247  0.00  0.00    -0.149 NA
ATOM     13  N   UNL     1      10.185  -7.098  -5.726  0.00  0.00    -0.149 NA
BRANCH  13  14
ATOM     14  C   UNL     1      11.270  -7.316  -6.528  0.00  0.00    +0.089 A 
ATOM     15  C   UNL     1      11.163  -7.155  -7.913  0.00  0.00    +0.030 A 
ATOM     16  C   UNL     1      12.262  -7.376  -8.716  0.00  0.00    +0.002 A 
ATOM     17  C   UNL     1      13.469  -7.756  -8.154  0.00  0.00    +0.000 A 
ATOM     18  C   UNL     1      13.582  -7.918  -6.784  0.00  0.00    +0.005 A 
ATOM     19  C   UNL     1      12.492  -7.694  -5.968  0.00  0.00    -0.023 A 
ATOM     20  C   UNL     1      12.619  -7.864  -4.476  0.00  0.00    +0.046 C 
ENDBRANCH  13  14
ENDBRANCH   8  12
ENDBRANCH   3   5
BRANCH   1  24
ATOM     21  C   UNL     1       1.667  -5.216  -0.073  0.00  0.00    +0.246 A 
ATOM     22  C   UNL     1       2.123  -6.072   0.868  0.00  0.00    +0.070 A 
ATOM     23  C   UNL     1       3.288  -6.666   0.357  0.00  0.00    +0.056 A 
ATOM     24  C   UNL     1       3.486  -6.136  -0.886  0.00  0.00    +0.192 A 
ATOM     25  O   UNL     1       2.488  -5.261  -1.131  0.00  0.00    -0.433 OA
BRANCH  21  26
ATOM     26  S   UNL     1       0.227  -4.212   0.065  0.00  0.00    +0.058 S 
ATOM     27  O   UNL     1      -0.618  -4.842   1.018  0.00  0.00    -0.161 OA
ATOM     28  O   UNL     1      -0.199  -3.927  -1.261  0.00  0.00    -0.161 OA
BRANCH  26  33
ATOM     29  C   UNL     1       1.937   1.042   2.489  0.00  0.00    +0.044 C 
ATOM     30  C   UNL     1       1.510  -0.270   1.884  0.00  0.00    -0.050 A 
ATOM     31  C   UNL     1       1.517  -0.432   0.511  0.00  0.00    +0.005 A 
ATOM     32  C   UNL     1       1.125  -1.636  -0.044  0.00  0.00    +0.028 A 
ATOM     33  C   UNL     1       0.727  -2.678   0.773  0.00  0.00    +0.097 A 
ATOM     34  C   UNL     1       0.721  -2.515   2.146  0.00  0.00    +0.028 A 
ATOM     35  C   UNL     1       1.117  -1.313   2.701  0.00  0.00    +0.005 A 
ENDBRANCH  26  33
ENDBRANCH  21  26
ENDBRANCH   1  24
TORSDOF 6
