REMARK  Name = ZINC38613955
REMARK  7 active torsions:
REMARK  status: ('A' for Active; 'I' for Inactive)
REMARK    1  A    between atoms: C_6  and  C_7
REMARK    2  A    between atoms: C_7  and  O_8
REMARK    3  A    between atoms: O_8  and  C_9
REMARK    4  A    between atoms: C_12  and  C_15
REMARK    5  A    between atoms: C_17  and  C_21
REMARK    6  A    between atoms: N_23  and  N_24
REMARK    7  A    between atoms: C_25  and  C_26
REMARK                            x       y       z     vdW  Elec       q    Type
REMARK                         _______ _______ _______ _____ _____    ______ ____
ROOT
ATOM      1  C   UNL     1      -6.504  -3.853  -2.037  0.00  0.00    +0.092 C 
ATOM      2  C   UNL     1      -7.041  -4.171  -3.231  0.00  0.00    +0.041 C 
ATOM      3  C   UNL     1      -8.309  -4.925  -2.870  0.00  0.00    +0.240 C 
ATOM      4  N   UNL     1      -8.296  -4.918  -1.398  0.00  0.00    -0.170 NA
ATOM      5  N   UNL     1      -7.282  -4.322  -1.027  0.00  0.00    -0.153 NA
ENDROOT
BRANCH   1   9
ATOM      6  C   UNL     1      -2.875  -1.700  -1.504  0.00  0.00    +0.121 A 
ATOM      7  C   UNL     1      -3.592  -2.132  -0.397  0.00  0.00    +0.046 A 
ATOM      8  C   UNL     1      -4.769  -2.831  -0.567  0.00  0.00    +0.013 A 
ATOM      9  C   UNL     1      -5.238  -3.102  -1.851  0.00  0.00    +0.002 A 
ATOM     10  C   UNL     1      -4.516  -2.666  -2.961  0.00  0.00    +0.013 A 
ATOM     11  C   UNL     1      -3.342  -1.963  -2.784  0.00  0.00    +0.046 A 
BRANCH   6  12
ATOM     12  O   UNL     1      -1.715  -1.011  -1.334  0.00  0.00    -0.487 OA
BRANCH  12  13
ATOM     13  C   UNL     1      -1.293  -0.775   0.011  0.00  0.00    +0.264 C 
BRANCH  13  19
ATOM     14  C   UNL     1      -0.017   1.378   0.010  0.00  0.00    +0.008 A 
ATOM     15  C   UNL     1       1.171   2.086   0.002  0.00  0.00    +0.020 A 
ATOM     16  C   UNL     1       2.378   1.410  -0.013  0.00  0.00    +0.041 A 
ATOM     17  C   UNL     1       2.396   0.027  -0.021  0.00  0.00    +0.020 A 
ATOM     18  C   UNL     1       1.208  -0.679  -0.013  0.00  0.00    +0.008 A 
ATOM     19  C   UNL     1       0.002  -0.004   0.002  0.00  0.00    -0.010 A 
ATOM     20 CL   UNL     1       3.870   2.298  -0.023  0.00  0.00    -0.084 Cl
ENDBRANCH  13  19
ENDBRANCH  12  13
ENDBRANCH   6  12
ENDBRANCH   1   9
BRANCH   3  21
ATOM     21  C   UNL     1      -9.523  -4.206  -3.399  0.00  0.00    +0.263 C 
ATOM     22  O   UNL     1     -10.187  -3.511  -2.658  0.00  0.00    -0.271 OA
ATOM     23  N   UNL     1      -9.872  -4.335  -4.694  0.00  0.00    -0.205 N 
ATOM     24  H   UNL     1      -9.342  -4.891  -5.286  0.00  0.00    +0.177 HD
BRANCH  23  25
ATOM     25  N   UNL     1     -11.002  -3.667  -5.185  0.00  0.00    -0.188 NA
ATOM     26  C   UNL     1     -11.338  -3.791  -6.433  0.00  0.00    +0.139 C 
BRANCH  26  27
ATOM     27  C   UNL     1     -12.526  -3.088  -6.950  0.00  0.00    +0.013 A 
ATOM     28  C   UNL     1     -12.894  -3.225  -8.290  0.00  0.00    +0.012 A 
ATOM     29  C   UNL     1     -14.007  -2.565  -8.768  0.00  0.00    +0.021 A 
ATOM     30  C   UNL     1     -14.760  -1.767  -7.921  0.00  0.00    +0.042 A 
ATOM     31  C   UNL     1     -14.401  -1.627  -6.591  0.00  0.00    +0.040 A 
ATOM     32  C   UNL     1     -13.293  -2.286  -6.099  0.00  0.00    +0.051 A 
ATOM     33 CL   UNL     1     -12.849  -2.115  -4.429  0.00  0.00    -0.083 Cl
ATOM     34 CL   UNL     1     -16.158  -0.939  -8.531  0.00  0.00    -0.083 Cl
ENDBRANCH  26  27
ENDBRANCH  23  25
ENDBRANCH   3  21
TORSDOF 7
