REMARK  Name = ZINC32911520
REMARK  10 active torsions:
REMARK  status: ('A' for Active; 'I' for Inactive)
REMARK    1  A    between atoms: C_1  and  C_2
REMARK    2  A    between atoms: C_8  and  C_34
REMARK    3  A    between atoms: C_19  and  C_26
REMARK    4  A    between atoms: C_19  and  O_33
REMARK    5  A    between atoms: C_20  and  C_25
REMARK    6  A    between atoms: C_22  and  O_24
REMARK    7  A    between atoms: C_26  and  C_28
REMARK    8  A    between atoms: C_28  and  O_29
REMARK    9  A    between atoms: O_29  and  C_30
REMARK   10  A    between atoms: C_30  and  C_32
REMARK                            x       y       z     vdW  Elec       q    Type
REMARK                         _______ _______ _______ _____ _____    ______ ____
ROOT
ATOM      1  C   UNL     1       0.522  -0.242  -2.649  0.00  0.00    +0.040 C 
ATOM      2  C   UNL     1       1.568   0.811  -2.372  0.00  0.00    -0.059 C 
ATOM      3  C   UNL     1       1.994   1.503  -3.420  0.00  0.00    +0.050 C 
ATOM      4  C   UNL     1       3.167   2.381  -3.288  0.00  0.00    +0.179 C 
ATOM      5  O   UNL     1       3.501   3.126  -4.188  0.00  0.00    -0.288 OA
ATOM      6  C   UNL     1       3.937   2.316  -2.034  0.00  0.00    +0.051 C 
ATOM      7  C   UNL     1       3.457   1.661  -0.991  0.00  0.00    -0.056 C 
ATOM      8  C   UNL     1       2.135   0.927  -1.004  0.00  0.00    +0.016 C 
ATOM      9  C   UNL     1       1.259   1.656   0.016  0.00  0.00    +0.035 C 
ATOM     10  C   UNL     1       1.936   1.575   1.393  0.00  0.00    -0.000 C 
ATOM     11  C   UNL     1       3.270   2.337   1.358  0.00  0.00    +0.008 C 
ATOM     12  C   UNL     1       4.209   1.700   0.326  0.00  0.00    +0.032 C 
ATOM     13  C   UNL     1       1.034   2.231   2.418  0.00  0.00    +0.002 C 
ATOM     14  C   UNL     1       1.515   2.178   3.872  0.00  0.00    +0.008 C 
ATOM     15  C   UNL     1       0.209   2.378   4.686  0.00  0.00    +0.043 C 
ATOM     16  C   UNL     1      -0.963   2.016   3.742  0.00  0.00    +0.133 C 
ATOM     17  C   UNL     1      -0.302   1.457   2.479  0.00  0.00    +0.009 C 
ATOM     18  C   UNL     1      -1.026   1.728   1.180  0.00  0.00    +0.041 C 
ATOM     19  C   UNL     1      -0.187   1.212   0.000  0.00  0.00    +0.120 C 
ATOM     20  C   UNL     1      -0.089  -0.044   2.667  0.00  0.00    +0.015 C 
ATOM     21  C   UNL     1       2.397  -0.503  -0.524  0.00  0.00    +0.021 C 
ENDROOT
BRANCH  19  22
ATOM     22  O   UNL     1      -0.810   1.760  -1.181  0.00  0.00    -0.391 OA
ATOM     23  H   UNL     1      -1.871   1.558  -1.388  0.00  0.00    +0.210 HD
ENDBRANCH  19  22
BRANCH  16  24
ATOM     24  C   UNL     1      -1.837   0.964   4.374  0.00  0.00    +0.202 C 
ATOM     25  O   UNL     1      -1.380   0.221   5.209  0.00  0.00    -0.291 OA
BRANCH  24  26
ATOM     26  C   UNL     1      -3.282   0.839   3.964  0.00  0.00    +0.309 C 
BRANCH  26  27
ATOM     27  O   UNL     1      -3.906  -0.239   4.710  0.00  0.00    -0.457 OA
BRANCH  27  28
ATOM     28  C   UNL     1      -5.202  -0.483   4.461  0.00  0.00    +0.304 C 
ATOM     29  O   UNL     1      -5.796   0.183   3.646  0.00  0.00    -0.251 OA
ATOM     30  C   UNL     1      -5.916  -1.587   5.197  0.00  0.00    +0.136 C 
ENDBRANCH  27  28
ENDBRANCH  26  27
ENDBRANCH  24  26
ENDBRANCH  16  24
BRANCH  16  31
ATOM     31  O   UNL     1      -1.730   3.178   3.428  0.00  0.00    -0.380 OA
ATOM     32  H   UNL     1      -2.604   3.097   2.765  0.00  0.00    +0.211 HD
ENDBRANCH  16  31
TORSDOF 6
