REMARK  Name = ZINC08695221
REMARK  19 active torsions:
REMARK  status: ('A' for Active; 'I' for Inactive)
REMARK    1  A    between atoms: C_1  and  C_2
REMARK    2  A    between atoms: C_2  and  C_3
REMARK    3  A    between atoms: C_3  and  C_4
REMARK    4  A    between atoms: C_4  and  N_78
REMARK    5  A    between atoms: C_5  and  C_6
REMARK    6  A    between atoms: C_5  and  N_78
REMARK    7  A    between atoms: C_6  and  C_7
REMARK    8  A    between atoms: C_7  and  C_8
REMARK    9  A    between atoms: C_9  and  C_10
REMARK   10  A    between atoms: C_9  and  N_78
REMARK   11  A    between atoms: C_10  and  C_11
REMARK   12  A    between atoms: C_11  and  N_12
REMARK   13  A    between atoms: C_13  and  C_29
REMARK   14  A    between atoms: C_15  and  C_20
REMARK   15  A    between atoms: C_16  and  O_19
REMARK   16  A    between atoms: C_20  and  C_22
REMARK   17  A    between atoms: C_25  and  C_28
REMARK   18  A    between atoms: C_32  and  C_35
REMARK   19  A    between atoms: C_35  and  C_36
REMARK                            x       y       z     vdW  Elec       q    Type
REMARK                         _______ _______ _______ _____ _____    ______ ____
ROOT
ATOM      1  N   UNL     1       1.753   5.152   0.906  0.00  0.00    -0.284 N 
ATOM      2  C   UNL     1       1.958   3.984   0.040  0.00  0.00    +0.144 C 
ATOM      3  C   UNL     1       2.773   4.468  -1.137  0.00  0.00    +0.071 C 
ATOM      4  C   UNL     1       2.999   5.788  -0.939  0.00  0.00    +0.188 C 
ATOM      5  C   UNL     1       2.363   6.205   0.329  0.00  0.00    +0.282 C 
ATOM      6  O   UNL     1       2.387   7.331   0.784  0.00  0.00    -0.267 OA
ENDROOT
BRANCH   2   7
ATOM      7  C   UNL     1       0.630   3.451  -0.433  0.00  0.00    -0.022 A 
ATOM      8  C   UNL     1       0.431   2.087  -0.540  0.00  0.00    +0.006 A 
ATOM      9  C   UNL     1      -0.786   1.599  -0.975  0.00  0.00    +0.004 A 
ATOM     10  C   UNL     1      -1.803   2.474  -1.308  0.00  0.00    -0.048 A 
ATOM     11  C   UNL     1      -1.606   3.837  -1.196  0.00  0.00    +0.004 A 
ATOM     12  C   UNL     1      -0.389   4.326  -0.761  0.00  0.00    +0.006 A 
BRANCH  10  13
ATOM     13  C   UNL     1      -3.129   1.941  -1.788  0.00  0.00    +0.032 C 
ATOM     14  C   UNL     1      -4.055   1.723  -0.590  0.00  0.00    +0.009 C 
ENDBRANCH  10  13
ENDBRANCH   2   7
BRANCH   4  15
ATOM     15  O   UNL     1       3.695   6.597  -1.770  0.00  0.00    -0.502 OA
ATOM     16  H   UNL     1       3.714   7.524  -1.394  0.00  0.00    +0.292 HD
ENDBRANCH   4  15
BRANCH   3  17
ATOM     17  C   UNL     1       3.231   3.663  -2.273  0.00  0.00    +0.195 C 
ATOM     18  O   UNL     1       2.807   3.892  -3.390  0.00  0.00    -0.287 OA
BRANCH  17  19
ATOM     19  C   UNL     1       4.207   2.573  -2.062  0.00  0.00    +0.022 A 
ATOM     20  C   UNL     1       4.765   2.367  -0.798  0.00  0.00    +0.012 A 
ATOM     21  C   UNL     1       5.672   1.345  -0.607  0.00  0.00    +0.004 A 
ATOM     22  C   UNL     1       6.037   0.533  -1.666  0.00  0.00    -0.050 A 
ATOM     23  C   UNL     1       5.492   0.735  -2.922  0.00  0.00    +0.004 A 
ATOM     24  C   UNL     1       4.580   1.750  -3.126  0.00  0.00    +0.012 A 
ATOM     25  C   UNL     1       7.033  -0.578  -1.450  0.00  0.00    +0.044 C 
ENDBRANCH  17  19
ENDBRANCH   3  17
BRANCH   1  26
ATOM     26  C   UNL     1       1.016   5.168   2.172  0.00  0.00    +0.107 C 
BRANCH  26  27
ATOM     27  C   UNL     1       1.974   4.859   3.324  0.00  0.00    +0.000 C 
BRANCH  27  28
ATOM     28  C   UNL     1       1.205   4.875   4.646  0.00  0.00    -0.077 C 
BRANCH  28  29
ATOM     29  N   UNL     1       2.111   4.435   5.727  0.00  0.00    +0.380 N 
ATOM     30  H   UNL     1       2.655   3.628   5.399  0.00  0.00    -0.082 HD
BRANCH  29  31
ATOM     31  C   UNL     1       3.040   5.528   6.085  0.00  0.00    -0.079 C 
BRANCH  31  32
ATOM     32  C   UNL     1       4.103   4.980   7.038  0.00  0.00    -0.019 C 
BRANCH  32  34
ATOM     33  C   UNL     1       6.150   5.546   8.354  0.00  0.00    +0.004 C 
ATOM     34  C   UNL     1       5.086   6.095   7.401  0.00  0.00    -0.005 C 
ENDBRANCH  32  34
ENDBRANCH  31  32
ENDBRANCH  29  31
BRANCH  29  35
ATOM     35  C   UNL     1       1.325   4.032   6.912  0.00  0.00    -0.079 C 
BRANCH  35  36
ATOM     36  C   UNL     1       0.703   2.660   6.646  0.00  0.00    -0.019 C 
BRANCH  36  37
ATOM     37  C   UNL     1      -0.185   2.264   7.827  0.00  0.00    -0.005 C 
ATOM     38  C   UNL     1      -0.806   0.891   7.561  0.00  0.00    +0.004 C 
ENDBRANCH  36  37
ENDBRANCH  35  36
ENDBRANCH  29  35
ENDBRANCH  28  29
ENDBRANCH  27  28
ENDBRANCH  26  27
ENDBRANCH   1  26
TORSDOF 15
