REMARK  Name = ZINC39863580
REMARK  6 active torsions:
REMARK  status: ('A' for Active; 'I' for Inactive)
REMARK    1  A    between atoms: C_1  and  C_2
REMARK    2  A    between atoms: C_6  and  N_8
REMARK    3  A    between atoms: N_10  and  C_25
REMARK    4  A    between atoms: C_14  and  C_15
REMARK    5  A    between atoms: C_15  and  C_23
REMARK    6  A    between atoms: C_16  and  C_17
REMARK                            x       y       z     vdW  Elec       q    Type
REMARK                         _______ _______ _______ _____ _____    ______ ____
ROOT
ATOM      1  N   UNL     1       1.484  -2.982   1.722  0.00  0.00    -0.206 NA
ATOM      2  C   UNL     1       1.422  -2.536   2.959  0.00  0.00    +0.174 C 
ATOM      3  N   UNL     1       1.457  -1.231   3.402  0.00  0.00    -0.214 N 
ATOM      4  C   UNL     1       1.383  -0.957   4.694  0.00  0.00    +0.263 C 
ATOM      5  O   UNL     1       1.413   0.190   5.103  0.00  0.00    -0.269 OA
ATOM      6  C   UNL     1       1.263  -2.099   5.615  0.00  0.00    +0.078 C 
ATOM      7  C   UNL     1       1.170  -2.108   6.976  0.00  0.00    +0.023 C 
ATOM      8  S   UNL     1       1.264  -3.472   4.471  0.00  0.00    -0.048 S 
ENDROOT
BRANCH   1  14
ATOM      9  C   UNL     1       4.269  -0.479  -1.232  0.00  0.00    +0.065 C 
ATOM     10  C   UNL     1       2.893  -0.877  -0.764  0.00  0.00    +0.041 A 
ATOM     11  C   UNL     1       1.781  -0.347  -1.390  0.00  0.00    +0.023 A 
ATOM     12  C   UNL     1       0.513  -0.715  -0.957  0.00  0.00    +0.005 A 
ATOM     13  C   UNL     1       0.406  -1.605   0.094  0.00  0.00    +0.048 A 
ATOM     14  C   UNL     1       1.572  -2.103   0.684  0.00  0.00    +0.155 A 
ATOM     15  N   UNL     1       2.767  -1.728   0.235  0.00  0.00    -0.233 NA
ENDBRANCH   1  14
BRANCH   3  16
ATOM     16  C   UNL     1       1.573  -0.186   2.476  0.00  0.00    +0.043 A 
ATOM     17  C   UNL     1       0.434   0.390   1.932  0.00  0.00    +0.024 A 
ATOM     18  C   UNL     1       0.551   1.420   1.019  0.00  0.00    +0.002 A 
ATOM     19  C   UNL     1       1.802   1.877   0.647  0.00  0.00    +0.000 A 
ATOM     20  C   UNL     1       2.939   1.305   1.188  0.00  0.00    +0.002 A 
ATOM     21  C   UNL     1       2.828   0.278   2.105  0.00  0.00    +0.024 A 
ENDBRANCH   3  16
BRANCH   7  22
ATOM     22  C   UNL     1       1.006  -3.326   7.664  0.00  0.00    -0.049 C 
ATOM     23  C   UNL     1       1.032  -3.349   9.018  0.00  0.00    +0.011 C 
ATOM     24  C   UNL     1       0.803  -4.605   6.893  0.00  0.00    +0.044 C 
BRANCH  23  25
ATOM     25  C   UNL     1       0.998  -4.633   9.733  0.00  0.00    -0.025 A 
ATOM     26  C   UNL     1       1.599  -5.766   9.173  0.00  0.00    +0.008 A 
ATOM     27  C   UNL     1       1.562  -6.967   9.850  0.00  0.00    +0.001 A 
ATOM     28  C   UNL     1       0.932  -7.053  11.079  0.00  0.00    +0.000 A 
ATOM     29  C   UNL     1       0.335  -5.937  11.640  0.00  0.00    +0.001 A 
ATOM     30  C   UNL     1       0.369  -4.728  10.979  0.00  0.00    +0.008 A 
ENDBRANCH  23  25
ENDBRANCH   7  22
TORSDOF 4
