REMARK  Name = ZINC06045234
REMARK  3 active torsions:
REMARK  status: ('A' for Active; 'I' for Inactive)
REMARK    1  A    between atoms: N_10  and  N_11
REMARK    2  A    between atoms: C_12  and  C_14
REMARK    3  A    between atoms: C_16  and  C_24
REMARK                            x       y       z     vdW  Elec       q    Type
REMARK                         _______ _______ _______ _____ _____    ______ ____
ROOT
ATOM      1  C   UNL     1       5.606  -0.673  -0.054  0.00  0.00    +0.050 A 
ATOM      2  C   UNL     1       4.220  -0.627  -0.055  0.00  0.00    +0.045 A 
ATOM      3  C   UNL     1       3.571   0.619  -0.042  0.00  0.00    +0.107 A 
ATOM      4  N   UNL     1       4.236   1.758  -0.035  0.00  0.00    -0.244 NA
ATOM      5  C   UNL     1       5.569   1.806  -0.028  0.00  0.00    +0.073 A 
ATOM      6  C   UNL     1       6.321   0.604  -0.040  0.00  0.00    +0.013 A 
ATOM      7  C   UNL     1       7.719   0.658  -0.038  0.00  0.00    +0.011 A 
ATOM      8  C   UNL     1       8.346   1.869  -0.024  0.00  0.00    +0.001 A 
ATOM      9  C   UNL     1       7.612   3.053  -0.012  0.00  0.00    +0.002 A 
ATOM     10  C   UNL     1       6.251   3.036  -0.014  0.00  0.00    +0.028 A 
ENDROOT
BRANCH   3  11
ATOM     11  C   UNL     1       2.096   0.655  -0.044  0.00  0.00    +0.153 A 
ATOM     12  C   UNL     1       1.323   1.776  -0.032  0.00  0.00    +0.051 A 
ATOM     13  C   UNL     1      -0.016   1.345  -0.038  0.00  0.00    +0.042 A 
ATOM     14  C   UNL     1       0.002  -0.004  -0.054  0.00  0.00    +0.196 A 
ATOM     15  O   UNL     1       1.279  -0.417  -0.057  0.00  0.00    -0.461 OA
ENDBRANCH   3  11
BRANCH   1  17
ATOM     16  N   UNL     1       5.652  -3.119   0.037  0.00  0.00    -0.203 N 
ATOM     17  C   UNL     1       6.332  -1.960  -0.066  0.00  0.00    +0.264 C 
ATOM     18  O   UNL     1       7.544  -1.974  -0.170  0.00  0.00    -0.268 OA
ATOM     19  H   UNL     1       4.685  -3.108   0.120  0.00  0.00    +0.178 HD
BRANCH  16  29
ATOM     20  C   UNL     1       6.942  -9.502   0.177  0.00  0.00    +0.000 A 
ATOM     21  C   UNL     1       7.937  -8.548   0.056  0.00  0.00    +0.001 A 
ATOM     22  C   UNL     1       7.613  -7.209   0.030  0.00  0.00    +0.010 A 
ATOM     23  C   UNL     1       6.273  -6.808   0.128  0.00  0.00    +0.001 A 
ATOM     24  C   UNL     1       5.278  -7.776   0.251  0.00  0.00    -0.038 A 
ATOM     25  C   UNL     1       5.618  -9.116   0.275  0.00  0.00    +0.004 A 
ATOM     26  C   UNL     1       3.927  -7.106   0.340  0.00  0.00    +0.042 C 
ATOM     27  C   UNL     1       4.188  -5.595   0.265  0.00  0.00    +0.062 C 
ATOM     28  C   UNL     1       5.685  -5.455   0.125  0.00  0.00    +0.067 C 
ATOM     29  N   UNL     1       6.340  -4.339   0.026  0.00  0.00    -0.184 NA
ENDBRANCH  16  29
ENDBRANCH   1  17
TORSDOF 3
