REMARK  Name = ZINC32446731
REMARK  10 active torsions:
REMARK  status: ('A' for Active; 'I' for Inactive)
REMARK    1  A    between atoms: C_1  and  C_2
REMARK    2  A    between atoms: C_2  and  C_3
REMARK    3  A    between atoms: C_3  and  C_5
REMARK    4  A    between atoms: C_3  and  N_24
REMARK    5  A    between atoms: C_5  and  N_6
REMARK    6  A    between atoms: C_7  and  C_9
REMARK    7  A    between atoms: C_10  and  C_23
REMARK    8  A    between atoms: N_12  and  C_15
REMARK    9  A    between atoms: C_15  and  C_16
REMARK   10  A    between atoms: C_19  and  C_22
REMARK                            x       y       z     vdW  Elec       q    Type
REMARK                         _______ _______ _______ _____ _____    ______ ____
ROOT
ATOM      1  N   UNL     1       2.368  -3.028   0.380  0.00  0.00    -0.313 N 
ATOM      2  C   UNL     1       2.100  -2.880  -0.933  0.00  0.00    +0.249 C 
ATOM      3  O   UNL     1       2.235  -3.822  -1.691  0.00  0.00    -0.270 OA
ATOM      4  H   UNL     1       2.247  -2.177   1.065  0.00  0.00    +0.149 HD
ENDROOT
BRANCH   2   5
ATOM      5  C   UNL     1       1.645  -1.578  -1.449  0.00  0.00    +0.096 A 
ATOM      6  C   UNL     1       0.306  -1.139  -1.558  0.00  0.00    +0.074 A 
ATOM      7  N   UNL     1       0.314   0.064  -2.060  0.00  0.00    -0.174 NA
ATOM      8  N   UNL     1       1.639   0.450  -2.294  0.00  0.00    -0.248 N 
ATOM      9  C   UNL     1       2.448  -0.555  -1.920  0.00  0.00    +0.140 A 
ATOM     10 CL   UNL     1       4.181  -0.568  -2.012  0.00  0.00    -0.062 Cl
ATOM     11  C   UNL     1      -0.918  -1.926  -1.163  0.00  0.00    +0.068 C 
BRANCH   8  12
ATOM     12  C   UNL     1       2.070   1.734  -2.853  0.00  0.00    +0.180 C 
BRANCH  12  13
ATOM     13  C   UNL     1       2.291   2.719  -1.734  0.00  0.00    -0.026 A 
ATOM     14  C   UNL     1       1.252   3.524  -1.307  0.00  0.00    +0.006 A 
ATOM     15  C   UNL     1       1.454   4.425  -0.278  0.00  0.00    +0.004 A 
ATOM     16  C   UNL     1       2.697   4.528   0.317  0.00  0.00    -0.050 A 
ATOM     17  C   UNL     1       3.738   3.727  -0.115  0.00  0.00    +0.004 A 
ATOM     18  C   UNL     1       3.535   2.823  -1.140  0.00  0.00    +0.006 A 
ATOM     19  C   UNL     1       2.919   5.513   1.435  0.00  0.00    +0.044 C 
ENDBRANCH  12  13
ENDBRANCH   8  12
ENDBRANCH   2   5
BRANCH   1  20
ATOM     20  C   UNL     1       2.821  -4.323   0.894  0.00  0.00    +0.089 C 
BRANCH  20  21
ATOM     21  C   UNL     1       3.166  -4.191   2.378  0.00  0.00    -0.051 C 
BRANCH  21  22
ATOM     22  N   UNL     1       2.007  -3.656   3.105  0.00  0.00    +0.385 N 
ATOM     23  C   UNL     1       2.415  -3.068   4.390  0.00  0.00    -0.073 C 
ATOM     24  C   UNL     1       1.262  -2.217   4.923  0.00  0.00    +0.017 C 
ATOM     25  C   UNL     1      -0.017  -3.013   4.901  0.00  0.00    -0.048 A 
ATOM     26  C   UNL     1      -1.089  -2.562   5.657  0.00  0.00    +0.004 A 
ATOM     27  C   UNL     1      -2.282  -3.256   5.658  0.00  0.00    +0.000 A 
ATOM     28  C   UNL     1      -2.409  -4.407   4.903  0.00  0.00    +0.000 A 
ATOM     29  C   UNL     1      -1.342  -4.858   4.152  0.00  0.00    +0.002 A 
ATOM     30  C   UNL     1      -0.141  -4.162   4.151  0.00  0.00    -0.061 A 
ATOM     31  C   UNL     1       0.996  -4.696   3.320  0.00  0.00    -0.042 C 
ATOM     32  H   UNL     1       1.560  -2.865   2.484  0.00  0.00    -0.081 HD
ENDBRANCH  21  22
BRANCH  21  34
ATOM     33  C   UNL     1       4.010  -5.413   4.387  0.00  0.00    +0.002 C 
ATOM     34  C   UNL     1       3.531  -5.566   2.942  0.00  0.00    -0.017 C 
ENDBRANCH  21  34
ENDBRANCH  20  21
ENDBRANCH   1  20
TORSDOF 7
