REMARK  Name = ZINC63676472
REMARK  9 active torsions:
REMARK  status: ('A' for Active; 'I' for Inactive)
REMARK    1  A    between atoms: C_1  and  C_2
REMARK    2  A    between atoms: C_5  and  S_8
REMARK    3  A    between atoms: S_8  and  N_11
REMARK    4  A    between atoms: C_15  and  C_17
REMARK    5  A    between atoms: C_17  and  N_18
REMARK    6  A    between atoms: C_19  and  C_21
REMARK    7  A    between atoms: N_23  and  C_24
REMARK    8  A    between atoms: C_24  and  C_25
REMARK    9  A    between atoms: C_25  and  C_26
REMARK                            x       y       z     vdW  Elec       q    Type
REMARK                         _______ _______ _______ _____ _____    ______ ____
ROOT
ATOM      1  N   UNL     1       3.162  -2.901   1.213  0.00  0.00    -0.304 N 
ATOM      2  C   UNL     1       3.332  -1.687   1.772  0.00  0.00    +0.299 C 
ATOM      3  O   UNL     1       3.011  -1.500   2.927  0.00  0.00    -0.265 OA
ATOM      4  H   UNL     1       3.418  -3.050   0.289  0.00  0.00    +0.149 HD
ENDROOT
BRANCH   2   5
ATOM      5  C   UNL     1       3.915  -0.570   0.968  0.00  0.00    +0.299 C 
ATOM      6  O   UNL     1       4.235  -0.756  -0.187  0.00  0.00    -0.265 OA
ATOM      7  N   UNL     1       4.085   0.645   1.527  0.00  0.00    -0.307 N 
ATOM      8  H   UNL     1       3.829   0.794   2.451  0.00  0.00    +0.149 HD
BRANCH   7   9
ATOM      9  C   UNL     1       4.656   1.740   0.740  0.00  0.00    +0.109 C 
BRANCH   9  10
ATOM     10  C   UNL     1       4.740   3.000   1.604  0.00  0.00    +0.052 C 
BRANCH  10  11
ATOM     11  C   UNL     1       5.329   4.126   0.794  0.00  0.00    -0.040 C 
ATOM     12  C   UNL     1       4.651   5.080   0.116  0.00  0.00    -0.001 A 
ATOM     13  C   UNL     1       3.218   5.344  -0.065  0.00  0.00    +0.010 A 
ATOM     14  C   UNL     1       2.835   6.399  -0.818  0.00  0.00    +0.001 A 
ATOM     15  C   UNL     1       3.770   7.246  -1.430  0.00  0.00    +0.002 A 
ATOM     16  C   UNL     1       5.103   7.068  -1.310  0.00  0.00    +0.026 A 
ATOM     17  C   UNL     1       5.617   5.989  -0.540  0.00  0.00    +0.043 A 
ATOM     18  N   UNL     1       6.845   5.612  -0.278  0.00  0.00    -0.380 N 
ATOM     19  C   UNL     1       6.796   4.423   0.580  0.00  0.00    +0.144 C 
ATOM     20  H   UNL     1       7.652   6.048  -0.595  0.00  0.00    +0.160 HD
ENDBRANCH  10  11
ENDBRANCH   9  10
ENDBRANCH   7   9
ENDBRANCH   2   5
BRANCH   1  21
ATOM     21  C   UNL     1       2.590  -3.997   2.000  0.00  0.00    +0.154 C 
BRANCH  21  26
ATOM     22  N   UNL     1       1.651  -4.999  -0.034  0.00  0.00    -0.145 NA
ATOM     23  C   UNL     1       2.499  -5.239  -1.223  0.00  0.00    +0.140 C 
ATOM     24  C   UNL     1       3.623  -6.146  -0.664  0.00  0.00    +0.179 C 
ATOM     25  O   UNL     1       3.816  -5.615   0.667  0.00  0.00    -0.357 OA
ATOM     26  C   UNL     1       2.506  -5.256   1.136  0.00  0.00    +0.226 C 
BRANCH  22  27
ATOM     27  S   UNL     1       0.063  -4.530  -0.023  0.00  0.00    +0.063 S 
ATOM     28  O   UNL     1      -0.476  -4.950   1.223  0.00  0.00    -0.153 OA
ATOM     29  O   UNL     1      -0.490  -4.937  -1.267  0.00  0.00    -0.153 OA
BRANCH  27  34
ATOM     30  C   UNL     1      -0.018   1.503   0.010  0.00  0.00    +0.044 C 
ATOM     31  C   UNL     1       0.002  -0.004   0.002  0.00  0.00    -0.050 A 
ATOM     32  C   UNL     1       0.006  -0.689  -1.199  0.00  0.00    +0.005 A 
ATOM     33  C   UNL     1       0.025  -2.071  -1.206  0.00  0.00    +0.029 A 
ATOM     34  C   UNL     1       0.040  -2.768  -0.013  0.00  0.00    +0.106 A 
ATOM     35  C   UNL     1       0.037  -2.084   1.188  0.00  0.00    +0.029 A 
ATOM     36  C   UNL     1       0.023  -0.702   1.195  0.00  0.00    +0.005 A 
ENDBRANCH  27  34
ENDBRANCH  22  27
ENDBRANCH  21  26
ENDBRANCH   1  21
TORSDOF 8
