REMARK  Name = ZINC10058575
REMARK  11 active torsions:
REMARK  status: ('A' for Active; 'I' for Inactive)
REMARK    1  A    between atoms: C_1  and  C_2
REMARK    2  A    between atoms: C_2  and  C_4
REMARK    3  A    between atoms: C_2  and  S_15
REMARK    4  A    between atoms: N_6  and  C_7
REMARK    5  A    between atoms: C_7  and  C_13
REMARK    6  A    between atoms: S_15  and  C_16
REMARK    7  A    between atoms: N_29  and  C_30
REMARK    8  A    between atoms: C_30  and  C_31
REMARK    9  A    between atoms: C_31  and  C_32
REMARK   10  A    between atoms: C_32  and  C_33
REMARK   11  A    between atoms: C_32  and  C_34
REMARK                            x       y       z     vdW  Elec       q    Type
REMARK                         _______ _______ _______ _____ _____    ______ ____
ROOT
ATOM      1  C   UNL     1       2.533  -0.042   1.241  0.00  0.00    +0.198 A 
ATOM      2  N   UNL     1       2.974   0.655   0.223  0.00  0.00    -0.120 NA
ATOM      3  N   UNL     1       4.339   0.897   0.421  0.00  0.00    -0.109 NA
ATOM      4  C   UNL     1       4.692   0.339   1.558  0.00  0.00    +0.240 A 
ATOM      5  N   UNL     1       3.581  -0.251   2.096  0.00  0.00    -0.256 N 
ATOM      6  C   UNL     1       3.656  -0.921   3.316  0.00  0.00    +0.064 A 
ATOM      7  C   UNL     1       2.537  -1.526   3.868  0.00  0.00    +0.027 A 
ATOM      8  C   UNL     1       2.638  -2.184   5.078  0.00  0.00    +0.002 A 
ATOM      9  C   UNL     1       3.850  -2.245   5.748  0.00  0.00    +0.001 A 
ATOM     10  C   UNL     1       4.973  -1.649   5.213  0.00  0.00    +0.015 A 
ATOM     11  C   UNL     1       4.883  -0.982   3.992  0.00  0.00    +0.064 A 
ATOM     12  C   UNL     1       6.060  -0.332   3.387  0.00  0.00    +0.263 A 
ATOM     13  O   UNL     1       7.141  -0.365   3.945  0.00  0.00    -0.267 OA
ATOM     14  N   UNL     1       5.920   0.291   2.200  0.00  0.00    -0.277 N 
ENDROOT
BRANCH   1  15
ATOM     15  S   UNL     1       0.879  -0.605   1.472  0.00  0.00    -0.073 S 
BRANCH  15  17
ATOM     16  C   UNL     1      -0.019   1.526   0.010  0.00  0.00    +0.029 C 
ATOM     17  C   UNL     1       0.002  -0.004   0.002  0.00  0.00    +0.137 C 
BRANCH  17  18
ATOM     18  C   UNL     1      -1.412  -0.526   0.013  0.00  0.00    +0.227 C 
ATOM     19  O   UNL     1      -1.939  -0.827   1.062  0.00  0.00    -0.275 OA
ATOM     20  N   UNL     1      -2.090  -0.657  -1.144  0.00  0.00    -0.296 N 
ATOM     21  H   UNL     1      -1.669  -0.416  -1.984  0.00  0.00    +0.150 HD
BRANCH  20  22
ATOM     22  C   UNL     1      -3.465  -1.164  -1.134  0.00  0.00    +0.121 C 
ATOM     23  C   UNL     1      -3.485  -2.571  -0.532  0.00  0.00    +0.041 C 
ATOM     24  C   UNL     1      -4.920  -3.100  -0.521  0.00  0.00    +0.003 C 
ATOM     25  C   UNL     1      -5.456  -3.151  -1.953  0.00  0.00    +0.000 C 
ATOM     26  C   UNL     1      -5.436  -1.745  -2.555  0.00  0.00    +0.003 C 
ATOM     27  C   UNL     1      -4.000  -1.215  -2.566  0.00  0.00    +0.041 C 
BRANCH  22  28
ATOM     28  C   UNL     1      -4.311  -0.272  -0.325  0.00  0.00    +0.088 C 
ATOM     29  N   UNL     1      -4.964   0.417   0.299  0.00  0.00    -0.194 NA
ENDBRANCH  22  28
ENDBRANCH  20  22
ENDBRANCH  17  18
ENDBRANCH  15  17
ENDBRANCH   1  15
BRANCH  14  30
ATOM     30  C   UNL     1       7.080   0.944   1.587  0.00  0.00    +0.128 C 
BRANCH  30  31
ATOM     31  C   UNL     1       7.166   2.392   2.072  0.00  0.00    +0.025 C 
BRANCH  31  32
ATOM     32  C   UNL     1       8.377   3.073   1.432  0.00  0.00    -0.016 C 
ATOM     33  C   UNL     1       8.170   3.165  -0.081  0.00  0.00    +0.007 C 
ATOM     34  C   UNL     1       8.536   4.480   2.011  0.00  0.00    +0.007 C 
ENDBRANCH  31  32
ENDBRANCH  30  31
ENDBRANCH  14  30
TORSDOF 8
