REMARK  Name = ZINC65742867
REMARK  11 active torsions:
REMARK  status: ('A' for Active; 'I' for Inactive)
REMARK    1  A    between atoms: C_1  and  N_2
REMARK    2  A    between atoms: N_2  and  C_3
REMARK    3  A    between atoms: C_3  and  C_4
REMARK    4  A    between atoms: C_4  and  C_5
REMARK    5  A    between atoms: C_5  and  N_6
REMARK    6  A    between atoms: C_19  and  O_21
REMARK    7  A    between atoms: O_21  and  C_22
REMARK    8  A    between atoms: C_24  and  O_38
REMARK    9  A    between atoms: C_26  and  O_37
REMARK   10  A    between atoms: C_28  and  O_36
REMARK   11  A    between atoms: C_30  and  C_33
REMARK                            x       y       z     vdW  Elec       q    Type
REMARK                         _______ _______ _______ _____ _____    ______ ____
ROOT
ATOM      1  N   UNL     1      -2.768  -4.032   0.127  0.00  0.00    -0.300 N 
ATOM      2  C   UNL     1      -2.691  -4.783  -1.039  0.00  0.00    +0.037 A 
ATOM      3  C   UNL     1      -1.759  -4.342  -1.987  0.00  0.00    +0.024 A 
ATOM      4  C   UNL     1      -1.576  -5.022  -3.169  0.00  0.00    +0.002 A 
ATOM      5  C   UNL     1      -2.324  -6.159  -3.418  0.00  0.00    +0.000 A 
ATOM      6  C   UNL     1      -3.247  -6.589  -2.494  0.00  0.00    +0.005 A 
ATOM      7  C   UNL     1      -3.455  -5.899  -1.296  0.00  0.00    -0.026 A 
ATOM      8  C   UNL     1      -4.550  -6.472  -0.431  0.00  0.00    +0.042 C 
ATOM      9  C   UNL     1      -5.003  -5.565   0.686  0.00  0.00    +0.042 C 
ATOM     10  C   UNL     1      -3.931  -5.346   1.710  0.00  0.00    -0.022 A 
ATOM     11  C   UNL     1      -2.819  -4.600   1.400  0.00  0.00    +0.037 A 
ATOM     12  C   UNL     1      -1.794  -4.412   2.317  0.00  0.00    +0.027 A 
ATOM     13  C   UNL     1      -1.905  -4.974   3.576  0.00  0.00    +0.047 A 
ATOM     14  C   UNL     1      -3.031  -5.713   3.907  0.00  0.00    +0.124 A 
ATOM     15  C   UNL     1      -4.055  -5.903   2.973  0.00  0.00    +0.051 A 
ENDROOT
BRANCH   1  16
ATOM     16  C   UNL     1      -2.791  -2.572   0.015  0.00  0.00    +0.109 C 
BRANCH  16  17
ATOM     17  C   UNL     1      -4.240  -2.081   0.038  0.00  0.00    +0.000 C 
BRANCH  17  18
ATOM     18  C   UNL     1      -4.260  -0.551   0.036  0.00  0.00    -0.081 C 
BRANCH  18  20
ATOM     19  C   UNL     1      -5.671   1.389   0.056  0.00  0.00    -0.101 C 
ATOM     20  N   UNL     1      -5.651  -0.080   0.058  0.00  0.00    +0.377 N 
ATOM     21  H   UNL     1      -6.109  -0.421   0.890  0.00  0.00    -0.086 HD
ATOM     22  H   UNL     1      -6.136  -0.424  -0.757  0.00  0.00    -0.086 HD
ENDBRANCH  18  20
ENDBRANCH  17  18
ENDBRANCH  16  17
ENDBRANCH   1  16
BRANCH  14  23
ATOM     23  O   UNL     1      -3.143  -6.255   5.150  0.00  0.00    -0.461 OA
BRANCH  23  24
ATOM     24  C   UNL     1      -2.064  -6.023   6.058  0.00  0.00    +0.340 C 
ATOM     25  C   UNL     1      -2.421  -6.598   7.431  0.00  0.00    +0.214 C 
ATOM     26  C   UNL     1      -2.608  -8.114   7.309  0.00  0.00    +0.180 C 
ATOM     27  C   UNL     1      -1.328  -8.729   6.735  0.00  0.00    +0.186 C 
ATOM     28  C   UNL     1      -1.013  -8.072   5.389  0.00  0.00    +0.266 C 
ATOM     29  O   UNL     1      -0.883  -6.660   5.569  0.00  0.00    -0.322 OA
BRANCH  28  30
ATOM     30  C   UNL     1       0.277  -8.631   4.846  0.00  0.00    +0.387 C 
ATOM     31  O   UNL     1       0.348  -9.807   4.535  0.00  0.00    -0.243 OA
ATOM     32  O   UNL     1       1.249  -7.906   4.718  0.00  0.00    -0.243 OA
ENDBRANCH  28  30
BRANCH  27  33
ATOM     33  O   UNL     1      -0.244  -8.509   7.641  0.00  0.00    -0.386 OA
ATOM     34  H   UNL     1       0.600  -8.873   7.340  0.00  0.00    +0.210 HD
ENDBRANCH  27  33
BRANCH  26  35
ATOM     35  O   UNL     1      -2.871  -8.669   8.599  0.00  0.00    -0.386 OA
ATOM     36  H   UNL     1      -2.999  -9.627   8.596  0.00  0.00    +0.210 HD
ENDBRANCH  26  35
BRANCH  25  37
ATOM     37  O   UNL     1      -3.634  -6.003   7.898  0.00  0.00    -0.383 OA
ATOM     38  H   UNL     1      -3.588  -5.042   7.995  0.00  0.00    +0.210 HD
ENDBRANCH  25  37
ENDBRANCH  23  24
ENDBRANCH  14  23
TORSDOF 10
