REMARK  Name = ZINC39467572
REMARK  7 active torsions:
REMARK  status: ('A' for Active; 'I' for Inactive)
REMARK    1  A    between atoms: C_1  and  S_2
REMARK    2  A    between atoms: S_2  and  C_3
REMARK    3  A    between atoms: C_15  and  S_16
REMARK    4  A    between atoms: S_16  and  O_19
REMARK    5  A    between atoms: O_19  and  C_20
REMARK    6  A    between atoms: P_28  and  C_31
REMARK    7  A    between atoms: C_36  and  O_37
REMARK                            x       y       z     vdW  Elec       q    Type
REMARK                         _______ _______ _______ _____ _____    ______ ____
ROOT
ATOM      1  C   UNL     1      -1.702  -0.454   0.016  0.00  0.00    +0.032 C 
ATOM      2  C   UNL     1      -2.651   0.492   0.024  0.00  0.00    -0.008 C 
ATOM      3  C   UNL     1      -4.099   0.084   0.048  0.00  0.00    +0.005 C 
ATOM      4  C   UNL     1      -4.963   1.203   0.612  0.00  0.00    -0.046 C 
ATOM      5  N   UNL     1      -4.594   1.509   2.004  0.00  0.00    +0.398 N 
ATOM      6  C   UNL     1      -4.787   0.330   2.852  0.00  0.00    -0.020 C 
ATOM      7  C   UNL     1      -3.915  -0.828   2.352  0.00  0.00    -0.003 C 
ATOM      8  C   UNL     1      -4.267  -1.162   0.922  0.00  0.00    +0.018 C 
ATOM      9  C   UNL     1      -3.305  -2.224   0.448  0.00  0.00    +0.008 C 
ATOM     10  C   UNL     1      -2.098  -1.876   0.012  0.00  0.00    +0.137 C 
ATOM     11  C   UNL     1      -4.373   0.605   4.303  0.00  0.00    +0.157 C 
ATOM     12  O   UNL     1      -5.194   1.655   4.846  0.00  0.00    -0.316 OA
ATOM     13  P   UNL     1      -5.339   3.024   3.979  0.00  0.00    +0.291 P 
ATOM     14  O   UNL     1      -4.154   3.888   4.183  0.00  0.00    -0.269 OA
ATOM     15  N   UNL     1      -5.429   2.531   2.402  0.00  0.00    -0.288 NA
ATOM     16  H   UNL     1      -6.043   2.948   1.777  0.00  0.00    +0.111 HD
ATOM     17  H   UNL     1      -3.635   1.818   2.042  0.00  0.00    -0.055 HD
ENDROOT
BRANCH  13  18
ATOM     18  C   UNL     1      -6.850   3.910   4.449  0.00  0.00    +0.091 A 
ATOM     19  C   UNL     1      -8.038   3.648   3.793  0.00  0.00    +0.018 A 
ATOM     20  C   UNL     1      -9.190   4.323   4.151  0.00  0.00    +0.001 A 
ATOM     21  C   UNL     1      -9.158   5.261   5.166  0.00  0.00    +0.004 A 
ATOM     22  C   UNL     1      -7.973   5.527   5.825  0.00  0.00    +0.046 A 
ATOM     23  C   UNL     1      -6.816   4.847   5.472  0.00  0.00    +0.131 A 
BRANCH  23  24
ATOM     24  O   UNL     1      -5.651   5.102   6.123  0.00  0.00    -0.506 OA
ATOM     25  H   UNL     1      -5.125   5.809   5.725  0.00  0.00    +0.292 HD
ENDBRANCH  23  24
ENDBRANCH  13  18
BRANCH  10  26
ATOM     26  S   UNL     1      -0.973  -3.105  -0.561  0.00  0.00    +0.152 S 
ATOM     27  O   UNL     1       0.294  -2.789  -0.001  0.00  0.00    -0.131 OA
ATOM     28  O   UNL     1      -1.605  -4.362  -0.356  0.00  0.00    -0.131 OA
BRANCH  26  29
ATOM     29  O   UNL     1      -0.840  -2.926  -2.067  0.00  0.00    -0.342 OA
BRANCH  29  30
ATOM     30  C   UNL     1      -0.083  -1.858  -2.431  0.00  0.00    +0.157 A 
ATOM     31  C   UNL     1      -0.676  -0.617  -2.617  0.00  0.00    +0.048 A 
ATOM     32  C   UNL     1       0.096   0.467  -2.987  0.00  0.00    +0.004 A 
ATOM     33  C   UNL     1       1.458   0.317  -3.173  0.00  0.00    +0.000 A 
ATOM     34  C   UNL     1       2.051  -0.918  -2.990  0.00  0.00    +0.004 A 
ATOM     35  C   UNL     1       1.285  -2.005  -2.613  0.00  0.00    +0.048 A 
ENDBRANCH  29  30
ENDBRANCH  26  29
ENDBRANCH  10  26
BRANCH   1  37
ATOM     36  C   UNL     1      -0.022   1.810   0.012  0.00  0.00    +0.090 C 
ATOM     37  S   UNL     1       0.002  -0.004   0.002  0.00  0.00    -0.127 S 
ENDBRANCH   1  37
TORSDOF 6
