REMARK  Name = ZINC43743317
REMARK  13 active torsions:
REMARK  status: ('A' for Active; 'I' for Inactive)
REMARK    1  A    between atoms: C_1  and  C_2
REMARK    2  A    between atoms: C_10  and  C_23
REMARK    3  A    between atoms: C_15  and  C_16
REMARK    4  A    between atoms: C_15  and  O_19
REMARK    5  A    between atoms: C_16  and  C_18
REMARK    6  A    between atoms: O_19  and  C_20
REMARK    7  A    between atoms: C_20  and  C_22
REMARK    8  A    between atoms: C_24  and  C_42
REMARK    9  A    between atoms: C_27  and  O_31
REMARK   10  A    between atoms: O_31  and  C_32
REMARK   11  A    between atoms: C_32  and  C_34
REMARK   12  A    between atoms: C_34  and  C_35
REMARK   13  A    between atoms: C_35  and  N_36
REMARK                            x       y       z     vdW  Elec       q    Type
REMARK                         _______ _______ _______ _____ _____    ______ ____
ROOT
ATOM      1  C   UNL     1      -0.025   2.001  -1.385  0.00  0.00    +0.044 C 
ATOM      2  C   UNL     1      -0.135   0.545  -1.012  0.00  0.00    -0.051 C 
ATOM      3  C   UNL     1      -0.041  -0.385  -1.950  0.00  0.00    -0.019 C 
ATOM      4  C   UNL     1      -0.116  -1.849  -1.660  0.00  0.00    +0.020 C 
ATOM      5  C   UNL     1      -0.856  -2.115  -0.341  0.00  0.00    +0.006 C 
ATOM      6  C   UNL     1      -0.846  -3.596   0.011  0.00  0.00    +0.005 C 
ATOM      7  C   UNL     1      -1.440  -4.433  -1.138  0.00  0.00    +0.011 C 
ATOM      8  C   UNL     1      -0.632  -4.140  -2.385  0.00  0.00    +0.018 C 
ATOM      9  C   UNL     1      -0.858  -2.618  -2.733  0.00  0.00    +0.006 C 
ATOM     10  C   UNL     1      -0.263  -2.549  -4.144  0.00  0.00    +0.009 C 
ATOM     11  C   UNL     1      -0.814  -3.835  -4.817  0.00  0.00    +0.057 C 
ATOM     12  C   UNL     1      -1.052  -4.859  -3.662  0.00  0.00    +0.176 C 
ATOM     13  C   UNL     1       0.850  -4.402  -2.111  0.00  0.00    +0.016 C 
ATOM     14  C   UNL     1      -0.193  -1.292   0.759  0.00  0.00    -0.003 C 
ATOM     15  C   UNL     1      -0.340   0.162   0.403  0.00  0.00    -0.039 C 
ATOM     16  C   UNL     1      -0.643   1.090   1.288  0.00  0.00    +0.021 C 
ATOM     17  C   UNL     1      -0.927   0.799   2.733  0.00  0.00    +0.200 C 
ATOM     18  C   UNL     1      -0.312  -0.544   3.131  0.00  0.00    +0.050 C 
ATOM     19  C   UNL     1      -0.769  -1.610   2.125  0.00  0.00    +0.015 C 
ATOM     20  C   UNL     1       1.301  -1.620   0.775  0.00  0.00    +0.016 C 
ENDROOT
BRANCH  12  21
ATOM     21  C   UNL     1      -0.263  -6.132  -3.827  0.00  0.00    +0.174 C 
ATOM     22  O   UNL     1       0.736  -6.140  -4.507  0.00  0.00    -0.293 OA
ATOM     23  C   UNL     1      -0.719  -7.396  -3.145  0.00  0.00    +0.090 C 
ENDBRANCH  12  21
BRANCH  12  24
ATOM     24  O   UNL     1      -2.452  -5.143  -3.633  0.00  0.00    -0.450 OA
BRANCH  24  25
ATOM     25  C   UNL     1      -2.981  -5.712  -4.728  0.00  0.00    +0.305 C 
ATOM     26  O   UNL     1      -2.268  -6.017  -5.655  0.00  0.00    -0.251 OA
ATOM     27  C   UNL     1      -4.463  -5.972  -4.801  0.00  0.00    +0.136 C 
ENDBRANCH  24  25
ENDBRANCH  12  24
BRANCH  17  28
ATOM     28  O   UNL     1      -0.365   1.833   3.543  0.00  0.00    -0.457 OA
BRANCH  28  29
ATOM     29  C   UNL     1      -1.148   2.889   3.812  0.00  0.00    +0.306 C 
ATOM     30  O   UNL     1      -2.272   2.935   3.374  0.00  0.00    -0.251 OA
BRANCH  29  31
ATOM     31  C   UNL     1      -0.623   4.019   4.661  0.00  0.00    +0.102 C 
BRANCH  31  32
ATOM     32  C   UNL     1      -1.707   5.088   4.813  0.00  0.00    -0.068 C 
BRANCH  32  33
ATOM     33  N   UNL     1      -1.196   6.189   5.640  0.00  0.00    +0.380 N 
ATOM     34  C   UNL     1      -0.931   5.697   6.998  0.00  0.00    -0.079 C 
ATOM     35  C   UNL     1      -0.323   6.819   7.841  0.00  0.00    -0.019 C 
ATOM     36  C   UNL     1      -1.304   7.993   7.904  0.00  0.00    -0.004 C 
ATOM     37  C   UNL     1      -1.631   8.450   6.480  0.00  0.00    -0.019 C 
ATOM     38  C   UNL     1      -2.191   7.267   5.686  0.00  0.00    -0.079 C 
ATOM     39  H   UNL     1      -0.339   6.541   5.239  0.00  0.00    -0.082 HD
ENDBRANCH  32  33
ENDBRANCH  31  32
ENDBRANCH  29  31
ENDBRANCH  28  29
ENDBRANCH  17  28
TORSDOF 8
