REMARK  Name = ZINC38959910
REMARK  14 active torsions:
REMARK  status: ('A' for Active; 'I' for Inactive)
REMARK    1  A    between atoms: C_1  and  C_2
REMARK    2  A    between atoms: C_5  and  C_38
REMARK    3  A    between atoms: C_6  and  N_8
REMARK    4  A    between atoms: N_8  and  C_9
REMARK    5  A    between atoms: C_9  and  C_10
REMARK    6  A    between atoms: C_15  and  O_22
REMARK    7  A    between atoms: O_22  and  C_23
REMARK    8  A    between atoms: C_24  and  C_26
REMARK    9  A    between atoms: C_28  and  O_36
REMARK   10  A    between atoms: C_29  and  O_34
REMARK   11  A    between atoms: C_30  and  O_32
REMARK   12  A    between atoms: O_32  and  C_33
REMARK   13  A    between atoms: O_34  and  C_35
REMARK   14  A    between atoms: O_36  and  C_37
REMARK                            x       y       z     vdW  Elec       q    Type
REMARK                         _______ _______ _______ _____ _____    ______ ____
ROOT
ATOM      1  N   UNL     1       0.270  -3.397   2.542  0.00  0.00    -0.266 N 
ATOM      2  C   UNL     1       1.229  -3.706   3.438  0.00  0.00    +0.251 C 
ATOM      3  O   UNL     1       0.925  -3.984   4.582  0.00  0.00    -0.270 OA
ENDROOT
BRANCH   1   9
ATOM      4  C   UNL     1       2.436  -4.461  -1.741  0.00  0.00    +0.044 C 
ATOM      5  C   UNL     1       1.673  -3.511  -0.854  0.00  0.00    -0.049 A 
ATOM      6  C   UNL     1       1.322  -2.259  -1.325  0.00  0.00    +0.004 A 
ATOM      7  C   UNL     1       0.622  -1.384  -0.514  0.00  0.00    +0.005 A 
ATOM      8  C   UNL     1       0.272  -1.758   0.768  0.00  0.00    -0.029 A 
ATOM      9  C   UNL     1       0.623  -3.015   1.244  0.00  0.00    +0.040 A 
ATOM     10  C   UNL     1       1.321  -3.893   0.425  0.00  0.00    +0.027 A 
ATOM     11  C   UNL     1      -0.489  -0.803   1.651  0.00  0.00    +0.045 C 
ENDBRANCH   1   9
BRANCH   2  12
ATOM     12  C   UNL     1       2.647  -3.706   3.030  0.00  0.00    +0.044 A 
ATOM     13  C   UNL     1       3.488  -4.751   3.421  0.00  0.00    +0.062 A 
ATOM     14  C   UNL     1       4.816  -4.749   3.037  0.00  0.00    +0.166 A 
ATOM     15  C   UNL     1       5.316  -3.707   2.262  0.00  0.00    +0.204 A 
ATOM     16  C   UNL     1       4.481  -2.664   1.871  0.00  0.00    +0.166 A 
ATOM     17  C   UNL     1       3.151  -2.664   2.247  0.00  0.00    +0.062 A 
BRANCH  16  18
ATOM     18  O   UNL     1       4.973  -1.646   1.115  0.00  0.00    -0.491 OA
ATOM     19  C   UNL     1       4.060  -0.609   0.750  0.00  0.00    +0.277 C 
ENDBRANCH  16  18
BRANCH  15  20
ATOM     20  O   UNL     1       6.622  -3.707   1.887  0.00  0.00    -0.488 OA
ATOM     21  C   UNL     1       6.941  -4.348   0.650  0.00  0.00    +0.277 C 
ENDBRANCH  15  20
BRANCH  14  22
ATOM     22  O   UNL     1       5.634  -5.767   3.418  0.00  0.00    -0.491 OA
ATOM     23  C   UNL     1       5.032  -6.857   4.118  0.00  0.00    +0.277 C 
ENDBRANCH  14  22
ENDBRANCH   2  12
BRANCH   1  24
ATOM     24  C   UNL     1      -1.141  -3.461   2.928  0.00  0.00    +0.131 C 
BRANCH  24  25
ATOM     25  C   UNL     1      -1.632  -4.907   2.830  0.00  0.00    +0.116 C 
ATOM     26  C   UNL     1      -2.924  -5.014   3.616  0.00  0.00    -0.003 C 
ATOM     27  C   UNL     1      -4.030  -5.443   2.944  0.00  0.00    -0.004 A 
ATOM     28  C   UNL     1      -5.317  -5.575   3.627  0.00  0.00    +0.055 A 
ATOM     29  C   UNL     1      -6.396  -6.008   2.916  0.00  0.00    +0.121 A 
ATOM     30  C   UNL     1      -6.290  -6.325   1.556  0.00  0.00    +0.047 A 
ATOM     31  C   UNL     1      -5.123  -6.222   0.870  0.00  0.00    +0.027 A 
ATOM     32  C   UNL     1      -3.950  -5.783   1.513  0.00  0.00    +0.041 A 
ATOM     33  N   UNL     1      -2.812  -5.687   0.826  0.00  0.00    -0.284 N 
ATOM     34  C   UNL     1      -1.675  -5.284   1.367  0.00  0.00    +0.226 C 
ATOM     35  O   UNL     1      -0.668  -5.216   0.688  0.00  0.00    -0.275 OA
ATOM     36  H   UNL     1      -2.818  -5.924  -0.115  0.00  0.00    +0.155 HD
BRANCH  29  37
ATOM     37  O   UNL     1      -7.597  -6.135   3.539  0.00  0.00    -0.495 OA
ATOM     38  C   UNL     1      -8.694  -6.593   2.745  0.00  0.00    +0.277 C 
ENDBRANCH  29  37
ENDBRANCH  24  25
ENDBRANCH   1  24
TORSDOF 8
