REMARK  Name = ZINC59483964
REMARK  11 active torsions:
REMARK  status: ('A' for Active; 'I' for Inactive)
REMARK    1  A    between atoms: C_1  and  C_2
REMARK    2  A    between atoms: C_5  and  C_8
REMARK    3  A    between atoms: C_8  and  O_9
REMARK    4  A    between atoms: O_9  and  C_10
REMARK    5  A    between atoms: C_11  and  O_31
REMARK    6  A    between atoms: C_13  and  C_17
REMARK    7  A    between atoms: C_18  and  C_19
REMARK    8  A    between atoms: C_18  and  C_21
REMARK    9  A    between atoms: N_23  and  C_24
REMARK   10  A    between atoms: C_28  and  C_30
REMARK   11  A    between atoms: O_31  and  C_32
REMARK                            x       y       z     vdW  Elec       q    Type
REMARK                         _______ _______ _______ _____ _____    ______ ____
ROOT
ATOM      1  C   UNL     1       1.119  -6.177  -0.282  0.00  0.00    +0.176 A 
ATOM      2  C   UNL     1       1.678  -6.698   0.886  0.00  0.00    +0.163 A 
ATOM      3  C   UNL     1       2.022  -8.032   0.952  0.00  0.00    +0.057 A 
ATOM      4  C   UNL     1       1.808  -8.863  -0.157  0.00  0.00    -0.019 A 
ATOM      5  C   UNL     1       1.246  -8.333  -1.327  0.00  0.00    +0.027 A 
ATOM      6  C   UNL     1       0.901  -7.000  -1.381  0.00  0.00    +0.064 A 
ATOM      7 BR   UNL     1       0.135  -6.288  -2.956  0.00  0.00    -0.046 Br
ENDROOT
BRANCH   4   8
ATOM      8  C   UNL     1       2.172 -10.280  -0.094  0.00  0.00    +0.032 C 
ATOM      9  C   UNL     1       2.813 -10.876  -1.159  0.00  0.00    +0.114 C 
BRANCH   9  10
ATOM     10  C   UNL     1       3.329 -10.050  -2.262  0.00  0.00    +0.259 C 
ATOM     11  O   UNL     1       3.302  -8.836  -2.177  0.00  0.00    -0.269 OA
ATOM     12  N   UNL     1       3.832 -10.637  -3.365  0.00  0.00    -0.281 N 
ATOM     13  H   UNL     1       3.916 -11.603  -3.405  0.00  0.00    +0.155 HD
BRANCH  12  14
ATOM     14  C   UNL     1       4.234  -9.855  -4.453  0.00  0.00    +0.034 A 
ATOM     15  C   UNL     1       4.823  -8.615  -4.239  0.00  0.00    +0.023 A 
ATOM     16  C   UNL     1       5.218  -7.845  -5.314  0.00  0.00    +0.002 A 
ATOM     17  C   UNL     1       5.028  -8.307  -6.604  0.00  0.00    +0.003 A 
ATOM     18  C   UNL     1       4.442  -9.540  -6.821  0.00  0.00    -0.049 A 
ATOM     19  C   UNL     1       4.049 -10.318  -5.749  0.00  0.00    +0.026 A 
ATOM     20  C   UNL     1       4.236 -10.039  -8.228  0.00  0.00    +0.044 C 
ENDBRANCH  12  14
ENDBRANCH   9  10
BRANCH   9  21
ATOM     21  C   UNL     1       2.975 -12.298  -1.193  0.00  0.00    +0.104 C 
ATOM     22  N   UNL     1       3.105 -13.426  -1.220  0.00  0.00    -0.191 NA
ENDBRANCH   9  21
ENDBRANCH   4   8
BRANCH   2  23
ATOM     23  O   UNL     1       1.884  -5.889   1.959  0.00  0.00    -0.491 OA
ATOM     24  C   UNL     1       2.460  -6.488   3.122  0.00  0.00    +0.277 C 
ENDBRANCH   2  23
BRANCH   1  25
ATOM     25  O   UNL     1       0.782  -4.864  -0.344  0.00  0.00    -0.483 OA
BRANCH  25  26
ATOM     26  C   UNL     1      -0.542  -4.514   0.066  0.00  0.00    +0.264 C 
BRANCH  26  31
ATOM     27  C   UNL     1      -1.277   1.194  -0.454  0.00  0.00    +0.044 C 
ATOM     28  C   UNL     1      -1.085  -0.294  -0.318  0.00  0.00    -0.050 A 
ATOM     29  C   UNL     1      -1.384  -1.129  -1.379  0.00  0.00    +0.004 A 
ATOM     30  C   UNL     1      -1.208  -2.494  -1.255  0.00  0.00    +0.007 A 
ATOM     31  C   UNL     1      -0.733  -3.025  -0.070  0.00  0.00    -0.010 A 
ATOM     32  C   UNL     1      -0.433  -2.190   0.991  0.00  0.00    +0.007 A 
ATOM     33  C   UNL     1      -0.605  -0.824   0.865  0.00  0.00    +0.004 A 
ENDBRANCH  26  31
ENDBRANCH  25  26
ENDBRANCH   1  25
TORSDOF 8
