REMARK  Name = ZINC35361431
REMARK  10 active torsions:
REMARK  status: ('A' for Active; 'I' for Inactive)
REMARK    1  A    between atoms: C_1  and  C_2
REMARK    2  A    between atoms: C_13  and  O_15
REMARK    3  A    between atoms: N_21  and  O_22
REMARK    4  A    between atoms: O_22  and  C_23
REMARK    5  A    between atoms: C_23  and  C_24
REMARK    6  A    between atoms: C_28  and  O_37
REMARK    7  A    between atoms: C_31  and  C_33
REMARK    8  A    between atoms: C_33  and  O_35
REMARK    9  A    between atoms: O_35  and  C_36
REMARK   10  A    between atoms: C_40  and  C_41
REMARK                            x       y       z     vdW  Elec       q    Type
REMARK                         _______ _______ _______ _____ _____    ______ ____
ROOT
ATOM      1  C   UNL     1      -0.019   1.526   0.010  0.00  0.00    +0.014 C 
ATOM      2  C   UNL     1       0.002  -0.004   0.002  0.00  0.00    -0.003 C 
ATOM      3  C   UNL     1      -1.416  -0.538   0.073  0.00  0.00    +0.010 C 
ATOM      4  C   UNL     1      -2.078   0.098   1.306  0.00  0.00    +0.005 C 
ATOM      5  C   UNL     1      -1.299  -0.202   2.583  0.00  0.00    +0.002 C 
ATOM      6  C   UNL     1       0.174   0.215   2.464  0.00  0.00    -0.003 C 
ATOM      7  C   UNL     1       0.751  -0.527   1.257  0.00  0.00    +0.001 C 
ATOM      8  C   UNL     1       2.207  -0.192   0.912  0.00  0.00    +0.007 C 
ATOM      9  C   UNL     1       2.304  -0.573  -0.591  0.00  0.00    +0.032 C 
ATOM     10  C   UNL     1       0.863  -0.503  -1.154  0.00  0.00    +0.121 C 
ATOM     11  C   UNL     1       0.916  -0.201   3.738  0.00  0.00    +0.008 C 
ATOM     12  C   UNL     1       0.358   0.587   4.925  0.00  0.00    +0.031 C 
ATOM     13  C   UNL     1      -1.143   0.370   4.992  0.00  0.00    -0.062 C 
ATOM     14  C   UNL     1      -1.666   0.034   6.166  0.00  0.00    +0.026 C 
ATOM     15  C   UNL     1      -3.120  -0.172   6.292  0.00  0.00    +0.080 C 
ATOM     16  N   UNL     1      -3.629  -0.874   7.254  0.00  0.00    -0.089 NA
ATOM     17  C   UNL     1      -3.987   0.485   5.235  0.00  0.00    +0.059 C 
ATOM     18  C   UNL     1      -3.400   0.119   3.873  0.00  0.00    +0.017 C 
ATOM     19  C   UNL     1      -1.938   0.556   3.753  0.00  0.00    -0.007 C 
ATOM     20  C   UNL     1      -1.924   2.048   3.412  0.00  0.00    +0.016 C 
ENDROOT
BRANCH  10  21
ATOM     21  O   UNL     1       0.803   0.414  -2.248  0.00  0.00    -0.391 OA
ATOM     22  H   UNL     1       1.332   0.149  -3.013  0.00  0.00    +0.210 HD
ENDBRANCH  10  21
BRANCH  16  23
ATOM     23  O   UNL     1      -5.032  -1.046   7.338  0.00  0.00    -0.384 OA
BRANCH  23  24
ATOM     24  C   UNL     1      -5.454  -1.843   8.447  0.00  0.00    +0.358 C 
BRANCH  24  25
ATOM     25  C   UNL     1      -6.957  -1.960   8.438  0.00  0.00    +0.257 C 
ATOM     26  O   UNL     1      -7.603  -1.415   7.568  0.00  0.00    -0.272 OA
ATOM     27  N   UNL     1      -7.583  -2.670   9.397  0.00  0.00    -0.283 N 
ATOM     28  C   UNL     1      -6.925  -3.375  10.512  0.00  0.00    +0.140 C 
ATOM     29  C   UNL     1      -8.011  -3.478  11.612  0.00  0.00    +0.134 C 
ATOM     30  C   UNL     1      -9.289  -3.721  10.767  0.00  0.00    +0.066 C 
ATOM     31  C   UNL     1      -9.036  -2.865   9.508  0.00  0.00    +0.187 C 
BRANCH  31  32
ATOM     32  C   UNL     1      -9.551  -3.587   8.290  0.00  0.00    +0.328 C 
ATOM     33  O   UNL     1      -8.787  -4.200   7.582  0.00  0.00    -0.249 OA
BRANCH  32  34
ATOM     34  O   UNL     1     -10.859  -3.548   7.989  0.00  0.00    -0.467 OA
ATOM     35  C   UNL     1     -11.277  -4.255   6.820  0.00  0.00    +0.280 C 
ENDBRANCH  32  34
ENDBRANCH  31  32
BRANCH  29  36
ATOM     36  O   UNL     1      -7.754  -4.581  12.484  0.00  0.00    -0.390 OA
ATOM     37  H   UNL     1      -6.915  -4.519  12.961  0.00  0.00    +0.210 HD
ENDBRANCH  29  36
ENDBRANCH  24  25
ENDBRANCH  23  24
ENDBRANCH  16  23
TORSDOF 7
