REMARK  Name = ZINC12731811
REMARK  9 active torsions:
REMARK  status: ('A' for Active; 'I' for Inactive)
REMARK    1  A    between atoms: C_1  and  C_2
REMARK    2  A    between atoms: C_2  and  O_3
REMARK    3  A    between atoms: O_3  and  C_4
REMARK    4  A    between atoms: C_9  and  N_10
REMARK    5  A    between atoms: C_11  and  C_13
REMARK    6  A    between atoms: C_13  and  C_15
REMARK    7  A    between atoms: C_13  and  N_62
REMARK    8  A    between atoms: C_18  and  C_21
REMARK    9  A    between atoms: C_21  and  C_23
REMARK                            x       y       z     vdW  Elec       q    Type
REMARK                         _______ _______ _______ _____ _____    ______ ____
ROOT
ATOM      1  C   UNL     1      -7.482  -0.225  -0.517  0.00  0.00    -0.077 C 
ATOM      2  C   UNL     1      -6.155  -0.979  -0.631  0.00  0.00    -0.007 C 
ATOM      3  C   UNL     1      -5.024  -0.094  -0.099  0.00  0.00    +0.057 C 
ATOM      4  C   UNL     1      -5.330   0.297   1.350  0.00  0.00    -0.007 C 
ATOM      5  C   UNL     1      -6.681   1.012   1.406  0.00  0.00    -0.077 C 
ATOM      6  N   UNL     1      -7.730   0.099   0.904  0.00  0.00    +0.387 N 
ATOM      7  H   UNL     1      -7.707  -0.768   1.452  0.00  0.00    -0.081 HD
ENDROOT
BRANCH   6   8
ATOM      8  C   UNL     1      -9.059   0.726   1.054  0.00  0.00    +0.016 C 
ATOM      9  C   UNL     1      -9.335   0.951   2.542  0.00  0.00    -0.004 C 
BRANCH   8  11
ATOM     10  N   UNL     1     -10.221   2.804   0.381  0.00  0.00    -0.284 N 
ATOM     11  C   UNL     1      -9.107   2.046   0.329  0.00  0.00    +0.203 C 
ATOM     12  O   UNL     1      -8.144   2.428  -0.301  0.00  0.00    -0.277 OA
ATOM     13  H   UNL     1     -10.972   2.525   0.928  0.00  0.00    +0.155 HD
BRANCH  10  19
ATOM     14  C   UNL     1     -11.510   4.407  -0.896  0.00  0.00    +0.142 A 
ATOM     15  C   UNL     1     -11.576   5.585  -1.623  0.00  0.00    +0.047 A 
ATOM     16  C   UNL     1     -10.438   6.347  -1.810  0.00  0.00    +0.004 A 
ATOM     17  C   UNL     1      -9.231   5.938  -1.273  0.00  0.00    +0.002 A 
ATOM     18  C   UNL     1      -9.158   4.767  -0.542  0.00  0.00    +0.027 A 
ATOM     19  C   UNL     1     -10.294   3.994  -0.355  0.00  0.00    +0.076 A 
BRANCH  14  20
ATOM     20  O   UNL     1     -12.628   3.656  -0.710  0.00  0.00    -0.490 OA
BRANCH  20  22
ATOM     21  C   UNL     1     -14.980   3.172  -0.981  0.00  0.00    +0.048 C 
ATOM     22  C   UNL     1     -13.839   4.142  -1.294  0.00  0.00    +0.226 C 
ENDBRANCH  20  22
ENDBRANCH  14  20
ENDBRANCH  10  19
ENDBRANCH   8  11
ENDBRANCH   6   8
BRANCH   3  23
ATOM     23  C   UNL     1      -3.723  -0.853  -0.152  0.00  0.00    +0.166 C 
ATOM     24  O   UNL     1      -3.727  -2.065  -0.129  0.00  0.00    -0.292 OA
BRANCH  23  25
ATOM     25  C   UNL     1      -2.451  -0.124  -0.233  0.00  0.00    +0.021 A 
ATOM     26  C   UNL     1      -2.443   1.276  -0.260  0.00  0.00    +0.015 A 
ATOM     27  C   UNL     1      -1.249   1.955  -0.341  0.00  0.00    +0.050 A 
ATOM     28  C   UNL     1      -0.047   1.257  -0.388  0.00  0.00    +0.162 A 
ATOM     29  C   UNL     1      -0.046  -0.136  -0.359  0.00  0.00    +0.163 A 
ATOM     30  C   UNL     1      -1.241  -0.826  -0.282  0.00  0.00    +0.060 A 
ATOM     31  O   UNL     1       1.123  -0.833  -0.404  0.00  0.00    -0.485 OA
ATOM     32  C   UNL     1       2.279  -0.120  -0.856  0.00  0.00    +0.270 C 
ATOM     33  C   UNL     1       2.317   1.237  -0.141  0.00  0.00    +0.270 C 
ATOM     34  O   UNL     1       1.120   1.950  -0.468  0.00  0.00    -0.485 OA
ENDBRANCH  23  25
ENDBRANCH   3  23
TORSDOF 7
