REMARK  Name = ZINC44918711
REMARK  10 active torsions:
REMARK  status: ('A' for Active; 'I' for Inactive)
REMARK    1  A    between atoms: C_1  and  C_2
REMARK    2  A    between atoms: C_2  and  C_35
REMARK    3  A    between atoms: C_4  and  N_13
REMARK    4  A    between atoms: C_14  and  C_16
REMARK    5  A    between atoms: N_19  and  S_31
REMARK    6  A    between atoms: C_22  and  C_27
REMARK    7  A    between atoms: C_27  and  C_28
REMARK    8  A    between atoms: C_27  and  C_29
REMARK    9  A    between atoms: C_27  and  C_30
REMARK   10  A    between atoms: S_31  and  C_34
REMARK                            x       y       z     vdW  Elec       q    Type
REMARK                         _______ _______ _______ _____ _____    ______ ____
ROOT
ATOM      1  C   UNL     1      -5.736  -0.758   2.399  0.00  0.00    +0.277 C 
ATOM      2  C   UNL     1      -6.378  -1.045   1.034  0.00  0.00    +0.185 C 
ATOM      3  N   UNL     1      -7.688  -1.671   1.282  0.00  0.00    -0.200 N 
ATOM      4  C   UNL     1      -8.480  -1.141   2.312  0.00  0.00    +0.093 A 
ATOM      5  C   UNL     1      -9.819  -1.489   2.408  0.00  0.00    +0.032 A 
ATOM      6  C   UNL     1     -10.594  -0.967   3.427  0.00  0.00    -0.040 A 
ATOM      7  C   UNL     1     -10.036  -0.101   4.349  0.00  0.00    +0.008 A 
ATOM      8  C   UNL     1      -8.702   0.250   4.257  0.00  0.00    +0.048 A 
ATOM      9  C   UNL     1      -7.917  -0.267   3.237  0.00  0.00    +0.144 A 
ATOM     10  O   UNL     1      -6.607   0.089   3.152  0.00  0.00    -0.476 OA
ENDROOT
BRANCH   1  12
ATOM     11  N   UNL     1      -3.397  -0.721   1.595  0.00  0.00    -0.305 N 
ATOM     12  C   UNL     1      -4.410  -0.069   2.198  0.00  0.00    +0.256 C 
ATOM     13  O   UNL     1      -4.256   1.072   2.580  0.00  0.00    -0.272 OA
ATOM     14  H   UNL     1      -3.520  -1.633   1.289  0.00  0.00    +0.149 HD
BRANCH  11  18
ATOM     15  C   UNL     1       0.082   1.349   0.203  0.00  0.00    +0.055 C 
ATOM     16  C   UNL     1       0.070  -0.180   0.213  0.00  0.00    +0.107 C 
ATOM     17  C   UNL     1      -1.378  -0.686   0.214  0.00  0.00    +0.074 C 
ATOM     18  C   UNL     1      -2.108  -0.051   1.400  0.00  0.00    +0.111 C 
ATOM     19  C   UNL     1      -1.274  -0.197   2.647  0.00  0.00    +0.015 A 
ATOM     20  C   UNL     1      -1.885  -0.038   3.880  0.00  0.00    +0.009 A 
ATOM     21  C   UNL     1      -1.151  -0.161   5.043  0.00  0.00    +0.001 A 
ATOM     22  C   UNL     1       0.201  -0.444   4.980  0.00  0.00    +0.004 A 
ATOM     23  C   UNL     1       0.815  -0.604   3.755  0.00  0.00    +0.046 A 
ATOM     24  C   UNL     1       0.078  -0.483   2.581  0.00  0.00    +0.126 A 
ATOM     25  O   UNL     1       0.715  -0.658   1.394  0.00  0.00    -0.486 OA
ATOM     26  C   UNL     1       0.801  -0.709  -1.023  0.00  0.00    +0.055 C 
ENDBRANCH  11  18
ENDBRANCH   1  12
BRANCH   6  27
ATOM     27  C   UNL     1     -12.050  -1.343   3.533  0.00  0.00    -0.013 C 
ATOM     28  C   UNL     1     -12.173  -2.857   3.713  0.00  0.00    +0.015 C 
ATOM     29  C   UNL     1     -12.673  -0.634   4.737  0.00  0.00    +0.015 C 
ATOM     30  C   UNL     1     -12.780  -0.919   2.258  0.00  0.00    +0.015 C 
ENDBRANCH   6  27
BRANCH   3  31
ATOM     31  S   UNL     1      -8.208  -2.955   0.375  0.00  0.00    +0.043 S 
ATOM     32  O   UNL     1      -7.030  -3.480  -0.221  0.00  0.00    -0.155 OA
ATOM     33  O   UNL     1      -8.979  -3.744   1.272  0.00  0.00    -0.155 OA
ATOM     34  C   UNL     1      -9.279  -2.227  -0.895  0.00  0.00    +0.218 C 
ENDBRANCH   3  31
TORSDOF 4
