REMARK  Name = ZINC13640652
REMARK  7 active torsions:
REMARK  status: ('A' for Active; 'I' for Inactive)
REMARK    1  A    between atoms: C_1  and  O_2
REMARK    2  A    between atoms: O_2  and  C_3
REMARK    3  A    between atoms: C_5  and  C_13
REMARK    4  A    between atoms: C_7  and  O_11
REMARK    5  A    between atoms: C_8  and  O_9
REMARK    6  A    between atoms: O_9  and  C_10
REMARK    7  A    between atoms: O_11  and  C_12
REMARK                            x       y       z     vdW  Elec       q    Type
REMARK                         _______ _______ _______ _____ _____    ______ ____
ROOT
ATOM      1  C   UNL     1       3.693   1.791  -0.007  0.00  0.00    +0.105 C 
ATOM      2  C   UNL     1       3.470   3.060   0.795  0.00  0.00    +0.029 C 
ATOM      3  C   UNL     1       4.607   4.091   0.805  0.00  0.00    +0.033 C 
ATOM      4  C   UNL     1       3.836   5.399   0.991  0.00  0.00    -0.030 C 
ATOM      5  C   UNL     1       2.599   5.266   0.529  0.00  0.00    -0.023 C 
ATOM      6  C   UNL     1       2.444   3.897  -0.027  0.00  0.00    +0.049 C 
ATOM      7  C   UNL     1       1.149   3.182   0.004  0.00  0.00    -0.018 A 
ATOM      8  C   UNL     1      -0.060   3.843   0.027  0.00  0.00    +0.026 A 
ATOM      9  C   UNL     1      -1.245   3.129   0.035  0.00  0.00    +0.041 A 
ATOM     10  C   UNL     1      -1.219   1.746   0.017  0.00  0.00    +0.022 A 
ATOM     11  C   UNL     1      -0.013   1.076   0.008  0.00  0.00    +0.024 A 
ATOM     12  C   UNL     1       1.183   1.783   0.000  0.00  0.00    +0.031 A 
ATOM     13  N   UNL     1       2.395   1.080   0.004  0.00  0.00    -0.336 N 
ATOM     14 CL   UNL     1      -2.764   3.969   0.060  0.00  0.00    -0.084 Cl
ATOM     15  H   UNL     1       2.383   0.111   0.015  0.00  0.00    +0.147 HD
ENDROOT
BRANCH   1  18
ATOM     16  C   UNL     1       7.010   0.122   0.699  0.00  0.00    +0.165 A 
ATOM     17  C   UNL     1       6.028   0.901   0.104  0.00  0.00    +0.055 A 
ATOM     18  C   UNL     1       4.756   0.944   0.643  0.00  0.00    -0.020 A 
ATOM     19  C   UNL     1       4.458   0.216   1.780  0.00  0.00    +0.055 A 
ATOM     20  C   UNL     1       5.432  -0.570   2.377  0.00  0.00    +0.165 A 
ATOM     21  C   UNL     1       6.713  -0.616   1.838  0.00  0.00    +0.204 A 
BRANCH  16  23
ATOM     22  C   UNL     1       8.495   0.865  -1.004  0.00  0.00    +0.277 C 
ATOM     23  O   UNL     1       8.261   0.081   0.168  0.00  0.00    -0.491 OA
ENDBRANCH  16  23
BRANCH  21  24
ATOM     24  O   UNL     1       7.673  -1.381   2.425  0.00  0.00    -0.488 OA
ATOM     25  C   UNL     1       8.473  -0.760   3.433  0.00  0.00    +0.277 C 
ENDBRANCH  21  24
BRANCH  20  26
ATOM     26  O   UNL     1       5.137  -1.289   3.493  0.00  0.00    -0.491 OA
ATOM     27  C   UNL     1       3.801  -1.194   3.991  0.00  0.00    +0.277 C 
ENDBRANCH  20  26
ENDBRANCH   1  18
TORSDOF 4
