REMARK  Name = ZINC44473581
REMARK  13 active torsions:
REMARK  status: ('A' for Active; 'I' for Inactive)
REMARK    1  A    between atoms: C_1  and  O_2
REMARK    2  A    between atoms: O_2  and  C_3
REMARK    3  A    between atoms: C_5  and  C_27
REMARK    4  A    between atoms: C_8  and  O_9
REMARK    5  A    between atoms: O_9  and  C_10
REMARK    6  A    between atoms: C_10  and  C_11
REMARK    7  A    between atoms: C_11  and  N_13
REMARK    8  A    between atoms: C_11  and  O_26
REMARK    9  A    between atoms: N_13  and  C_14
REMARK   10  A    between atoms: C_19  and  C_20
REMARK   11  A    between atoms: C_27  and  C_29
REMARK   12  A    between atoms: C_27  and  N_31
REMARK   13  A    between atoms: C_29  and  N_30
REMARK                            x       y       z     vdW  Elec       q    Type
REMARK                         _______ _______ _______ _____ _____    ______ ____
ROOT
ATOM      1  O   UNL     1      -0.108  -2.756  -0.012  0.00  0.00    -0.484 OA
ENDROOT
BRANCH   1   7
ATOM      2  C   UNL     1      -1.201  -0.638   0.010  0.00  0.00    +0.162 A 
ATOM      3  C   UNL     1      -2.374   0.099   0.019  0.00  0.00    +0.054 A 
ATOM      4  C   UNL     1      -3.596  -0.546   0.027  0.00  0.00    -0.029 A 
ATOM      5  C   UNL     1      -3.652  -1.928   0.026  0.00  0.00    +0.009 A 
ATOM      6  C   UNL     1      -2.485  -2.669   0.017  0.00  0.00    +0.050 A 
ATOM      7  C   UNL     1      -1.257  -2.028   0.003  0.00  0.00    +0.162 A 
BRANCH   2   9
ATOM      8  C   UNL     1      -0.017   1.425   0.010  0.00  0.00    +0.277 C 
ATOM      9  O   UNL     1       0.002  -0.004   0.002  0.00  0.00    -0.491 OA
ENDBRANCH   2   9
BRANCH   4  10
ATOM     10  C   UNL     1      -4.871   0.257   0.037  0.00  0.00    +0.063 C 
BRANCH  10  11
ATOM     11  N   UNL     1      -5.858  -0.378  -0.847  0.00  0.00    -0.325 NA
ATOM     12  H   UNL     1      -5.542  -0.370  -1.805  0.00  0.00    +0.119 HD
ATOM     13  H   UNL     1      -6.065  -1.317  -0.542  0.00  0.00    +0.119 HD
ENDBRANCH  10  11
BRANCH  10  14
ATOM     14  C   UNL     1      -5.426   0.315   1.462  0.00  0.00    -0.063 C 
BRANCH  14  15
ATOM     15  N   UNL     1      -6.729   0.995   1.453  0.00  0.00    +0.379 N 
ATOM     16  H   UNL     1      -7.095   1.033   2.393  0.00  0.00    -0.090 HD
ATOM     17  H   UNL     1      -6.616   1.932   1.097  0.00  0.00    -0.090 HD
ATOM     18  H   UNL     1      -7.370   0.486   0.863  0.00  0.00    -0.090 HD
ENDBRANCH  14  15
ENDBRANCH  10  14
ENDBRANCH   4  10
ENDBRANCH   1   7
BRANCH   1  19
ATOM     19  C   UNL     1      -0.242  -4.179  -0.018  0.00  0.00    +0.280 C 
BRANCH  19  20
ATOM     20  C   UNL     1       1.146  -4.822  -0.035  0.00  0.00    +0.238 C 
BRANCH  20  21
ATOM     21  N   UNL     1       1.891  -4.407   1.157  0.00  0.00    -0.316 N 
ATOM     22  H   UNL     1       1.772  -3.514   1.516  0.00  0.00    +0.149 HD
BRANCH  21  23
ATOM     23  C   UNL     1       2.771  -5.295   1.774  0.00  0.00    +0.037 A 
ATOM     24  C   UNL     1       2.948  -6.571   1.258  0.00  0.00    +0.023 A 
ATOM     25  C   UNL     1       3.820  -7.450   1.871  0.00  0.00    +0.002 A 
ATOM     26  C   UNL     1       4.522  -7.064   3.000  0.00  0.00    +0.001 A 
ATOM     27  C   UNL     1       4.357  -5.798   3.524  0.00  0.00    +0.010 A 
ATOM     28  C   UNL     1       3.484  -4.902   2.912  0.00  0.00    +0.003 A 
BRANCH  28  29
ATOM     29  C   UNL     1       3.307  -3.538   3.468  0.00  0.00    -0.016 A 
ATOM     30  C   UNL     1       3.394  -2.425   2.632  0.00  0.00    +0.008 A 
ATOM     31  C   UNL     1       3.228  -1.159   3.155  0.00  0.00    +0.001 A 
ATOM     32  C   UNL     1       2.977  -0.992   4.505  0.00  0.00    +0.000 A 
ATOM     33  C   UNL     1       2.890  -2.093   5.339  0.00  0.00    +0.001 A 
ATOM     34  C   UNL     1       3.047  -3.364   4.826  0.00  0.00    +0.008 A 
ENDBRANCH  28  29
ENDBRANCH  21  23
ENDBRANCH  20  21
BRANCH  20  35
ATOM     35  O   UNL     1       1.851  -4.404  -1.206  0.00  0.00    -0.371 OA
ATOM     36  H   UNL     1       1.978  -3.448  -1.268  0.00  0.00    +0.212 HD
ENDBRANCH  20  35
ENDBRANCH  19  20
ENDBRANCH   1  19
TORSDOF 12
