REMARK  Name = ZINC48289494
REMARK  12 active torsions:
REMARK  status: ('A' for Active; 'I' for Inactive)
REMARK    1  A    between atoms: C_1  and  C_2
REMARK    2  A    between atoms: C_2  and  C_3
REMARK    3  A    between atoms: C_2  and  C_4
REMARK    4  A    between atoms: C_2  and  N_28
REMARK    5  A    between atoms: C_4  and  N_5
REMARK    6  A    between atoms: N_5  and  C_6
REMARK    7  A    between atoms: N_5  and  S_15
REMARK    8  A    between atoms: C_6  and  C_7
REMARK    9  A    between atoms: S_15  and  C_18
REMARK   10  A    between atoms: C_23  and  N_24
REMARK   11  A    between atoms: N_28  and  C_29
REMARK   12  A    between atoms: N_28  and  C_30
REMARK                            x       y       z     vdW  Elec       q    Type
REMARK                         _______ _______ _______ _____ _____    ______ ____
ROOT
ATOM      1  N   UNL     1      -1.428  -2.676  -0.798  0.00  0.00    -0.174 NA
ENDROOT
BRANCH   1   2
ATOM      2  S   UNL     1      -1.876  -3.364  -2.236  0.00  0.00    +0.063 S 
ATOM      3  O   UNL     1      -2.189  -4.721  -1.956  0.00  0.00    -0.153 OA
ATOM      4  O   UNL     1      -2.808  -2.475  -2.838  0.00  0.00    -0.153 OA
BRANCH   2   5
ATOM      5  C   UNL     1      -0.452  -3.378  -3.273  0.00  0.00    +0.138 A 
ATOM      6  C   UNL     1       0.107  -4.582  -3.662  0.00  0.00    +0.031 A 
ATOM      7  C   UNL     1       1.225  -4.595  -4.475  0.00  0.00    +0.005 A 
ATOM      8  C   UNL     1       1.784  -3.405  -4.901  0.00  0.00    +0.041 A 
ATOM      9  C   UNL     1       1.225  -2.199  -4.513  0.00  0.00    +0.155 A 
ATOM     10  C   UNL     1       0.102  -2.188  -3.702  0.00  0.00    +0.187 A 
ATOM     11  F   UNL     1       1.771  -1.036  -4.928  0.00  0.00    -0.203 F 
BRANCH  10  12
ATOM     12  N   UNL     1      -0.501  -0.900  -3.291  0.00  0.00    +0.061 N 
ATOM     13  O   UNL     1      -0.070  -0.312  -2.326  0.00  0.00    -0.126 OA
ATOM     14  O   UNL     1      -1.423  -0.436  -3.920  0.00  0.00    -0.126 OA
ENDBRANCH  10  12
ENDBRANCH   2   5
ENDBRANCH   1   2
BRANCH   1  15
ATOM     15  C   UNL     1      -2.005  -1.393  -0.388  0.00  0.00    +0.097 C 
BRANCH  15  17
ATOM     16  C   UNL     1      -4.188  -0.344   0.224  0.00  0.00    -0.009 C 
ATOM     17  C   UNL     1      -3.366  -1.633   0.269  0.00  0.00    -0.057 C 
ATOM     18  C   UNL     1      -4.108  -2.739  -0.484  0.00  0.00    -0.009 C 
BRANCH  17  19
ATOM     19  N   UNL     1      -3.170  -2.040   1.667  0.00  0.00    +0.380 N 
ATOM     20  C   UNL     1      -2.545  -0.940   2.414  0.00  0.00    -0.096 C 
ATOM     21  C   UNL     1      -4.470  -2.365   2.269  0.00  0.00    -0.096 C 
ATOM     22  H   UNL     1      -2.571  -2.852   1.700  0.00  0.00    -0.082 HD
ENDBRANCH  17  19
ENDBRANCH  15  17
ENDBRANCH   1  15
BRANCH   1  23
ATOM     23  C   UNL     1      -0.453  -3.349   0.064  0.00  0.00    +0.144 C 
BRANCH  23  24
ATOM     24  C   UNL     1      -1.158  -4.378   0.911  0.00  0.00    -0.030 A 
ATOM     25  C   UNL     1      -1.423  -4.113   2.242  0.00  0.00    +0.006 A 
ATOM     26  C   UNL     1      -2.070  -5.055   3.019  0.00  0.00    +0.022 A 
ATOM     27  C   UNL     1      -2.452  -6.264   2.466  0.00  0.00    +0.059 A 
ATOM     28  C   UNL     1      -2.187  -6.529   1.133  0.00  0.00    +0.060 A 
ATOM     29  C   UNL     1      -1.544  -5.583   0.355  0.00  0.00    +0.026 A 
ATOM     30 CL   UNL     1      -2.665  -8.046   0.438  0.00  0.00    -0.082 Cl
ATOM     31 CL   UNL     1      -3.263  -7.449   3.443  0.00  0.00    -0.082 Cl
ENDBRANCH  23  24
ENDBRANCH   1  23
TORSDOF 8
