REMARK  Name = ZINC36205434
REMARK  14 active torsions:
REMARK  status: ('A' for Active; 'I' for Inactive)
REMARK    1  A    between atoms: C_1  and  C_2
REMARK    2  A    between atoms: C_2  and  C_3
REMARK    3  A    between atoms: C_2  and  C_4
REMARK    4  A    between atoms: C_4  and  O_5
REMARK    5  A    between atoms: O_5  and  C_6
REMARK    6  A    between atoms: C_6  and  C_7
REMARK    7  A    between atoms: C_7  and  C_9
REMARK    8  A    between atoms: C_7  and  O_36
REMARK    9  A    between atoms: C_9  and  N_10
REMARK   10  A    between atoms: N_10  and  C_11
REMARK   11  A    between atoms: N_10  and  C_17
REMARK   12  A    between atoms: C_11  and  C_12
REMARK   13  A    between atoms: C_17  and  C_18
REMARK   14  A    between atoms: C_24  and  C_29
REMARK                            x       y       z     vdW  Elec       q    Type
REMARK                         _______ _______ _______ _____ _____    ______ ____
ROOT
ATOM      1  C   UNL     1      -0.607  -0.865   8.557  0.00  0.00    -0.003 C 
ENDROOT
BRANCH   1   2
ATOM      2  C   UNL     1      -1.650  -0.378   9.530  0.00  0.00    +0.094 A 
ATOM      3  N   UNL     1      -1.567  -0.742  10.835  0.00  0.00    -0.312 N 
ATOM      4  H   UNL     1      -0.837  -1.311  11.124  0.00  0.00    +0.170 HD
ATOM      5  C   UNL     1      -2.478  -0.329  11.736  0.00  0.00    +0.260 A 
ATOM      6  O   UNL     1      -2.389  -0.664  12.904  0.00  0.00    -0.267 OA
ATOM      7  C   UNL     1      -3.552   0.511  11.301  0.00  0.00    +0.080 A 
ATOM      8  C   UNL     1      -4.648   1.083  12.074  0.00  0.00    +0.005 A 
ATOM      9  C   UNL     1      -5.559   1.858  11.438  0.00  0.00    +0.056 A 
ATOM     10  S   UNL     1      -4.989   1.864   9.749  0.00  0.00    -0.076 S 
ATOM     11  C   UNL     1      -3.556   0.835   9.934  0.00  0.00    +0.116 A 
ATOM     12  N   UNL     1      -2.616   0.391   9.104  0.00  0.00    -0.229 NA
BRANCH   8  13
ATOM     13  C   UNL     1      -4.763   0.819  13.528  0.00  0.00    +0.002 A 
ATOM     14  C   UNL     1      -5.845   0.092  14.024  0.00  0.00    +0.010 A 
ATOM     15  C   UNL     1      -5.947  -0.151  15.379  0.00  0.00    +0.001 A 
ATOM     16  C   UNL     1      -4.979   0.327  16.245  0.00  0.00    +0.001 A 
ATOM     17  C   UNL     1      -3.905   1.050  15.760  0.00  0.00    +0.020 A 
ATOM     18  C   UNL     1      -3.788   1.294  14.405  0.00  0.00    +0.049 A 
ATOM     19 CL   UNL     1      -2.435   2.195  13.797  0.00  0.00    -0.083 Cl
ENDBRANCH   8  13
ENDBRANCH   1   2
BRANCH   1  20
ATOM     20  N   UNL     1      -0.903  -0.339   7.218  0.00  0.00    +0.391 N 
ATOM     21  H   UNL     1      -1.844  -0.591   6.958  0.00  0.00    -0.080 HD
BRANCH  20  22
ATOM     22  C   UNL     1       0.043  -0.908   6.248  0.00  0.00    -0.044 C 
BRANCH  22  23
ATOM     23  C   UNL     1      -0.191  -2.416   6.134  0.00  0.00    +0.124 C 
BRANCH  23  24
ATOM     24  O   UNL     1      -1.517  -2.658   5.659  0.00  0.00    -0.391 OA
ATOM     25  H   UNL     1      -1.678  -2.334   4.762  0.00  0.00    +0.210 HD
ENDBRANCH  23  24
BRANCH  23  26
ATOM     26  C   UNL     1       0.819  -3.016   5.154  0.00  0.00    +0.189 C 
BRANCH  26  27
ATOM     27  O   UNL     1       0.678  -4.438   5.134  0.00  0.00    -0.377 OA
BRANCH  27  28
ATOM     28  C   UNL     1       1.581  -5.099   4.246  0.00  0.00    +0.163 C 
BRANCH  28  30
ATOM     29  C   UNL     1      -0.057  -6.926   3.773  0.00  0.00    +0.009 C 
ATOM     30  C   UNL     1       1.341  -6.609   4.306  0.00  0.00    +0.009 C 
ATOM     31  C   UNL     1       2.388  -7.326   3.451  0.00  0.00    +0.009 C 
ENDBRANCH  28  30
ENDBRANCH  27  28
ENDBRANCH  26  27
ENDBRANCH  23  26
ENDBRANCH  22  23
ENDBRANCH  20  22
BRANCH  20  32
ATOM     32  C   UNL     1      -0.773   1.124   7.227  0.00  0.00    -0.002 C 
BRANCH  32  33
ATOM     33  C   UNL     1      -1.214   1.676   5.896  0.00  0.00    +0.089 A 
ATOM     34  C   UNL     1      -2.482   1.954   5.541  0.00  0.00    +0.042 A 
ATOM     35  C   UNL     1      -2.438   2.448   4.217  0.00  0.00    +0.041 A 
ATOM     36  C   UNL     1      -1.146   2.442   3.842  0.00  0.00    +0.195 A 
ATOM     37  O   UNL     1      -0.409   1.979   4.865  0.00  0.00    -0.470 OA
ENDBRANCH  32  33
ENDBRANCH  20  32
ENDBRANCH   1  20
TORSDOF 12
