REMARK  Name = ZINC62561273
REMARK  6 active torsions:
REMARK  status: ('A' for Active; 'I' for Inactive)
REMARK    1  A    between atoms: C_1  and  C_2
REMARK    2  A    between atoms: C_5  and  C_8
REMARK    3  A    between atoms: C_15  and  C_21
REMARK    4  A    between atoms: C_17  and  N_20
REMARK    5  A    between atoms: C_21  and  C_22
REMARK    6  A    between atoms: C_21  and  C_23
REMARK                            x       y       z     vdW  Elec       q    Type
REMARK                         _______ _______ _______ _____ _____    ______ ____
ROOT
ATOM      1  C   UNL     1       0.059  -4.275  -0.021  0.00  0.00    +0.289 C 
ATOM      2  C   UNL     1       1.467  -4.761   0.214  0.00  0.00    +0.263 C 
ATOM      3  O   UNL     1       2.204  -4.971  -0.727  0.00  0.00    -0.271 OA
ATOM      4  N   UNL     1       1.905  -4.960   1.476  0.00  0.00    -0.279 N 
ATOM      5  C   UNL     1       1.022  -4.744   2.544  0.00  0.00    +0.078 A 
ATOM      6  C   UNL     1       1.496  -4.623   3.841  0.00  0.00    +0.031 A 
ATOM      7  C   UNL     1       0.612  -4.411   4.883  0.00  0.00    -0.041 A 
ATOM      8  C   UNL     1      -0.745  -4.320   4.636  0.00  0.00    +0.030 A 
ATOM      9  C   UNL     1      -1.229  -4.439   3.340  0.00  0.00    +0.069 A 
ATOM     10  C   UNL     1      -0.343  -4.652   2.290  0.00  0.00    +0.164 A 
ATOM     11  O   UNL     1      -0.796  -4.768   1.013  0.00  0.00    -0.471 OA
ATOM     12  H   UNL     1       2.816  -5.249   1.641  0.00  0.00    +0.155 HD
ENDROOT
BRANCH   1  17
ATOM     13  C   UNL     1      -0.018   1.503   0.010  0.00  0.00    +0.044 C 
ATOM     14  C   UNL     1       0.002  -0.004   0.002  0.00  0.00    -0.050 A 
ATOM     15  C   UNL     1       0.006  -0.689  -1.199  0.00  0.00    +0.004 A 
ATOM     16  C   UNL     1       0.025  -2.071  -1.206  0.00  0.00    +0.008 A 
ATOM     17  C   UNL     1       0.040  -2.768  -0.013  0.00  0.00    +0.002 A 
ATOM     18  C   UNL     1       0.037  -2.084   1.188  0.00  0.00    +0.008 A 
ATOM     19  C   UNL     1       0.023  -0.702   1.195  0.00  0.00    +0.004 A 
ENDBRANCH   1  17
BRANCH   9  20
ATOM     20  N   UNL     1      -2.603  -4.346   3.092  0.00  0.00    -0.355 N 
ATOM     21  H   UNL     1      -3.220  -4.199   3.826  0.00  0.00    +0.142 HD
ATOM     22  H   UNL     1      -2.939  -4.430   2.186  0.00  0.00    +0.142 HD
ENDBRANCH   9  20
BRANCH   7  23
ATOM     23  C   UNL     1       1.130  -4.280   6.292  0.00  0.00    +0.013 C 
ATOM     24  C   UNL     1       0.743  -2.910   6.852  0.00  0.00    +0.012 C 
ATOM     25  C   UNL     1       0.519  -5.379   7.164  0.00  0.00    +0.012 C 
ENDBRANCH   7  23
TORSDOF 3
