REMARK  Name = ZINC00863469
REMARK  13 active torsions:
REMARK  status: ('A' for Active; 'I' for Inactive)
REMARK    1  A    between atoms: C_1  and  C_2
REMARK    2  A    between atoms: C_3  and  C_34
REMARK    3  A    between atoms: C_4  and  C_25
REMARK    4  A    between atoms: C_10  and  C_15
REMARK    5  A    between atoms: C_18  and  O_23
REMARK    6  A    between atoms: C_19  and  O_21
REMARK    7  A    between atoms: O_21  and  C_22
REMARK    8  A    between atoms: O_23  and  C_24
REMARK    9  A    between atoms: C_29  and  N_31
REMARK   10  A    between atoms: C_34  and  O_36
REMARK   11  A    between atoms: O_36  and  C_37
REMARK   12  A    between atoms: C_37  and  C_38
REMARK   13  A    between atoms: C_37  and  C_39
REMARK                            x       y       z     vdW  Elec       q    Type
REMARK                         _______ _______ _______ _____ _____    ______ ____
ROOT
ATOM      1  C   UNL     1      -3.765  -0.852   2.537  0.00  0.00    +0.061 C 
ATOM      2  C   UNL     1      -3.380   0.399   3.286  0.00  0.00    +0.016 C 
ATOM      3  C   UNL     1      -2.267   1.068   2.940  0.00  0.00    +0.065 C 
ATOM      4  C   UNL     1      -1.846   2.309   3.672  0.00  0.00    +0.092 C 
ATOM      5  C   UNL     1      -2.997   2.890   4.456  0.00  0.00    +0.024 C 
ATOM      6  C   UNL     1      -4.085   2.142   4.740  0.00  0.00    +0.016 C 
ATOM      7  N   UNL     1      -4.166   0.844   4.312  0.00  0.00    -0.321 N 
ATOM      8  C   UNL     1      -5.237   2.714   5.528  0.00  0.00    +0.059 C 
ATOM      9  C   UNL     1      -4.716   3.771   6.505  0.00  0.00    +0.032 C 
ATOM     10  C   UNL     1      -3.995   4.859   5.704  0.00  0.00    +0.088 C 
ATOM     11  C   UNL     1      -2.901   4.224   4.890  0.00  0.00    +0.162 C 
ATOM     12  O   UNL     1      -1.916   4.875   4.602  0.00  0.00    -0.292 OA
ATOM     13  H   UNL     1      -4.872   0.158   4.802  0.00  0.00    +0.152 HD
ENDROOT
BRANCH   9  14
ATOM     14  C   UNL     1      -5.872   4.378   7.258  0.00  0.00    -0.040 A 
ATOM     15  C   UNL     1      -6.889   5.011   6.567  0.00  0.00    +0.008 A 
ATOM     16  C   UNL     1      -7.951   5.569   7.252  0.00  0.00    +0.049 A 
ATOM     17  C   UNL     1      -7.999   5.495   8.635  0.00  0.00    +0.161 A 
ATOM     18  C   UNL     1      -6.976   4.858   9.331  0.00  0.00    +0.162 A 
ATOM     19  C   UNL     1      -5.917   4.296   8.637  0.00  0.00    +0.053 A 
BRANCH  18  20
ATOM     20  O   UNL     1      -7.018   4.784  10.688  0.00  0.00    -0.491 OA
ATOM     21  C   UNL     1      -5.934   4.115  11.335  0.00  0.00    +0.277 C 
ENDBRANCH  18  20
BRANCH  17  22
ATOM     22  O   UNL     1      -9.044   6.045   9.311  0.00  0.00    -0.491 OA
ATOM     23  C   UNL     1     -10.057   6.683   8.532  0.00  0.00    +0.277 C 
ENDBRANCH  17  22
ENDBRANCH   9  14
BRANCH   4  24
ATOM     24  C   UNL     1      -0.721   1.968   4.615  0.00  0.00    -0.033 A 
ATOM     25  C   UNL     1      -0.916   1.035   5.616  0.00  0.00    +0.005 A 
ATOM     26  C   UNL     1       0.116   0.722   6.480  0.00  0.00    +0.003 A 
ATOM     27  C   UNL     1       1.344   1.344   6.344  0.00  0.00    +0.033 A 
ATOM     28  C   UNL     1       1.539   2.277   5.344  0.00  0.00    +0.126 A 
ATOM     29  C   UNL     1       0.508   2.586   4.476  0.00  0.00    +0.037 A 
BRANCH  28  30
ATOM     30  N   UNL     1       2.853   2.943   5.199  0.00  0.00    +0.056 N 
ATOM     31  O   UNL     1       3.763   2.667   5.961  0.00  0.00    -0.126 OA
ATOM     32  O   UNL     1       3.025   3.766   4.318  0.00  0.00    -0.126 OA
ENDBRANCH  28  30
ENDBRANCH   4  24
BRANCH   3  33
ATOM     33  C   UNL     1      -1.475   0.591   1.870  0.00  0.00    +0.338 C 
ATOM     34  O   UNL     1      -1.493   1.165   0.797  0.00  0.00    -0.245 OA
BRANCH  33  35
ATOM     35  O   UNL     1      -0.699  -0.500   2.038  0.00  0.00    -0.459 OA
BRANCH  35  36
ATOM     36  C   UNL     1       0.074  -0.926   0.915  0.00  0.00    +0.171 C 
ATOM     37  C   UNL     1       0.267  -2.442   0.974  0.00  0.00    +0.052 C 
ATOM     38  C   UNL     1       1.440  -0.237   0.946  0.00  0.00    +0.052 C 
ENDBRANCH  35  36
ENDBRANCH  33  35
ENDBRANCH   3  33
TORSDOF 8
