REMARK  Name = ZINC34272186
REMARK  6 active torsions:
REMARK  status: ('A' for Active; 'I' for Inactive)
REMARK    1  A    between atoms: C_1  and  C_2
REMARK    2  A    between atoms: C_18  and  C_32
REMARK    3  A    between atoms: C_20  and  O_30
REMARK    4  A    between atoms: C_23  and  C_29
REMARK    5  A    between atoms: C_24  and  C_25
REMARK    6  A    between atoms: C_24  and  O_28
REMARK                            x       y       z     vdW  Elec       q    Type
REMARK                         _______ _______ _______ _____ _____    ______ ____
ROOT
ATOM      1  C   UNL     1       0.028   2.174   0.995  0.00  0.00    +0.011 C 
ATOM      2  C   UNL     1       0.226   0.658   0.923  0.00  0.00    +0.027 C 
ATOM      3  C   UNL     1      -1.135  -0.044   0.709  0.00  0.00    +0.011 C 
ATOM      4  C   UNL     1      -1.019  -1.318   1.567  0.00  0.00    +0.005 C 
ATOM      5  C   UNL     1      -2.362  -1.942   1.862  0.00  0.00    +0.037 C 
ATOM      6  C   UNL     1      -3.095  -2.244   0.552  0.00  0.00    +0.048 C 
ATOM      7  C   UNL     1      -4.378  -3.028   0.846  0.00  0.00    +0.194 C 
ATOM      8  C   UNL     1      -5.199  -2.228   1.839  0.00  0.00    -0.020 C 
ATOM      9  C   UNL     1      -6.469  -1.968   1.562  0.00  0.00    +0.054 C 
ATOM     10  C   UNL     1      -7.290  -1.177   2.492  0.00  0.00    +0.179 C 
ATOM     11  O   UNL     1      -8.468  -0.971   2.262  0.00  0.00    -0.288 OA
ATOM     12  C   UNL     1      -6.656  -0.641   3.708  0.00  0.00    +0.047 C 
ATOM     13  C   UNL     1      -5.388  -0.919   3.968  0.00  0.00    -0.009 C 
ATOM     14  C   UNL     1      -4.526  -1.770   3.099  0.00  0.00    +0.047 C 
ATOM     15  C   UNL     1      -3.234  -1.032   2.727  0.00  0.00    +0.153 C 
ATOM     16  C   UNL     1      -2.479  -0.722   4.025  0.00  0.00    +0.154 C 
ATOM     17  C   UNL     1      -1.204   0.043   3.682  0.00  0.00    +0.044 C 
ATOM     18  C   UNL     1      -0.283  -0.835   2.829  0.00  0.00    +0.010 C 
ATOM     19  C   UNL     1       0.787   0.136   2.259  0.00  0.00    +0.143 C 
ATOM     20  C   UNL     1       0.336  -1.997   3.609  0.00  0.00    +0.015 C 
ATOM     21  F   UNL     1      -3.520   0.150   2.036  0.00  0.00    -0.238 F 
ATOM     22  C   UNL     1      -4.139  -3.015   3.901  0.00  0.00    +0.023 C 
ATOM     23  F   UNL     1      -5.105  -3.205  -0.336  0.00  0.00    -0.241 F 
ENDROOT
BRANCH  19  24
ATOM     24  C   UNL     1       2.082  -0.599   2.025  0.00  0.00    +0.232 C 
ATOM     25  O   UNL     1       3.097  -0.229   2.577  0.00  0.00    -0.281 OA
ATOM     26  S   UNL     1       2.119  -1.913   1.012  0.00  0.00    -0.009 SA
ENDBRANCH  19  24
BRANCH  19  27
ATOM     27  O   UNL     1       0.995   1.223   3.163  0.00  0.00    -0.379 OA
ATOM     28  H   UNL     1       1.633   1.878   2.850  0.00  0.00    +0.211 HD
ENDBRANCH  19  27
BRANCH  16  29
ATOM     29  O   UNL     1      -2.144  -1.942   4.688  0.00  0.00    -0.389 OA
ATOM     30  H   UNL     1      -1.664  -1.820   5.518  0.00  0.00    +0.210 HD
ENDBRANCH  16  29
TORSDOF 3
