REMARK  Name = ZINC05297044
REMARK  5 active torsions:
REMARK  status: ('A' for Active; 'I' for Inactive)
REMARK    1  A    between atoms: C_1  and  C_2
REMARK    2  A    between atoms: C_2  and  N_10
REMARK    3  A    between atoms: N_10  and  N_11
REMARK    4  A    between atoms: C_12  and  C_14
REMARK    5  A    between atoms: C_16  and  C_20
REMARK                            x       y       z     vdW  Elec       q    Type
REMARK                         _______ _______ _______ _____ _____    ______ ____
ROOT
ATOM      1  C   UNL     1      -0.066  -3.903  -2.886  0.00  0.00    +0.122 A 
ATOM      2  C   UNL     1       0.016  -4.595  -4.079  0.00  0.00    +0.062 A 
ATOM      3  C   UNL     1      -0.115  -5.952  -3.731  0.00  0.00    +0.093 A 
ATOM      4  N   UNL     1      -0.261  -6.015  -2.424  0.00  0.00    -0.173 NA
ATOM      5  N   UNL     1      -0.230  -4.840  -1.905  0.00  0.00    -0.272 N 
ATOM      6  H   UNL     1      -0.314  -4.647  -0.958  0.00  0.00    +0.189 HD
ENDROOT
BRANCH   3   7
ATOM      7  C   UNL     1      -0.093  -7.104  -4.667  0.00  0.00    +0.003 A 
ATOM      8  C   UNL     1       0.076  -6.880  -6.043  0.00  0.00    +0.011 A 
ATOM      9  C   UNL     1       0.099  -7.916  -6.920  0.00  0.00    +0.009 A 
ATOM     10  C   UNL     1      -0.047  -9.235  -6.454  0.00  0.00    -0.018 A 
ATOM     11  C   UNL     1      -0.026 -10.324  -7.341  0.00  0.00    +0.008 A 
ATOM     12  C   UNL     1      -0.170 -11.589  -6.859  0.00  0.00    +0.001 A 
ATOM     13  C   UNL     1      -0.339 -11.823  -5.496  0.00  0.00    +0.001 A 
ATOM     14  C   UNL     1      -0.364 -10.793  -4.606  0.00  0.00    +0.008 A 
ATOM     15  C   UNL     1      -0.218  -9.473  -5.067  0.00  0.00    -0.017 A 
ATOM     16  C   UNL     1      -0.234  -8.388  -4.176  0.00  0.00    +0.018 A 
ENDBRANCH   3   7
BRANCH   1  18
ATOM     17  N   UNL     1      -0.076  -1.911  -1.472  0.00  0.00    -0.231 N 
ATOM     18  C   UNL     1       0.015  -2.444  -2.707  0.00  0.00    +0.278 C 
ATOM     19  O   UNL     1       0.164  -1.720  -3.672  0.00  0.00    -0.267 OA
ATOM     20  H   UNL     1      -0.195  -2.489  -0.702  0.00  0.00    +0.173 HD
BRANCH  17  21
ATOM     21  N   UNL     1       0.001  -0.523  -1.301  0.00  0.00    -0.268 N 
ATOM     22  H   UNL     1       0.043   0.059  -2.076  0.00  0.00    +0.170 HD
BRANCH  21  24
ATOM     23  C   UNL     1       0.074  -0.906   1.136  0.00  0.00    +0.062 C 
ATOM     24  C   UNL     1       0.015   0.001  -0.067  0.00  0.00    +0.026 C 
ATOM     25  C   UNL     1      -0.024   1.389   0.105  0.00  0.00    -0.007 C 
ATOM     26  C   UNL     1       0.035   2.243  -1.019  0.00  0.00    +0.013 C 
ATOM     27  C   UNL     1      -0.003   3.589  -0.850  0.00  0.00    +0.051 C 
ATOM     28  C   UNL     1      -0.103   4.134   0.444  0.00  0.00    +0.179 C 
ATOM     29  O   UNL     1      -0.138   5.349   0.594  0.00  0.00    -0.288 OA
ATOM     30  C   UNL     1      -0.163   3.286   1.566  0.00  0.00    +0.051 C 
ATOM     31  C   UNL     1      -0.130   1.939   1.401  0.00  0.00    +0.013 C 
ENDBRANCH  21  24
ENDBRANCH  17  21
ENDBRANCH   1  18
TORSDOF 4
