REMARK  Name = ZINC12881545
REMARK  8 active torsions:
REMARK  status: ('A' for Active; 'I' for Inactive)
REMARK    1  A    between atoms: C_1  and  C_2
REMARK    2  A    between atoms: C_7  and  C_8
REMARK    3  A    between atoms: C_17  and  C_19
REMARK    4  A    between atoms: C_19  and  C_21
REMARK    5  A    between atoms: C_19  and  O_22
REMARK    6  A    between atoms: N_25  and  C_28
REMARK    7  A    between atoms: C_28  and  C_29
REMARK    8  A    between atoms: C_29  and  C_30
REMARK                            x       y       z     vdW  Elec       q    Type
REMARK                         _______ _______ _______ _____ _____    ______ ____
ROOT
ATOM      1  C   UNL     1       5.725  -0.430  -0.051  0.00  0.00    +0.044 C 
ATOM      2  C   UNL     1       4.218  -0.408  -0.038  0.00  0.00    -0.046 A 
ATOM      3  C   UNL     1       3.513  -1.598  -0.037  0.00  0.00    +0.004 A 
ATOM      4  C   UNL     1       2.129  -1.577  -0.025  0.00  0.00    +0.005 A 
ATOM      5  C   UNL     1       1.458  -0.375  -0.013  0.00  0.00    -0.027 A 
ATOM      6  C   UNL     1       2.157   0.828  -0.014  0.00  0.00    +0.039 A 
ATOM      7  C   UNL     1       3.550   0.798  -0.027  0.00  0.00    -0.026 A 
ATOM      8  C   UNL     1       4.328   2.089  -0.028  0.00  0.00    +0.046 C 
ATOM      9  N   UNL     1       1.267   1.904   0.000  0.00  0.00    -0.286 N 
ATOM     10  C   UNL     1      -0.018   1.500   0.010  0.00  0.00    +0.211 C 
ATOM     11  O   UNL     1      -1.001   2.211   0.019  0.00  0.00    -0.277 OA
ATOM     12  C   UNL     1       0.002  -0.004   0.002  0.00  0.00    +0.050 C 
ATOM     13  C   UNL     1      -0.735  -0.569  -1.218  0.00  0.00    +0.088 C 
ATOM     14  C   UNL     1      -1.414  -1.867  -0.698  0.00  0.00    +0.075 C 
ATOM     15  C   UNL     1      -1.010  -1.957   0.788  0.00  0.00    -0.028 C 
ATOM     16  C   UNL     1      -2.889  -1.552  -0.796  0.00  0.00    +0.224 C 
ATOM     17  O   UNL     1      -3.788  -2.302  -0.479  0.00  0.00    -0.275 OA
ATOM     18  N   UNL     1      -3.049  -0.318  -1.288  0.00  0.00    -0.241 N 
ATOM     19  C   UNL     1      -1.907   0.323  -1.562  0.00  0.00    +0.225 C 
ATOM     20  O   UNL     1      -1.824   1.444  -2.015  0.00  0.00    -0.275 OA
ATOM     21  H   UNL     1       1.542   2.834   0.002  0.00  0.00    +0.155 HD
ATOM     22  N   UNL     1      -0.678  -0.577   1.150  0.00  0.00    +0.396 N 
ATOM     23  H   UNL     1      -1.534  -0.049   1.356  0.00  0.00    -0.083 HD
ATOM     24  H   UNL     1      -0.061  -0.564   1.971  0.00  0.00    -0.083 HD
ENDROOT
BRANCH  15  25
ATOM     25  C   UNL     1      -2.175  -2.489   1.626  0.00  0.00    +0.098 C 
ATOM     26  C   UNL     1      -1.752  -2.571   3.094  0.00  0.00    +0.036 C 
BRANCH  25  27
ATOM     27  O   UNL     1      -2.539  -3.791   1.162  0.00  0.00    -0.394 OA
ATOM     28  H   UNL     1      -3.273  -4.190   1.648  0.00  0.00    +0.210 HD
ENDBRANCH  25  27
ENDBRANCH  15  25
BRANCH  18  29
ATOM     29  C   UNL     1      -4.367   0.283  -1.508  0.00  0.00    +0.121 C 
BRANCH  29  30
ATOM     30  C   UNL     1      -4.805   1.027  -0.245  0.00  0.00    +0.054 C 
BRANCH  30  31
ATOM     31  C   UNL     1      -6.161   1.645  -0.472  0.00  0.00    -0.046 A 
ATOM     32  C   UNL     1      -6.260   2.928  -0.977  0.00  0.00    +0.004 A 
ATOM     33  C   UNL     1      -7.503   3.493  -1.189  0.00  0.00    +0.000 A 
ATOM     34  C   UNL     1      -8.648   2.779  -0.886  0.00  0.00    +0.000 A 
ATOM     35  C   UNL     1      -8.549   1.498  -0.376  0.00  0.00    +0.000 A 
ATOM     36  C   UNL     1      -7.305   0.931  -0.169  0.00  0.00    +0.004 A 
ENDBRANCH  30  31
ENDBRANCH  29  30
ENDBRANCH  18  29
TORSDOF 5
