REMARK  Name = ZINC39878505
REMARK  14 active torsions:
REMARK  status: ('A' for Active; 'I' for Inactive)
REMARK    1  A    between atoms: C_1  and  C_2
REMARK    2  A    between atoms: C_2  and  O_3
REMARK    3  A    between atoms: O_3  and  C_4
REMARK    4  A    between atoms: C_6  and  C_16
REMARK    5  A    between atoms: C_9  and  O_10
REMARK    6  A    between atoms: O_10  and  C_11
REMARK    7  A    between atoms: C_11  and  C_12
REMARK    8  A    between atoms: C_12  and  C_13
REMARK    9  A    between atoms: C_13  and  C_14
REMARK   10  A    between atoms: C_13  and  C_15
REMARK   11  A    between atoms: C_23  and  C_40
REMARK   12  A    between atoms: C_24  and  C_39
REMARK   13  A    between atoms: N_31  and  C_32
REMARK   14  A    between atoms: C_35  and  C_38
REMARK                            x       y       z     vdW  Elec       q    Type
REMARK                         _______ _______ _______ _____ _____    ______ ____
ROOT
ATOM      1  C   UNL     1       0.654  -4.954  -0.018  0.00  0.00    +0.150 C 
ATOM      2  C   UNL     1       0.879  -5.499  -1.391  0.00  0.00    +0.072 A 
ATOM      3  C   UNL     1       1.149  -4.825  -2.665  0.00  0.00    +0.199 A 
ATOM      4  O   UNL     1       1.407  -3.638  -2.751  0.00  0.00    -0.287 OA
ATOM      5  C   UNL     1       1.080  -5.729  -3.841  0.00  0.00    +0.065 A 
ATOM      6  C   UNL     1       1.115  -5.209  -5.135  0.00  0.00    +0.019 A 
ATOM      7  C   UNL     1       1.045  -6.054  -6.207  0.00  0.00    -0.047 A 
ATOM      8  C   UNL     1       0.938  -7.424  -6.011  0.00  0.00    -0.044 A 
ATOM      9  C   UNL     1       0.903  -7.954  -4.742  0.00  0.00    +0.050 A 
ATOM     10  C   UNL     1       0.976  -7.114  -3.631  0.00  0.00    +0.140 A 
ATOM     11  O   UNL     1       0.950  -7.657  -2.393  0.00  0.00    -0.450 OA
ATOM     12  C   UNL     1       0.788  -6.860  -1.318  0.00  0.00    +0.199 A 
ATOM     13  C   UNL     1       0.501  -7.231   0.078  0.00  0.00    +0.287 C 
ATOM     14  O   UNL     1       0.357  -8.368   0.480  0.00  0.00    -0.266 OA
ATOM     15  N   UNL     1       0.422  -6.123   0.846  0.00  0.00    -0.253 N 
ATOM     16  C   UNL     1       0.859  -8.342  -7.204  0.00  0.00    +0.044 C 
ATOM     17  C   UNL     1       1.084  -5.496  -7.606  0.00  0.00    +0.044 C 
ENDROOT
BRANCH  15  18
ATOM     18  C   UNL     1       0.166  -6.091   2.220  0.00  0.00    +0.038 A 
ATOM     19  C   UNL     1       0.106  -4.875   2.888  0.00  0.00    +0.024 A 
ATOM     20  C   UNL     1      -0.147  -4.846   4.246  0.00  0.00    +0.005 A 
ATOM     21  C   UNL     1      -0.342  -6.027   4.939  0.00  0.00    -0.050 A 
ATOM     22  C   UNL     1      -0.283  -7.239   4.276  0.00  0.00    +0.005 A 
ATOM     23  C   UNL     1      -0.036  -7.274   2.918  0.00  0.00    +0.024 A 
ATOM     24  C   UNL     1      -0.618  -5.992   6.420  0.00  0.00    +0.044 C 
ENDBRANCH  15  18
BRANCH   1  27
ATOM     25  C   UNL     1      -1.498  -1.849   0.006  0.00  0.00    +0.162 A 
ATOM     26  C   UNL     1      -0.389  -2.680  -0.003  0.00  0.00    +0.055 A 
ATOM     27  C   UNL     1      -0.553  -4.052  -0.008  0.00  0.00    -0.018 A 
ATOM     28  C   UNL     1      -1.823  -4.600  -0.005  0.00  0.00    +0.009 A 
ATOM     29  C   UNL     1      -2.934  -3.777   0.004  0.00  0.00    +0.050 A 
ATOM     30  C   UNL     1      -2.776  -2.400   0.016  0.00  0.00    +0.162 A 
BRANCH  25  31
ATOM     31  O   UNL     1      -1.339  -0.499   0.012  0.00  0.00    -0.489 OA
BRANCH  31  33
ATOM     32  C   UNL     1      -0.019   1.526   0.010  0.00  0.00    +0.048 C 
ATOM     33  C   UNL     1       0.002  -0.004   0.002  0.00  0.00    +0.226 C 
ENDBRANCH  31  33
ENDBRANCH  25  31
BRANCH  30  34
ATOM     34  O   UNL     1      -3.868  -1.589   0.030  0.00  0.00    -0.488 OA
BRANCH  34  35
ATOM     35  C   UNL     1      -5.148  -2.225   0.039  0.00  0.00    +0.229 C 
BRANCH  35  36
ATOM     36  C   UNL     1      -6.246  -1.159   0.055  0.00  0.00    +0.044 C 
BRANCH  36  37
ATOM     37  C   UNL     1      -7.616  -1.839   0.065  0.00  0.00    -0.014 C 
ATOM     38  C   UNL     1      -8.711  -0.780   0.206  0.00  0.00    +0.007 C 
ATOM     39  C   UNL     1      -7.815  -2.605  -1.245  0.00  0.00    +0.007 C 
ENDBRANCH  36  37
ENDBRANCH  35  36
ENDBRANCH  34  35
ENDBRANCH  30  34
ENDBRANCH   1  27
TORSDOF 8
