REMARK  Name = ZINC39836412
REMARK  12 active torsions:
REMARK  status: ('A' for Active; 'I' for Inactive)
REMARK    1  A    between atoms: C_1  and  C_2
REMARK    2  A    between atoms: C_5  and  C_37
REMARK    3  A    between atoms: C_6  and  O_8
REMARK    4  A    between atoms: O_8  and  C_9
REMARK    5  A    between atoms: C_9  and  C_11
REMARK    6  A    between atoms: C_9  and  C_12
REMARK    7  A    between atoms: N_14  and  C_15
REMARK    8  A    between atoms: C_16  and  C_26
REMARK    9  A    between atoms: C_21  and  C_25
REMARK   10  A    between atoms: N_28  and  C_29
REMARK   11  A    between atoms: C_37  and  C_38
REMARK   12  A    between atoms: C_37  and  C_39
REMARK                            x       y       z     vdW  Elec       q    Type
REMARK                         _______ _______ _______ _____ _____    ______ ____
ROOT
ATOM      1  C   UNL     1      -1.088  -2.931   6.978  0.00  0.00    +0.085 A 
ATOM      2  C   UNL     1      -1.277  -2.510   8.286  0.00  0.00    +0.069 A 
ATOM      3  C   UNL     1      -1.876  -3.458   9.208  0.00  0.00    -0.023 A 
ATOM      4  C   UNL     1      -2.177  -4.653   8.655  0.00  0.00    -0.004 A 
ATOM      5  S   UNL     1      -1.681  -4.502   6.964  0.00  0.00    -0.077 S 
ATOM      6  C   UNL     1      -2.798  -5.831   9.340  0.00  0.00    +0.046 C 
ATOM      7  C   UNL     1      -2.698  -5.614  10.857  0.00  0.00    -0.009 C 
ATOM      8  C   UNL     1      -3.175  -4.197  11.188  0.00  0.00    +0.008 C 
ATOM      9  C   UNL     1      -2.160  -3.173  10.676  0.00  0.00    +0.037 C 
ATOM     10  C   UNL     1      -3.579  -6.635  11.580  0.00  0.00    +0.008 C 
ENDROOT
BRANCH   1  13
ATOM     11  C   UNL     1      -0.438  -2.785   4.706  0.00  0.00    +0.258 C 
ATOM     12  O   UNL     1      -0.825  -3.921   4.533  0.00  0.00    -0.271 OA
ATOM     13  N   UNL     1      -0.541  -2.216   5.923  0.00  0.00    -0.276 N 
ATOM     14  H   UNL     1      -0.233  -1.307   6.062  0.00  0.00    +0.155 HD
BRANCH  11  15
ATOM     15  C   UNL     1       0.156  -2.008   3.559  0.00  0.00    +0.256 C 
ATOM     16  C   UNL     1       1.630  -1.718   3.850  0.00  0.00    +0.062 C 
BRANCH  15  17
ATOM     17  O   UNL     1       0.050  -2.776   2.358  0.00  0.00    -0.480 OA
BRANCH  17  23
ATOM     18  C   UNL     1       0.425   1.475  -0.012  0.00  0.00    +0.044 C 
ATOM     19  C   UNL     1       0.214  -0.018  -0.009  0.00  0.00    -0.047 A 
ATOM     20  C   UNL     1       0.005  -0.688  -1.200  0.00  0.00    +0.004 A 
ATOM     21  C   UNL     1      -0.189  -2.057  -1.200  0.00  0.00    +0.008 A 
ATOM     22  C   UNL     1      -0.174  -2.758  -0.010  0.00  0.00    -0.003 A 
ATOM     23  C   UNL     1       0.035  -2.088   1.186  0.00  0.00    +0.125 A 
ATOM     24  C   UNL     1       0.236  -0.715   1.184  0.00  0.00    +0.049 A 
BRANCH  22  25
ATOM     25  C   UNL     1      -0.386  -4.250  -0.011  0.00  0.00    +0.016 C 
ATOM     26  C   UNL     1      -1.757  -4.570  -0.611  0.00  0.00    +0.012 C 
ATOM     27  C   UNL     1       0.706  -4.920  -0.847  0.00  0.00    +0.012 C 
ENDBRANCH  22  25
ENDBRANCH  17  23
ENDBRANCH  15  17
ENDBRANCH  11  15
ENDBRANCH   1  13
BRANCH   2  28
ATOM     28  C   UNL     1      -0.887  -1.165   8.719  0.00  0.00    +0.247 C 
ATOM     29  O   UNL     1      -1.683  -0.247   8.645  0.00  0.00    -0.270 OA
ATOM     30  N   UNL     1       0.353  -0.944   9.198  0.00  0.00    -0.307 N 
ATOM     31  H   UNL     1       0.987  -1.675   9.257  0.00  0.00    +0.149 HD
BRANCH  30  32
ATOM     32  C   UNL     1       0.742   0.400   9.631  0.00  0.00    +0.096 C 
ATOM     33  C   UNL     1       1.261   1.204   8.427  0.00  0.00    +0.046 C 
ATOM     34  C   UNL     1       1.966   2.492   8.916  0.00  0.00    +0.168 C 
ATOM     35  S   UNL     1       2.578   2.010  10.582  0.00  0.00    -0.029 S 
ATOM     36  O   UNL     1       1.943   2.821  11.561  0.00  0.00    -0.174 OA
ATOM     37  O   UNL     1       3.996   1.934  10.550  0.00  0.00    -0.174 OA
ATOM     38  C   UNL     1       1.888   0.304  10.678  0.00  0.00    +0.188 C 
ENDBRANCH  30  32
ENDBRANCH   2  28
TORSDOF 7
