REMARK  Name = ZINC39711670
REMARK  11 active torsions:
REMARK  status: ('A' for Active; 'I' for Inactive)
REMARK    1  A    between atoms: C_1  and  O_2
REMARK    2  A    between atoms: O_2  and  C_3
REMARK    3  A    between atoms: C_3  and  C_4
REMARK    4  A    between atoms: C_4  and  N_5
REMARK    5  A    between atoms: C_6  and  C_10
REMARK    6  A    between atoms: C_10  and  C_12
REMARK    7  A    between atoms: C_10  and  N_27
REMARK    8  A    between atoms: N_27  and  C_28
REMARK    9  A    between atoms: N_27  and  C_34
REMARK   10  A    between atoms: C_28  and  C_29
REMARK   11  A    between atoms: C_34  and  C_35
REMARK                            x       y       z     vdW  Elec       q    Type
REMARK                         _______ _______ _______ _____ _____    ______ ____
ROOT
ATOM      1  C   UNL     1       4.000  -3.168   1.121  0.00  0.00    +0.143 C 
ENDROOT
BRANCH   1   2
ATOM      2  C   UNL     1       4.709  -2.267   2.134  0.00  0.00    +0.123 C 
ATOM      3  C   UNL     1       4.123  -0.874   2.007  0.00  0.00    -0.003 C 
ATOM      4  C   UNL     1       3.566  -0.326   3.120  0.00  0.00    -0.003 A 
ATOM      5  C   UNL     1       2.980   1.014   3.081  0.00  0.00    +0.059 A 
ATOM      6  C   UNL     1       2.432   1.534   4.210  0.00  0.00    +0.167 A 
ATOM      7  C   UNL     1       2.418   0.803   5.418  0.00  0.00    +0.168 A 
ATOM      8  C   UNL     1       2.957  -0.463   5.507  0.00  0.00    +0.073 A 
ATOM      9  C   UNL     1       3.542  -1.074   4.391  0.00  0.00    +0.044 A 
ATOM     10  N   UNL     1       4.059  -2.301   4.498  0.00  0.00    -0.284 N 
ATOM     11  C   UNL     1       4.626  -2.935   3.488  0.00  0.00    +0.226 C 
ATOM     12  O   UNL     1       5.079  -4.053   3.646  0.00  0.00    -0.275 OA
ATOM     13  O   UNL     1       1.811   1.568   6.371  0.00  0.00    -0.453 OA
ATOM     14  C   UNL     1       1.831   2.913   5.861  0.00  0.00    +0.466 C 
ATOM     15  O   UNL     1       1.833   2.743   4.432  0.00  0.00    -0.453 OA
ATOM     16  H   UNL     1       4.016  -2.747   5.359  0.00  0.00    +0.155 HD
ENDBRANCH   1   2
BRANCH   1  18
ATOM     17  N   UNL     1       1.508  -2.808   0.713  0.00  0.00    -0.225 N 
ATOM     18  C   UNL     1       2.535  -3.252   1.463  0.00  0.00    +0.170 A 
ATOM     19  N   UNL     1       2.012  -3.771   2.547  0.00  0.00    -0.112 NA
ATOM     20  N   UNL     1       0.732  -3.653   2.467  0.00  0.00    -0.023 NA
ATOM     21  N   UNL     1       0.424  -3.067   1.363  0.00  0.00    -0.044 NA
BRANCH  17  22
ATOM     22  C   UNL     1       1.605  -2.151  -0.592  0.00  0.00    +0.175 C 
BRANCH  22  23
ATOM     23  C   UNL     1       1.549  -0.633  -0.404  0.00  0.00    +0.183 C 
BRANCH  23  25
ATOM     24  C   UNL     1       1.692   1.438  -1.603  0.00  0.00    +0.194 C 
ATOM     25  O   UNL     1       1.728   0.010  -1.667  0.00  0.00    -0.381 OA
ENDBRANCH  23  25
ENDBRANCH  22  23
ENDBRANCH  17  22
ENDBRANCH   1  18
BRANCH   1  26
ATOM     26  N   UNL     1       4.591  -4.513   1.165  0.00  0.00    -0.280 NA
BRANCH  26  27
ATOM     27  C   UNL     1       3.801  -5.461   0.368  0.00  0.00    +0.159 C 
BRANCH  27  28
ATOM     28  C   UNL     1       2.724  -6.067   1.231  0.00  0.00    +0.119 A 
ATOM     29  C   UNL     1       1.399  -5.950   1.033  0.00  0.00    +0.046 A 
ATOM     30  C   UNL     1       0.764  -6.670   2.071  0.00  0.00    +0.041 A 
ATOM     31  C   UNL     1       1.739  -7.183   2.842  0.00  0.00    +0.195 A 
ATOM     32  O   UNL     1       2.925  -6.820   2.325  0.00  0.00    -0.467 OA
ENDBRANCH  27  28
ENDBRANCH  26  27
BRANCH  26  33
ATOM     33  C   UNL     1       5.990  -4.488   0.719  0.00  0.00    +0.128 C 
BRANCH  33  34
ATOM     34  C   UNL     1       6.878  -4.099   1.873  0.00  0.00    +0.004 A 
ATOM     35  C   UNL     1       7.338  -4.866   2.892  0.00  0.00    +0.012 A 
ATOM     36  C   UNL     1       8.151  -4.290   3.850  0.00  0.00    +0.008 A 
ATOM     37  C   UNL     1       8.465  -2.975   3.742  0.00  0.00    +0.045 A 
ATOM     38  S   UNL     1       7.605  -2.512   2.247  0.00  0.00    -0.100 S 
ENDBRANCH  33  34
ENDBRANCH  26  33
ENDBRANCH   1  26
TORSDOF 10
