REMARK  Name = ZINC15981531
REMARK  8 active torsions:
REMARK  status: ('A' for Active; 'I' for Inactive)
REMARK    1  A    between atoms: C_1  and  C_2
REMARK    2  A    between atoms: C_5  and  N_8
REMARK    3  A    between atoms: C_11  and  C_28
REMARK    4  A    between atoms: C_11  and  C_34
REMARK    5  A    between atoms: C_13  and  C_24
REMARK    6  A    between atoms: N_15  and  C_18
REMARK    7  A    between atoms: C_24  and  O_26
REMARK    8  A    between atoms: O_26  and  C_27
REMARK                            x       y       z     vdW  Elec       q    Type
REMARK                         _______ _______ _______ _____ _____    ______ ____
ROOT
ATOM      1  N   UNL     1       2.368   1.153   2.703  0.00  0.00    -0.199 NA
ATOM      2  C   UNL     1       1.204   1.755   2.744  0.00  0.00    +0.291 C 
ATOM      3  N   UNL     1       0.069   1.149   2.237  0.00  0.00    -0.277 N 
ATOM      4  C   UNL     1      -0.724   1.915   1.251  0.00  0.00    +0.189 C 
ATOM      5  C   UNL     1      -0.674   3.359   1.691  0.00  0.00    +0.085 A 
ATOM      6  C   UNL     1      -1.441   4.445   1.247  0.00  0.00    +0.179 A 
ATOM      7  N   UNL     1      -1.043   5.520   1.910  0.00  0.00    -0.156 NA
ATOM      8  N   UNL     1      -0.017   5.141   2.789  0.00  0.00    -0.199 N 
ATOM      9  C   UNL     1       0.189   3.812   2.643  0.00  0.00    +0.234 A 
ATOM     10  O   UNL     1       1.071   2.998   3.286  0.00  0.00    -0.408 OA
ATOM     11  H   UNL     1      -0.197   0.260   2.517  0.00  0.00    +0.152 HD
ENDROOT
BRANCH   1  16
ATOM     12  C   UNL     1       6.943   3.713   4.801  0.00  0.00    +0.044 C 
ATOM     13  C   UNL     1       5.722   3.030   4.241  0.00  0.00    -0.050 A 
ATOM     14  C   UNL     1       5.484   1.699   4.532  0.00  0.00    +0.005 A 
ATOM     15  C   UNL     1       4.368   1.067   4.023  0.00  0.00    +0.028 A 
ATOM     16  C   UNL     1       3.478   1.775   3.212  0.00  0.00    +0.069 A 
ATOM     17  C   UNL     1       3.728   3.116   2.919  0.00  0.00    +0.028 A 
ATOM     18  C   UNL     1       4.844   3.737   3.439  0.00  0.00    +0.005 A 
ENDBRANCH   1  16
BRANCH   8  19
ATOM     19  C   UNL     1       0.673   5.990   3.665  0.00  0.00    +0.069 A 
ATOM     20  C   UNL     1       1.081   5.525   4.908  0.00  0.00    +0.028 A 
ATOM     21  C   UNL     1       1.765   6.363   5.767  0.00  0.00    +0.002 A 
ATOM     22  C   UNL     1       2.034   7.668   5.394  0.00  0.00    +0.000 A 
ATOM     23  C   UNL     1       1.625   8.135   4.159  0.00  0.00    +0.002 A 
ATOM     24  C   UNL     1       0.945   7.300   3.293  0.00  0.00    +0.028 A 
ENDBRANCH   8  19
BRANCH   4  25
ATOM     25  C   UNL     1      -2.149   1.424   1.241  0.00  0.00    -0.011 A 
ATOM     26  C   UNL     1      -2.965   1.647   2.335  0.00  0.00    +0.006 A 
ATOM     27  C   UNL     1      -4.273   1.202   2.324  0.00  0.00    +0.000 A 
ATOM     28  C   UNL     1      -4.763   0.524   1.223  0.00  0.00    +0.000 A 
ATOM     29  C   UNL     1      -3.946   0.296   0.132  0.00  0.00    +0.000 A 
ATOM     30  C   UNL     1      -2.639   0.747   0.140  0.00  0.00    +0.006 A 
ENDBRANCH   4  25
BRANCH   4  31
ATOM     31  C   UNL     1      -0.110   1.769  -0.143  0.00  0.00    +0.419 C 
ATOM     32  F   UNL     1      -0.100   0.419  -0.510  0.00  0.00    -0.168 F 
ATOM     33  F   UNL     1       1.200   2.258  -0.129  0.00  0.00    -0.168 F 
ATOM     34  F   UNL     1      -0.870   2.497  -1.065  0.00  0.00    -0.168 F 
ENDBRANCH   4  31
BRANCH   6  35
ATOM     35  C   UNL     1      -2.502   4.399   0.224  0.00  0.00    +0.360 C 
ATOM     36  O   UNL     1      -2.849   3.332  -0.245  0.00  0.00    -0.243 OA
BRANCH  35  37
ATOM     37  O   UNL     1      -3.088   5.539  -0.191  0.00  0.00    -0.463 OA
ATOM     38  C   UNL     1      -4.125   5.418  -1.201  0.00  0.00    +0.280 C 
ENDBRANCH  35  37
ENDBRANCH   6  35
TORSDOF 6
