REMARK  Name = ZINC02437449
REMARK  7 active torsions:
REMARK  status: ('A' for Active; 'I' for Inactive)
REMARK    1  A    between atoms: C_1  and  C_2
REMARK    2  A    between atoms: C_2  and  C_3
REMARK    3  A    between atoms: C_2  and  C_4
REMARK    4  A    between atoms: C_2  and  C_5
REMARK    5  A    between atoms: N_7  and  C_8
REMARK    6  A    between atoms: C_8  and  C_23
REMARK    7  A    between atoms: N_11  and  C_15
REMARK                            x       y       z     vdW  Elec       q    Type
REMARK                         _______ _______ _______ _____ _____    ______ ____
ROOT
ATOM      1  C   UNL     1       1.423  -2.252  -2.748  0.00  0.00    +0.304 C 
ATOM      2  C   UNL     1       0.463  -1.813  -3.836  0.00  0.00    +0.283 C 
ATOM      3  O   UNL     1       0.213  -0.680  -4.186  0.00  0.00    -0.270 OA
ATOM      4  N   UNL     1      -0.053  -2.958  -4.331  0.00  0.00    -0.187 N 
ATOM      5  C   UNL     1       0.472  -4.047  -3.679  0.00  0.00    +0.345 C 
ATOM      6  O   UNL     1       0.137  -5.324  -3.967  0.00  0.00    -0.247 OA
ATOM      7  N   UNL     1       1.324  -3.721  -2.761  0.00  0.00    -0.188 NA
ENDROOT
BRANCH   4   8
ATOM      8  C   UNL     1      -0.997  -3.027  -5.366  0.00  0.00    +0.047 A 
ATOM      9  C   UNL     1      -1.372  -4.259  -5.884  0.00  0.00    +0.027 A 
ATOM     10  C   UNL     1      -2.301  -4.325  -6.904  0.00  0.00    +0.041 A 
ATOM     11  C   UNL     1      -2.858  -3.163  -7.411  0.00  0.00    +0.142 A 
ATOM     12  C   UNL     1      -2.485  -1.932  -6.895  0.00  0.00    +0.078 A 
ATOM     13  C   UNL     1      -1.560  -1.863  -5.870  0.00  0.00    +0.047 A 
ATOM     14 CL   UNL     1      -3.185  -0.476  -7.532  0.00  0.00    -0.081 Cl
ATOM     15  F   UNL     1      -3.766  -3.229  -8.409  0.00  0.00    -0.204 F 
ENDBRANCH   4   8
BRANCH   1  18
ATOM     16  C   UNL     1       0.778  -0.400  -1.302  0.00  0.00    +0.221 C 
ATOM     17  O   UNL     1       1.004   0.359  -2.220  0.00  0.00    -0.275 OA
ATOM     18  N   UNL     1       1.005  -1.721  -1.448  0.00  0.00    -0.276 N 
ATOM     19  H   UNL     1       0.892  -2.319  -0.693  0.00  0.00    +0.152 HD
BRANCH  16  21
ATOM     20  C   UNL     1       0.078   1.650  -0.096  0.00  0.00    +0.020 C 
ATOM     21  C   UNL     1       0.244   0.133   0.003  0.00  0.00    +0.039 C 
ATOM     22  C   UNL     1       1.225  -0.201   1.129  0.00  0.00    +0.020 C 
ATOM     23  C   UNL     1      -1.112  -0.511   0.299  0.00  0.00    +0.020 C 
ENDBRANCH  16  21
ENDBRANCH   1  18
BRANCH   1  24
ATOM     24  C   UNL     1       2.850  -1.808  -3.075  0.00  0.00    +0.440 C 
ATOM     25  F   UNL     1       3.735  -2.357  -2.142  0.00  0.00    -0.166 F 
ATOM     26  F   UNL     1       3.193  -2.247  -4.358  0.00  0.00    -0.166 F 
ATOM     27  F   UNL     1       2.926  -0.411  -3.025  0.00  0.00    -0.166 F 
ENDBRANCH   1  24
TORSDOF 4
