REMARK  Name = ZINC19809120
REMARK  10 active torsions:
REMARK  status: ('A' for Active; 'I' for Inactive)
REMARK    1  A    between atoms: C_1  and  C_2
REMARK    2  A    between atoms: C_7  and  O_8
REMARK    3  A    between atoms: O_8  and  C_9
REMARK    4  A    between atoms: C_9  and  C_10
REMARK    5  A    between atoms: N_12  and  N_13
REMARK    6  A    between atoms: N_13  and  C_14
REMARK    7  A    between atoms: C_14  and  C_15
REMARK    8  A    between atoms: C_16  and  C_17
REMARK    9  A    between atoms: N_19  and  C_20
REMARK   10  A    between atoms: C_24  and  N_26
REMARK                            x       y       z     vdW  Elec       q    Type
REMARK                         _______ _______ _______ _____ _____    ______ ____
ROOT
ATOM      1  C   UNL     1      -0.143   1.338   4.974  0.00  0.00    +0.024 C 
ATOM      2  C   UNL     1       0.045  -0.145   4.778  0.00  0.00    +0.062 C 
ATOM      3  C   UNL     1      -1.013   1.845   6.095  0.00  0.00    +0.087 C 
ENDROOT
BRANCH   3   4
ATOM      4  C   UNL     1      -1.572   0.676   6.866  0.00  0.00    +0.243 C 
ATOM      5  O   UNL     1      -1.291  -0.457   6.537  0.00  0.00    -0.270 OA
ATOM      6  N   UNL     1      -2.383   0.890   7.920  0.00  0.00    -0.282 N 
ATOM      7  H   UNL     1      -2.568   1.916   8.273  0.00  0.00    +0.155 HD
BRANCH   6   8
ATOM      8  C   UNL     1      -2.990  -0.192   8.568  0.00  0.00    +0.036 A 
ATOM      9  C   UNL     1      -3.364  -1.316   7.842  0.00  0.00    +0.025 A 
ATOM     10  C   UNL     1      -3.958  -2.384   8.484  0.00  0.00    +0.024 A 
ATOM     11  C   UNL     1      -4.190  -2.333   9.847  0.00  0.00    +0.071 A 
ATOM     12  C   UNL     1      -3.823  -1.212  10.572  0.00  0.00    +0.146 A 
ATOM     13  C   UNL     1      -3.223  -0.143   9.935  0.00  0.00    +0.057 A 
ATOM     14 CL   UNL     1      -4.942  -3.675  10.650  0.00  0.00    -0.081 Cl
BRANCH  12  15
ATOM     15  N   UNL     1      -4.072  -1.160  12.030  0.00  0.00    +0.058 N 
ATOM     16  O   UNL     1      -3.748  -0.174  12.668  0.00  0.00    -0.126 OA
ATOM     17  O   UNL     1      -4.600  -2.103  12.591  0.00  0.00    -0.126 OA
ENDBRANCH  12  15
ENDBRANCH   6   8
ENDBRANCH   3   4
BRANCH   1  18
ATOM     18  N   UNL     1       0.436   2.166   4.188  0.00  0.00    -0.269 N 
ATOM     19  H   UNL     1       0.298   3.248   4.331  0.00  0.00    +0.170 HD
BRANCH  18  22
ATOM     20  C   UNL     1       1.854   2.566   2.318  0.00  0.00    +0.267 C 
ATOM     21  O   UNL     1       1.702   3.759   2.476  0.00  0.00    -0.271 OA
ATOM     22  N   UNL     1       1.244   1.694   3.146  0.00  0.00    -0.234 N 
ATOM     23  H   UNL     1       1.381   0.612   3.003  0.00  0.00    +0.173 HD
BRANCH  20  24
ATOM     24  C   UNL     1       2.723   2.059   1.197  0.00  0.00    +0.326 C 
BRANCH  24  25
ATOM     25  O   UNL     1       3.253   3.167   0.466  0.00  0.00    -0.482 OA
BRANCH  25  32
ATOM     26  C   UNL     1       4.300   5.343  -0.998  0.00  0.00    +0.047 C 
ATOM     27  C   UNL     1       4.608   3.909  -1.342  0.00  0.00    -0.007 A 
ATOM     28  C   UNL     1       5.437   3.616  -2.409  0.00  0.00    +0.027 A 
ATOM     29  C   UNL     1       5.715   2.299  -2.729  0.00  0.00    +0.041 A 
ATOM     30  C   UNL     1       5.169   1.273  -1.978  0.00  0.00    +0.023 A 
ATOM     31  C   UNL     1       4.345   1.561  -0.908  0.00  0.00    +0.047 A 
ATOM     32  C   UNL     1       4.064   2.881  -0.586  0.00  0.00    +0.124 A 
ATOM     33 CL   UNL     1       6.751   1.934  -4.073  0.00  0.00    -0.084 Cl
ENDBRANCH  25  32
ENDBRANCH  24  25
ENDBRANCH  20  24
ENDBRANCH  18  22
ENDBRANCH   1  18
TORSDOF 8
