REMARK  Name = ZINC39992328
REMARK  8 active torsions:
REMARK  status: ('A' for Active; 'I' for Inactive)
REMARK    1  A    between atoms: C_1  and  C_2
REMARK    2  A    between atoms: C_2  and  C_3
REMARK    3  A    between atoms: C_3  and  N_4
REMARK    4  A    between atoms: C_5  and  C_7
REMARK    5  A    between atoms: C_9  and  N_18
REMARK    6  A    between atoms: C_19  and  C_21
REMARK    7  A    between atoms: C_21  and  C_32
REMARK    8  A    between atoms: C_22  and  C_23
REMARK                            x       y       z     vdW  Elec       q    Type
REMARK                         _______ _______ _______ _____ _____    ______ ____
ROOT
ATOM      1  N   UNL     1      -0.542  -5.006  -0.918  0.00  0.00    -0.298 N 
ATOM      2  C   UNL     1      -1.754  -4.621  -0.472  0.00  0.00    +0.255 C 
ATOM      3  O   UNL     1      -2.493  -3.982  -1.197  0.00  0.00    -0.269 OA
ATOM      4  H   UNL     1       0.048  -5.515  -0.340  0.00  0.00    +0.150 HD
ENDROOT
BRANCH   1   6
ATOM      5  C   UNL     1       1.341  -4.130  -2.293  0.00  0.00    +0.132 C 
ATOM      6  C   UNL     1      -0.114  -4.655  -2.274  0.00  0.00    +0.152 C 
ATOM      7  S   UNL     1       0.115  -6.153  -3.321  0.00  0.00    -0.106 S 
ATOM      8  C   UNL     1       1.598  -5.654  -4.165  0.00  0.00    -0.013 C 
ATOM      9  C   UNL     1       2.086  -4.605  -3.515  0.00  0.00    -0.046 C 
ATOM     10  C   UNL     1       3.359  -3.909  -3.993  0.00  0.00    +0.032 C 
ATOM     11  C   UNL     1       4.130  -4.852  -4.915  0.00  0.00    +0.005 C 
ATOM     12  C   UNL     1       3.199  -5.362  -6.019  0.00  0.00    +0.005 C 
ATOM     13  C   UNL     1       2.176  -6.309  -5.388  0.00  0.00    +0.042 C 
BRANCH   5  15
ATOM     14  N   UNL     1       0.738  -1.962  -1.265  0.00  0.00    -0.315 N 
ATOM     15  C   UNL     1       1.321  -2.623  -2.285  0.00  0.00    +0.223 C 
ATOM     16  O   UNL     1       1.829  -2.004  -3.196  0.00  0.00    -0.275 OA
ATOM     17  H   UNL     1       0.332  -2.457  -0.536  0.00  0.00    +0.149 HD
BRANCH  14  18
ATOM     18  C   UNL     1       0.718  -0.497  -1.257  0.00  0.00    +0.104 C 
BRANCH  18  20
ATOM     19  C   UNL     1      -0.019   1.526   0.010  0.00  0.00    +0.005 C 
ATOM     20  C   UNL     1       0.002  -0.004   0.002  0.00  0.00    +0.015 C 
ENDBRANCH  18  20
ENDBRANCH  14  18
ENDBRANCH   5  15
ENDBRANCH   1   6
BRANCH   2  21
ATOM     21  C   UNL     1      -2.184  -4.974   0.892  0.00  0.00    +0.114 C 
ATOM     22  C   UNL     1      -3.431  -4.578   1.350  0.00  0.00    +0.030 C 
BRANCH  22  23
ATOM     23  C   UNL     1      -3.839  -4.913   2.646  0.00  0.00    -0.018 C 
ATOM     24  C   UNL     1      -5.050  -4.601   3.254  0.00  0.00    +0.003 A 
ATOM     25  C   UNL     1      -6.192  -3.897   2.812  0.00  0.00    +0.010 A 
ATOM     26  C   UNL     1      -7.256  -3.739   3.634  0.00  0.00    +0.001 A 
ATOM     27  C   UNL     1      -7.281  -4.253   4.938  0.00  0.00    +0.002 A 
ATOM     28  C   UNL     1      -6.238  -4.942   5.454  0.00  0.00    +0.026 A 
ATOM     29  C   UNL     1      -5.043  -5.158   4.625  0.00  0.00    +0.043 A 
ATOM     30  N   UNL     1      -3.916  -5.773   4.865  0.00  0.00    -0.380 N 
ATOM     31  C   UNL     1      -3.058  -5.697   3.678  0.00  0.00    +0.149 C 
ATOM     32  H   UNL     1      -3.685  -6.215   5.696  0.00  0.00    +0.160 HD
ENDBRANCH  22  23
BRANCH  21  33
ATOM     33  C   UNL     1      -1.314  -5.726   1.745  0.00  0.00    +0.104 C 
ATOM     34  N   UNL     1      -0.623  -6.323   2.422  0.00  0.00    -0.191 NA
ENDBRANCH  21  33
ENDBRANCH   2  21
TORSDOF 7
