REMARK  Name = ZINC13422115
REMARK  11 active torsions:
REMARK  status: ('A' for Active; 'I' for Inactive)
REMARK    1  A    between atoms: C_1  and  C_2
REMARK    2  A    between atoms: C_4  and  C_18
REMARK    3  A    between atoms: C_5  and  C_17
REMARK    4  A    between atoms: N_6  and  C_7
REMARK    5  A    between atoms: C_10  and  O_13
REMARK    6  A    between atoms: O_13  and  C_14
REMARK    7  A    between atoms: C_18  and  C_20
REMARK    8  A    between atoms: C_20  and  O_21
REMARK    9  A    between atoms: O_21  and  C_22
REMARK   10  A    between atoms: C_25  and  C_30
REMARK   11  A    between atoms: C_27  and  C_28
REMARK                            x       y       z     vdW  Elec       q    Type
REMARK                         _______ _______ _______ _____ _____    ______ ____
ROOT
ATOM      1  C   UNL     1      -7.449  -1.178   0.032  0.00  0.00    +0.064 C 
ATOM      2  C   UNL     1      -6.632   0.088   0.035  0.00  0.00    +0.022 A 
ATOM      3  C   UNL     1      -5.290   0.149   0.029  0.00  0.00    +0.034 A 
ATOM      4  C   UNL     1      -4.939   1.576   0.034  0.00  0.00    +0.042 A 
ATOM      5  C   UNL     1      -6.140   2.261   0.049  0.00  0.00    +0.032 A 
ATOM      6  N   UNL     1      -7.139   1.358   0.044  0.00  0.00    -0.317 N 
ATOM      7  C   UNL     1      -6.303   3.760   0.065  0.00  0.00    +0.064 C 
ENDROOT
BRANCH   6   8
ATOM      8  C   UNL     1      -8.505   1.674   0.052  0.00  0.00    +0.047 A 
ATOM      9  C   UNL     1      -9.071   2.336  -1.029  0.00  0.00    +0.030 A 
ATOM     10  C   UNL     1     -10.418   2.643  -1.023  0.00  0.00    +0.048 A 
ATOM     11  C   UNL     1     -11.202   2.299   0.069  0.00  0.00    +0.127 A 
ATOM     12  C   UNL     1     -10.636   1.643   1.152  0.00  0.00    +0.048 A 
ATOM     13  C   UNL     1      -9.291   1.331   1.144  0.00  0.00    +0.030 A 
BRANCH  11  14
ATOM     14  O   UNL     1     -12.527   2.606   0.077  0.00  0.00    -0.434 OA
BRANCH  14  15
ATOM     15  C   UNL     1     -13.043   3.282  -1.072  0.00  0.00    +0.541 C 
ATOM     16  F   UNL     1     -12.376   4.501  -1.234  0.00  0.00    -0.166 F 
ATOM     17  F   UNL     1     -12.848   2.488  -2.207  0.00  0.00    -0.166 F 
ENDBRANCH  14  15
ENDBRANCH  11  14
ENDBRANCH   6   8
BRANCH   4  18
ATOM     18  C   UNL     1      -3.594   2.154   0.031  0.00  0.00    +0.202 C 
ATOM     19  O   UNL     1      -3.451   3.359   0.037  0.00  0.00    -0.288 OA
BRANCH  18  20
ATOM     20  C   UNL     1      -2.387   1.252   0.020  0.00  0.00    +0.308 C 
BRANCH  20  21
ATOM     21  O   UNL     1      -1.199   2.047   0.019  0.00  0.00    -0.483 OA
BRANCH  21  22
ATOM     22  C   UNL     1      -0.017   1.385   0.010  0.00  0.00    +0.135 A 
ATOM     23  C   UNL     1       0.002  -0.004   0.002  0.00  0.00    +0.047 A 
ATOM     24  C   UNL     1       1.200  -0.681  -0.013  0.00  0.00    +0.019 A 
ATOM     25  C   UNL     1       2.409   0.025  -0.021  0.00  0.00    +0.064 A 
ATOM     26  C   UNL     1       2.403   1.418  -0.014  0.00  0.00    +0.034 A 
ATOM     27  C   UNL     1       1.190   2.104   0.002  0.00  0.00    +0.105 A 
BRANCH  27  28
ATOM     28  C   UNL     1       1.173   3.578   0.011  0.00  0.00    +0.390 C 
ATOM     29  O   UNL     1       0.114   4.174   0.024  0.00  0.00    -0.240 OA
ATOM     30  O   UNL     1       2.332   4.265   0.003  0.00  0.00    -0.240 OA
ENDBRANCH  27  28
BRANCH  25  31
ATOM     31  C   UNL     1       3.690  -0.706  -0.037  0.00  0.00    +0.387 C 
ATOM     32  O   UNL     1       4.739  -0.094  -0.045  0.00  0.00    -0.241 OA
ATOM     33  O   UNL     1       3.697  -2.054  -0.044  0.00  0.00    -0.241 OA
ENDBRANCH  25  31
ENDBRANCH  21  22
ENDBRANCH  20  21
ENDBRANCH  18  20
ENDBRANCH   4  18
TORSDOF 9
