REMARK  Name = ZINC13083077
REMARK  12 active torsions:
REMARK  status: ('A' for Active; 'I' for Inactive)
REMARK    1  A    between atoms: C_1  and  C_2
REMARK    2  A    between atoms: C_2  and  C_36
REMARK    3  A    between atoms: C_4  and  N_9
REMARK    4  A    between atoms: C_6  and  C_7
REMARK    5  A    between atoms: C_6  and  C_8
REMARK    6  A    between atoms: N_9  and  C_10
REMARK    7  A    between atoms: C_10  and  C_11
REMARK    8  A    between atoms: C_16  and  O_17
REMARK    9  A    between atoms: O_17  and  C_18
REMARK   10  A    between atoms: C_19  and  C_21
REMARK   11  A    between atoms: N_25  and  C_26
REMARK   12  A    between atoms: C_26  and  C_27
REMARK                            x       y       z     vdW  Elec       q    Type
REMARK                         _______ _______ _______ _____ _____    ______ ____
ROOT
ATOM      1  N   UNL     1      -0.862   1.771   1.146  0.00  0.00    -0.289 N 
ATOM      2  C   UNL     1      -1.826   0.831   1.081  0.00  0.00    +0.264 C 
ATOM      3  O   UNL     1      -1.899   0.101   0.110  0.00  0.00    -0.268 OA
ENDROOT
BRANCH   1   7
ATOM      4  C   UNL     1      -2.111   5.963   1.658  0.00  0.00    -0.010 C 
ATOM      5  C   UNL     1      -2.820   4.792   2.349  0.00  0.00    -0.072 C 
ATOM      6  C   UNL     1      -2.531   3.500   1.589  0.00  0.00    +0.009 C 
ATOM      7  C   UNL     1      -1.106   3.024   1.871  0.00  0.00    +0.074 C 
ATOM      8  C   UNL     1      -0.966   2.772   3.373  0.00  0.00    +0.009 C 
ATOM      9  C   UNL     1      -1.238   4.055   4.155  0.00  0.00    -0.072 C 
ATOM     10  C   UNL     1      -0.033   4.995   4.032  0.00  0.00    -0.010 C 
ATOM     11  C   UNL     1      -1.369   3.671   5.646  0.00  0.00    -0.010 C 
ATOM     12  C   UNL     1      -4.339   5.058   2.254  0.00  0.00    -0.010 C 
ATOM     13  N   UNL     1      -2.507   4.747   3.803  0.00  0.00    +0.386 N 
ATOM     14  H   UNL     1      -3.276   4.263   4.279  0.00  0.00    -0.084 HD
ATOM     15  H   UNL     1      -2.447   5.714   4.145  0.00  0.00    -0.084 HD
ENDBRANCH   1   7
BRANCH   2  16
ATOM     16  C   UNL     1      -2.784   0.688   2.179  0.00  0.00    +0.106 A 
ATOM     17  C   UNL     1      -3.143   1.676   3.070  0.00  0.00    +0.048 A 
ATOM     18  C   UNL     1      -4.070   1.129   3.943  0.00  0.00    +0.038 A 
ATOM     19  C   UNL     1      -4.296  -0.209   3.599  0.00  0.00    +0.057 A 
ATOM     20  N   UNL     1      -3.486  -0.456   2.493  0.00  0.00    -0.331 N 
ATOM     21  C   UNL     1      -5.217  -0.897   4.400  0.00  0.00    +0.034 A 
ATOM     22  C   UNL     1      -5.824  -0.268   5.428  0.00  0.00    +0.048 A 
ATOM     23  S   UNL     1      -5.131   1.375   5.344  0.00  0.00    -0.095 S 
BRANCH  20  24
ATOM     24  C   UNL     1      -3.394  -1.732   1.778  0.00  0.00    +0.157 C 
BRANCH  24  25
ATOM     25  C   UNL     1      -2.408  -2.630   2.479  0.00  0.00    -0.028 A 
ATOM     26  C   UNL     1      -1.065  -2.569   2.156  0.00  0.00    +0.005 A 
ATOM     27  C   UNL     1      -0.161  -3.390   2.803  0.00  0.00    +0.000 A 
ATOM     28  C   UNL     1      -0.600  -4.279   3.765  0.00  0.00    +0.000 A 
ATOM     29  C   UNL     1      -1.943  -4.344   4.085  0.00  0.00    +0.000 A 
ATOM     30  C   UNL     1      -2.847  -3.520   3.442  0.00  0.00    +0.005 A 
ENDBRANCH  24  25
ENDBRANCH  20  24
ENDBRANCH   2  16
BRANCH   1  31
ATOM     31  C   UNL     1       0.429   1.543   0.493  0.00  0.00    +0.147 C 
BRANCH  31  32
ATOM     32  C   UNL     1       0.374   2.057  -0.923  0.00  0.00    +0.012 A 
ATOM     33  C   UNL     1       0.173   1.179  -1.970  0.00  0.00    +0.009 A 
ATOM     34  C   UNL     1       0.122   1.651  -3.269  0.00  0.00    +0.001 A 
ATOM     35  C   UNL     1       0.273   3.002  -3.523  0.00  0.00    +0.004 A 
ATOM     36  C   UNL     1       0.473   3.884  -2.479  0.00  0.00    +0.046 A 
ATOM     37  C   UNL     1       0.520   3.414  -1.174  0.00  0.00    +0.125 A 
BRANCH  37  38
ATOM     38  O   UNL     1       0.713   4.280  -0.145  0.00  0.00    -0.495 OA
ATOM     39  C   UNL     1       0.855   5.662  -0.479  0.00  0.00    +0.277 C 
ENDBRANCH  37  38
ENDBRANCH  31  32
ENDBRANCH   1  31
TORSDOF 7
