REMARK  Name = ZINC01130648
REMARK  10 active torsions:
REMARK  status: ('A' for Active; 'I' for Inactive)
REMARK    1  A    between atoms: C_1  and  C_2
REMARK    2  A    between atoms: C_2  and  C_3
REMARK    3  A    between atoms: C_2  and  C_4
REMARK    4  A    between atoms: C_12  and  N_34
REMARK    5  A    between atoms: C_14  and  S_16
REMARK    6  A    between atoms: S_16  and  C_17
REMARK    7  A    between atoms: C_17  and  C_18
REMARK    8  A    between atoms: N_20  and  C_21
REMARK    9  A    between atoms: C_21  and  C_22
REMARK   10  A    between atoms: C_21  and  C_28
REMARK                            x       y       z     vdW  Elec       q    Type
REMARK                         _______ _______ _______ _____ _____    ______ ____
ROOT
ATOM      1  C   UNL     1       5.199  -2.205  -1.650  0.00  0.00    +0.126 C 
ATOM      2  C   UNL     1       3.922  -2.026  -0.824  0.00  0.00    +0.068 C 
ATOM      3  C   UNL     1       3.630  -0.531  -0.723  0.00  0.00    -0.020 A 
ATOM      4  C   UNL     1       4.609   0.359  -0.991  0.00  0.00    +0.021 A 
ATOM      5  S   UNL     1       3.864   1.948  -0.762  0.00  0.00    -0.071 S 
ATOM      6  C   UNL     1       2.234   1.416  -0.304  0.00  0.00    +0.115 A 
ATOM      7  C   UNL     1       2.325   0.009  -0.345  0.00  0.00    +0.051 A 
ATOM      8  C   UNL     1       1.131  -0.692  -0.013  0.00  0.00    +0.129 A 
ATOM      9  N   UNL     1       0.045  -0.006   0.303  0.00  0.00    -0.207 NA
ATOM     10  C   UNL     1       0.029   1.321   0.321  0.00  0.00    +0.191 A 
ATOM     11  N   UNL     1       1.111   2.027   0.021  0.00  0.00    -0.214 NA
ATOM     12  C   UNL     1       6.014   0.035  -1.394  0.00  0.00    +0.203 C 
ATOM     13  O   UNL     1       6.236  -1.361  -1.141  0.00  0.00    -0.371 OA
ENDROOT
BRANCH   1  15
ATOM     14  C   UNL     1       6.928  -3.846  -2.398  0.00  0.00    +0.010 C 
ATOM     15  C   UNL     1       5.652  -3.664  -1.574  0.00  0.00    +0.012 C 
ATOM     16  C   UNL     1       5.930  -4.036  -0.116  0.00  0.00    +0.010 C 
ENDBRANCH   1  15
BRANCH   8  17
ATOM     17  N   UNL     1       1.108  -2.074  -0.020  0.00  0.00    -0.343 N 
ATOM     18  H   UNL     1       0.264  -2.545   0.058  0.00  0.00    +0.144 HD
ATOM     19  H   UNL     1       1.935  -2.573  -0.104  0.00  0.00    +0.144 HD
ENDBRANCH   8  17
BRANCH  10  20
ATOM     20  S   UNL     1      -1.461   2.162   0.744  0.00  0.00    -0.077 S 
BRANCH  20  21
ATOM     21  C   UNL     1      -2.550   0.745   1.033  0.00  0.00    +0.173 C 
BRANCH  21  22
ATOM     22  C   UNL     1      -3.921   1.236   1.420  0.00  0.00    +0.224 C 
ATOM     23  O   UNL     1      -4.140   2.426   1.494  0.00  0.00    -0.275 OA
ATOM     24  N   UNL     1      -4.903   0.352   1.685  0.00  0.00    -0.304 N 
ATOM     25  H   UNL     1      -4.728  -0.600   1.627  0.00  0.00    +0.150 HD
BRANCH  24  26
ATOM     26  C   UNL     1      -6.236   0.829   2.061  0.00  0.00    +0.134 C 
BRANCH  26  27
ATOM     27  C   UNL     1      -7.262  -0.218   1.713  0.00  0.00    -0.023 A 
ATOM     28  C   UNL     1      -6.981  -1.556   1.921  0.00  0.00    +0.006 A 
ATOM     29  C   UNL     1      -7.924  -2.517   1.606  0.00  0.00    +0.000 A 
ATOM     30  C   UNL     1      -9.143  -2.141   1.074  0.00  0.00    +0.000 A 
ATOM     31  C   UNL     1      -9.421  -0.804   0.861  0.00  0.00    +0.000 A 
ATOM     32  C   UNL     1      -8.481   0.158   1.181  0.00  0.00    +0.006 A 
ENDBRANCH  26  27
BRANCH  26  33
ATOM     33  C   UNL     1      -6.274   1.096   3.544  0.00  0.00    -0.023 A 
ATOM     34  C   UNL     1      -5.644   0.231   4.418  0.00  0.00    +0.006 A 
ATOM     35  C   UNL     1      -5.675   0.478   5.778  0.00  0.00    +0.000 A 
ATOM     36  C   UNL     1      -6.344   1.586   6.264  0.00  0.00    +0.000 A 
ATOM     37  C   UNL     1      -6.979   2.448   5.390  0.00  0.00    +0.000 A 
ATOM     38  C   UNL     1      -6.944   2.204   4.030  0.00  0.00    +0.006 A 
ENDBRANCH  26  33
ENDBRANCH  24  26
ENDBRANCH  21  22
ENDBRANCH  20  21
ENDBRANCH  10  20
TORSDOF 8
