REMARK  Name = ZINC39574371
REMARK  9 active torsions:
REMARK  status: ('A' for Active; 'I' for Inactive)
REMARK    1  A    between atoms: C_1  and  C_2
REMARK    2  A    between atoms: C_3  and  O_23
REMARK    3  A    between atoms: C_6  and  C_9
REMARK    4  A    between atoms: C_7  and  O_8
REMARK    5  A    between atoms: C_11  and  O_16
REMARK    6  A    between atoms: C_12  and  C_15
REMARK    7  A    between atoms: O_16  and  C_17
REMARK    8  A    between atoms: O_23  and  C_24
REMARK    9  A    between atoms: C_24  and  C_25
REMARK                            x       y       z     vdW  Elec       q    Type
REMARK                         _______ _______ _______ _____ _____    ______ ____
ROOT
ATOM      1  C   UNL     1       0.339   1.571   0.029  0.00  0.00    +0.051 C 
ATOM      2  C   UNL     1       0.369   0.065  -0.009  0.00  0.00    +0.033 A 
ATOM      3  C   UNL     1       0.550  -0.596  -1.215  0.00  0.00    +0.127 A 
ATOM      4  C   UNL     1       0.578  -1.983  -1.247  0.00  0.00    +0.046 A 
ATOM      5  C   UNL     1       0.425  -2.705  -0.079  0.00  0.00    +0.013 A 
ATOM      6  C   UNL     1       0.243  -2.049   1.123  0.00  0.00    +0.026 A 
ATOM      7  C   UNL     1       0.222  -0.662   1.162  0.00  0.00    +0.129 A 
ENDROOT
BRANCH   6   8
ATOM      8  C   UNL     1       0.076  -2.841   2.395  0.00  0.00    +0.200 C 
ATOM      9  C   UNL     1       1.394  -2.943   3.143  0.00  0.00    +0.156 C 
ATOM     10  C   UNL     1       1.640  -4.269   3.173  0.00  0.00    +0.098 C 
ATOM     11  N   UNL     1       0.665  -4.946   2.557  0.00  0.00    -0.179 NA
ATOM     12  N   UNL     1      -0.245  -4.247   2.095  0.00  0.00    -0.294 N 
ATOM     13  C   UNL     1       2.849  -4.900   3.814  0.00  0.00    +0.071 C 
ATOM     14  H   UNL     1      -1.030  -4.565   1.622  0.00  0.00    +0.184 HD
BRANCH   9  15
ATOM     15  O   UNL     1       2.142  -1.943   3.656  0.00  0.00    -0.456 OA
BRANCH  15  16
ATOM     16  C   UNL     1       1.633  -1.237   4.699  0.00  0.00    +0.128 A 
ATOM     17  C   UNL     1       0.437  -1.626   5.285  0.00  0.00    +0.046 A 
ATOM     18  C   UNL     1      -0.078  -0.907   6.346  0.00  0.00    +0.004 A 
ATOM     19  C   UNL     1       0.598   0.200   6.825  0.00  0.00    +0.000 A 
ATOM     20  C   UNL     1       1.791   0.590   6.244  0.00  0.00    +0.004 A 
ATOM     21  C   UNL     1       2.313  -0.129   5.186  0.00  0.00    +0.046 A 
ENDBRANCH  15  16
ENDBRANCH   9  15
ENDBRANCH   6   8
BRANCH   7  22
ATOM     22  O   UNL     1       0.050  -0.017   2.345  0.00  0.00    -0.506 OA
ATOM     23  H   UNL     1      -0.875   0.155   2.569  0.00  0.00    +0.292 HD
ENDBRANCH   7  22
BRANCH   3  24
ATOM     24  O   UNL     1       0.700   0.114  -2.364  0.00  0.00    -0.487 OA
BRANCH  24  25
ATOM     25  C   UNL     1       0.883  -0.632  -3.569  0.00  0.00    +0.264 C 
BRANCH  25  26
ATOM     26  C   UNL     1       1.030   0.317  -4.730  0.00  0.00    -0.010 A 
ATOM     27  C   UNL     1      -0.088   0.737  -5.426  0.00  0.00    +0.008 A 
ATOM     28  C   UNL     1       0.047   1.607  -6.491  0.00  0.00    +0.020 A 
ATOM     29  C   UNL     1       1.301   2.058  -6.861  0.00  0.00    +0.041 A 
ATOM     30  C   UNL     1       2.420   1.638  -6.164  0.00  0.00    +0.020 A 
ATOM     31  C   UNL     1       2.284   0.772  -5.095  0.00  0.00    +0.008 A 
ATOM     32 CL   UNL     1       1.471   3.151  -8.199  0.00  0.00    -0.084 Cl
ENDBRANCH  25  26
ENDBRANCH  24  25
ENDBRANCH   3  24
TORSDOF 7
