REMARK  Name = ZINC11867632
REMARK  4 active torsions:
REMARK  status: ('A' for Active; 'I' for Inactive)
REMARK    1  A    between atoms: C_8  and  C_10
REMARK    2  A    between atoms: C_15  and  O_37
REMARK    3  A    between atoms: C_16  and  C_21
REMARK    4  A    between atoms: C_21  and  N_59
REMARK                            x       y       z     vdW  Elec       q    Type
REMARK                         _______ _______ _______ _____ _____    ______ ____
ROOT
ATOM      1  C   UNL     1      -5.724  -1.083  -4.275  0.00  0.00    +0.122 A 
ATOM      2  C   UNL     1      -5.528  -2.442  -4.446  0.00  0.00    +0.032 A 
ATOM      3  C   UNL     1      -4.215  -2.961  -4.330  0.00  0.00    +0.019 A 
ATOM      4  C   UNL     1      -3.982  -4.335  -4.498  0.00  0.00    +0.015 A 
ATOM      5  C   UNL     1      -2.718  -4.830  -4.386  0.00  0.00    +0.046 A 
ATOM      6  C   UNL     1      -1.649  -3.979  -4.110  0.00  0.00    +0.122 A 
ATOM      7  C   UNL     1      -1.858  -2.621  -3.937  0.00  0.00    +0.020 A 
ATOM      8  C   UNL     1      -3.139  -2.098  -4.047  0.00  0.00    +0.144 A 
ATOM      9  O   UNL     1      -3.340  -0.773  -3.881  0.00  0.00    -0.421 OA
ATOM     10  C   UNL     1      -4.566  -0.233  -3.981  0.00  0.00    +0.350 A 
ATOM     11  O   UNL     1      -4.716   0.965  -3.827  0.00  0.00    -0.244 OA
ENDROOT
BRANCH   1  19
ATOM     12  C   UNL     1     -10.888   1.896  -4.588  0.00  0.00    +0.002 A 
ATOM     13  C   UNL     1     -11.415   0.640  -4.850  0.00  0.00    +0.004 A 
ATOM     14  C   UNL     1     -10.594  -0.469  -4.892  0.00  0.00    +0.048 A 
ATOM     15  C   UNL     1      -9.233  -0.329  -4.674  0.00  0.00    +0.156 A 
ATOM     16  C   UNL     1      -8.694   0.940  -4.409  0.00  0.00    +0.110 A 
ATOM     17  C   UNL     1      -9.538   2.054  -4.369  0.00  0.00    +0.031 A 
ATOM     18  N   UNL     1      -7.358   0.770  -4.240  0.00  0.00    -0.209 NA
ATOM     19  C   UNL     1      -7.074  -0.501  -4.385  0.00  0.00    +0.235 A 
ATOM     20  O   UNL     1      -8.195  -1.196  -4.656  0.00  0.00    -0.435 OA
ENDBRANCH   1  19
BRANCH   6  21
ATOM     21  O   UNL     1      -0.394  -4.485  -4.007  0.00  0.00    -0.506 OA
ATOM     22  H   UNL     1      -0.154  -4.762  -3.112  0.00  0.00    +0.292 HD
ENDBRANCH   6  21
BRANCH   7  23
ATOM     23  C   UNL     1      -0.696  -1.711  -3.634  0.00  0.00    -0.036 C 
BRANCH  23  37
ATOM     24  C   UNL     1      -0.291  -2.937  -1.588  0.00  0.00    -0.073 C 
ATOM     25  C   UNL     1      -0.044  -2.832  -0.090  0.00  0.00    -0.007 C 
ATOM     26  C   UNL     1      -1.196  -2.094   0.600  0.00  0.00    +0.011 C 
ATOM     27  C   UNL     1      -1.329  -0.719  -0.066  0.00  0.00    +0.020 C 
ATOM     28  C   UNL     1      -1.661  -0.939  -1.550  0.00  0.00    -0.069 C 
ATOM     29  C   UNL     1       0.002  -0.004   0.002  0.00  0.00    +0.023 A 
ATOM     30  C   UNL     1      -0.016   1.355   0.009  0.00  0.00    +0.022 A 
ATOM     31  C   UNL     1       1.179   2.082   0.002  0.00  0.00    +0.007 A 
ATOM     32  C   UNL     1       2.362   1.404  -0.045  0.00  0.00    +0.070 A 
ATOM     33  C   UNL     1       2.345   0.002  -0.066  0.00  0.00    +0.251 A 
ATOM     34  O   UNL     1       3.393  -0.613  -0.176  0.00  0.00    -0.268 OA
ATOM     35  N   UNL     1       1.175  -0.677   0.036  0.00  0.00    -0.312 N 
ATOM     36  C   UNL     1       1.265  -2.126   0.218  0.00  0.00    +0.126 C 
ATOM     37  N   UNL     1      -0.492  -1.597  -2.176  0.00  0.00    +0.383 N 
ATOM     38  H   UNL     1       0.344  -1.027  -2.000  0.00  0.00    -0.081 HD
ENDBRANCH  23  37
ENDBRANCH   7  23
TORSDOF 4
