REMARK  Name = ZINC22238326
REMARK  6 active torsions:
REMARK  status: ('A' for Active; 'I' for Inactive)
REMARK    1  A    between atoms: C_3  and  O_9
REMARK    2  A    between atoms: O_9  and  C_10
REMARK    3  A    between atoms: C_10  and  C_11
REMARK    4  A    between atoms: C_11  and  N_13
REMARK    5  A    between atoms: C_16  and  C_19
REMARK    6  A    between atoms: C_19  and  N_20
REMARK                            x       y       z     vdW  Elec       q    Type
REMARK                         _______ _______ _______ _____ _____    ______ ____
ROOT
ATOM      1  N   UNL     1       4.996   5.444  -0.018  0.00  0.00    -0.154 NA
ATOM      2  C   UNL     1       6.223   5.971  -0.028  0.00  0.00    +0.163 A 
ATOM      3  N   UNL     1       6.579   7.283  -0.019  0.00  0.00    -0.341 N 
ATOM      4  C   UNL     1       7.900   7.605  -0.030  0.00  0.00    +0.008 A 
ATOM      5  C   UNL     1       8.777   6.595  -0.050  0.00  0.00    +0.067 A 
ATOM      6  S   UNL     1       7.702   5.172  -0.045  0.00  0.00    -0.061 S 
ATOM      7  H   UNL     1       5.902   7.978  -0.005  0.00  0.00    +0.167 HD
ENDROOT
BRANCH   1   8
ATOM      8  C   UNL     1       4.840   4.127  -0.023  0.00  0.00    +0.276 C 
ATOM      9  O   UNL     1       5.814   3.398  -0.036  0.00  0.00    -0.270 OA
BRANCH   8  10
ATOM     10  C   UNL     1       3.455   3.532  -0.013  0.00  0.00    +0.326 C 
BRANCH  10  11
ATOM     11  O   UNL     1       3.548   2.106  -0.021  0.00  0.00    -0.482 OA
BRANCH  11  14
ATOM     12  C   UNL     1      -0.017   1.379   0.010  0.00  0.00    +0.023 A 
ATOM     13  C   UNL     1       1.170   2.087   0.002  0.00  0.00    +0.048 A 
ATOM     14  C   UNL     1       2.380   1.411  -0.013  0.00  0.00    +0.135 A 
ATOM     15  C   UNL     1       2.397   0.023  -0.021  0.00  0.00    +0.061 A 
ATOM     16  C   UNL     1       1.209  -0.681  -0.013  0.00  0.00    +0.039 A 
ATOM     17  C   UNL     1       0.002  -0.004   0.002  0.00  0.00    +0.042 A 
ATOM     18 CL   UNL     1      -1.490  -0.891   0.011  0.00  0.00    -0.084 Cl
ATOM     19 BR   UNL     1       4.046  -0.903  -0.042  0.00  0.00    -0.046 Br
ENDBRANCH  11  14
ENDBRANCH  10  11
ENDBRANCH   8  10
ENDBRANCH   1   8
BRANCH   4  20
ATOM     20  C   UNL     1       8.358   9.040  -0.022  0.00  0.00    -0.024 C 
BRANCH  20  21
ATOM     21  N   UNL     1       7.935   9.696  -1.267  0.00  0.00    +0.383 N 
ATOM     22  C   UNL     1       8.617   9.069  -2.405  0.00  0.00    -0.078 C 
ATOM     23  C   UNL     1       8.120   9.694  -3.710  0.00  0.00    -0.019 C 
ATOM     24  C   UNL     1       8.420  11.195  -3.698  0.00  0.00    -0.004 C 
ATOM     25  C   UNL     1       7.765  11.827  -2.466  0.00  0.00    -0.019 C 
ATOM     26  C   UNL     1       8.275  11.123  -1.207  0.00  0.00    -0.078 C 
ATOM     27  H   UNL     1       6.937   9.594  -1.378  0.00  0.00    -0.081 HD
ENDBRANCH  20  21
ENDBRANCH   4  20
TORSDOF 6
