REMARK  Name = ZINC39539670
REMARK  3 active torsions:
REMARK  status: ('A' for Active; 'I' for Inactive)
REMARK    1  A    between atoms: C_1  and  C_2
REMARK    2  A    between atoms: N_11  and  C_15
REMARK    3  A    between atoms: C_15  and  C_16
REMARK                            x       y       z     vdW  Elec       q    Type
REMARK                         _______ _______ _______ _____ _____    ______ ____
ROOT
ATOM      1  C   UNL     1       3.332   1.546   2.915  0.00  0.00    +0.214 C 
ENDROOT
BRANCH   1  11
ATOM      2  C   UNL     1      -0.019   1.526   0.010  0.00  0.00    +0.010 C 
ATOM      3  C   UNL     1       0.002  -0.004   0.002  0.00  0.00    +0.018 C 
ATOM      4  C   UNL     1       0.718  -0.497  -1.258  0.00  0.00    +0.006 C 
ATOM      5  C   UNL     1       0.756  -2.027  -1.256  0.00  0.00    +0.000 C 
ATOM      6  C   UNL     1       1.519  -2.517  -0.023  0.00  0.00    +0.003 C 
ATOM      7  C   UNL     1       0.807  -2.032   1.242  0.00  0.00    +0.035 C 
ATOM      8  C   UNL     1       0.739  -0.509   1.238  0.00  0.00    +0.115 C 
ATOM      9  C   UNL     1       2.128   0.083   1.303  0.00  0.00    +0.247 C 
ATOM     10  O   UNL     1       3.022  -0.055   0.496  0.00  0.00    -0.273 OA
ATOM     11  N   UNL     1       2.163   0.796   2.447  0.00  0.00    -0.215 N 
ATOM     12  C   UNL     1       0.998   0.734   3.103  0.00  0.00    +0.310 C 
ATOM     13  O   UNL     1       0.786   1.296   4.159  0.00  0.00    -0.252 OA
ATOM     14  N   UNL     1       0.086  -0.021   2.460  0.00  0.00    -0.285 N 
ATOM     15  H   UNL     1      -0.822  -0.205   2.747  0.00  0.00    +0.151 HD
ENDBRANCH   1  11
BRANCH   1  16
ATOM     16  C   UNL     1       3.277   2.951   2.373  0.00  0.00    +0.237 C 
ATOM     17  O   UNL     1       2.353   3.293   1.666  0.00  0.00    -0.274 OA
ATOM     18  N   UNL     1       4.255   3.827   2.674  0.00  0.00    -0.263 N 
ATOM     19  C   UNL     1       4.205   5.124   2.175  0.00  0.00    +0.165 A 
ATOM     20  N   UNL     1       3.288   5.669   1.406  0.00  0.00    -0.229 NA
ATOM     21  C   UNL     1       3.371   6.937   1.000  0.00  0.00    +0.054 A 
ATOM     22  C   UNL     1       4.449   7.602   1.457  0.00  0.00    +0.014 A 
ATOM     23  S   UNL     1       5.302   6.383   2.413  0.00  0.00    -0.057 S 
ATOM     24  C   UNL     1       4.791   9.051   1.228  0.00  0.00    +0.044 C 
ATOM     25  C   UNL     1       5.138   9.198  -0.267  0.00  0.00    +0.005 C 
ATOM     26  C   UNL     1       3.873   9.240  -1.092  0.00  0.00    +0.001 C 
ATOM     27  C   UNL     1       3.111   7.948  -1.231  0.00  0.00    +0.006 C 
ATOM     28  C   UNL     1       2.359   7.585   0.053  0.00  0.00    +0.056 C 
ATOM     29  H   UNL     1       4.995   3.554   3.240  0.00  0.00    +0.157 HD
ENDBRANCH   1  16
TORSDOF 2
