REMARK  Name = ZINC34830409
REMARK  12 active torsions:
REMARK  status: ('A' for Active; 'I' for Inactive)
REMARK    1  A    between atoms: C_1  and  C_2
REMARK    2  A    between atoms: C_2  and  C_3
REMARK    3  A    between atoms: C_3  and  C_4
REMARK    4  A    between atoms: C_4  and  C_5
REMARK    5  A    between atoms: C_5  and  C_7
REMARK    6  A    between atoms: C_5  and  C_9
REMARK    7  A    between atoms: C_7  and  C_8
REMARK    8  A    between atoms: C_18  and  C_20
REMARK    9  A    between atoms: C_20  and  C_22
REMARK   10  A    between atoms: C_20  and  N_23
REMARK   11  A    between atoms: C_31  and  C_33
REMARK   12  A    between atoms: C_38  and  C_39
REMARK                            x       y       z     vdW  Elec       q    Type
REMARK                         _______ _______ _______ _____ _____    ______ ____
ROOT
ATOM      1  C   UNL     1      -8.041  -6.243  -0.072  0.00  0.00    +0.018 C 
ATOM      2  C   UNL     1      -8.794  -5.548  -1.208  0.00  0.00    -0.004 C 
ENDROOT
BRANCH   1  12
ATOM      3  C   UNL     1      -2.267  -6.292  -1.047  0.00  0.00    +0.219 C 
ATOM      4  O   UNL     1      -1.486  -7.195  -1.261  0.00  0.00    -0.275 OA
ATOM      5  N   UNL     1      -3.437  -6.546  -0.429  0.00  0.00    -0.300 N 
ATOM      6  C   UNL     1      -3.730  -7.829   0.107  0.00  0.00    +0.109 C 
ATOM      7  C   UNL     1      -4.299  -8.854  -0.929  0.00  0.00    +0.038 C 
ATOM      8  C   UNL     1      -5.250  -8.065  -1.887  0.00  0.00    +0.109 C 
ATOM      9  N   UNL     1      -6.027  -7.058  -1.254  0.00  0.00    -0.301 N 
ATOM     10  C   UNL     1      -5.502  -5.669  -1.302  0.00  0.00    +0.126 C 
ATOM     11  C   UNL     1      -4.476  -5.495  -0.272  0.00  0.00    +0.126 C 
ATOM     12  C   UNL     1      -7.189  -7.350  -0.637  0.00  0.00    +0.202 C 
ATOM     13  O   UNL     1      -7.550  -8.504  -0.537  0.00  0.00    -0.277 OA
BRANCH   3  14
ATOM     14  C   UNL     1      -1.929  -4.886  -1.473  0.00  0.00    +0.075 C 
BRANCH  14  15
ATOM     15  C   UNL     1      -1.809  -3.994  -0.236  0.00  0.00    +0.009 C 
ATOM     16  C   UNL     1      -0.754  -4.573   0.710  0.00  0.00    +0.004 C 
ENDBRANCH  14  15
BRANCH  14  17
ATOM     17  C   UNL     1      -0.601  -4.888  -2.231  0.00  0.00    +0.013 C 
BRANCH  17  18
ATOM     18  C   UNL     1      -0.322  -3.486  -2.776  0.00  0.00    +0.000 C 
BRANCH  18  20
ATOM     19  C   UNL     1       1.325  -2.065  -4.006  0.00  0.00    +0.004 C 
ATOM     20  C   UNL     1       1.046  -3.467  -3.461  0.00  0.00    -0.003 C 
ENDBRANCH  18  20
ENDBRANCH  17  18
ENDBRANCH  14  17
ENDBRANCH   3  14
ENDBRANCH   1  12
BRANCH   1  21
ATOM     21  N   UNL     1      -9.006  -6.806   0.882  0.00  0.00    +0.395 N 
ATOM     22  C   UNL     1      -9.889  -7.746   0.179  0.00  0.00    -0.071 C 
ATOM     23  C   UNL     1     -11.088  -8.075   1.085  0.00  0.00    +0.024 C 
ATOM     24  C   UNL     1     -10.552  -8.392   2.443  0.00  0.00    -0.010 A 
ATOM     25  C   UNL     1      -9.288  -8.149   2.892  0.00  0.00    -0.047 A 
ATOM     26  C   UNL     1      -9.007  -8.536   4.199  0.00  0.00    +0.010 A 
ATOM     27  C   UNL     1      -9.968  -9.117   4.955  0.00  0.00    +0.045 A 
ATOM     28  S   UNL     1     -11.355  -9.148   3.827  0.00  0.00    -0.101 S 
ATOM     29  C   UNL     1      -8.278  -7.482   1.963  0.00  0.00    -0.005 C 
ATOM     30  H   UNL     1      -9.561  -6.059   1.272  0.00  0.00    -0.079 HD
BRANCH  29  31
ATOM     31  C   UNL     1      -7.470  -6.472   2.737  0.00  0.00    -0.054 A 
ATOM     32  C   UNL     1      -7.886  -5.155   2.798  0.00  0.00    +0.002 A 
ATOM     33  C   UNL     1      -7.145  -4.229   3.508  0.00  0.00    +0.000 A 
ATOM     34  C   UNL     1      -5.988  -4.620   4.157  0.00  0.00    +0.000 A 
ATOM     35  C   UNL     1      -5.573  -5.937   4.096  0.00  0.00    +0.003 A 
ATOM     36  C   UNL     1      -6.317  -6.864   3.389  0.00  0.00    -0.049 A 
ATOM     37  C   UNL     1      -5.867  -8.301   3.327  0.00  0.00    +0.044 C 
ENDBRANCH  29  31
ENDBRANCH   1  21
TORSDOF 8
