REMARK  Name = ZINC05244857
REMARK  3 active torsions:
REMARK  status: ('A' for Active; 'I' for Inactive)
REMARK    1  A    between atoms: C_4  and  C_7
REMARK    2  A    between atoms: C_12  and  C_17
REMARK    3  A    between atoms: C_22  and  O_23
REMARK                            x       y       z     vdW  Elec       q    Type
REMARK                         _______ _______ _______ _____ _____    ______ ____
ROOT
ATOM      1  C   UNL     1       3.711  -0.707  -0.038  0.00  0.00    +0.175 C 
ATOM      2  C   UNL     1       3.816  -1.577   1.196  0.00  0.00    +0.041 C 
ATOM      3  C   UNL     1       3.679  -2.919   1.141  0.00  0.00    +0.020 C 
ATOM      4  C   UNL     1       3.772  -3.760   2.393  0.00  0.00    +0.060 C 
ATOM      5  C   UNL     1       4.732  -3.101   3.385  0.00  0.00    +0.035 C 
ATOM      6  C   UNL     1       4.209  -1.696   3.701  0.00  0.00    +0.088 C 
ATOM      7  C   UNL     1       4.067  -0.927   2.417  0.00  0.00    +0.164 C 
ATOM      8  O   UNL     1       4.173   0.284   2.435  0.00  0.00    -0.292 OA
ATOM      9  N   UNL     1       3.456  -3.577  -0.044  0.00  0.00    -0.287 N 
ATOM     10  C   UNL     1       3.662  -2.881  -1.224  0.00  0.00    +0.218 A 
ATOM     11  N   UNL     1       3.787  -1.533  -1.236  0.00  0.00    -0.221 N 
ATOM     12  N   UNL     1       3.988  -1.169  -2.566  0.00  0.00    -0.156 NA
ATOM     13  C   UNL     1       3.968  -2.275  -3.268  0.00  0.00    +0.247 A 
ATOM     14  N   UNL     1       3.770  -3.308  -2.453  0.00  0.00    -0.201 NA
ATOM     15  H   UNL     1       3.164  -4.502  -0.055  0.00  0.00    +0.155 HD
ENDROOT
BRANCH   1  19
ATOM     16  C   UNL     1      -0.017   1.378   0.010  0.00  0.00    +0.000 A 
ATOM     17  C   UNL     1       1.171   2.086   0.002  0.00  0.00    +0.000 A 
ATOM     18  C   UNL     1       2.377   1.411  -0.013  0.00  0.00    +0.006 A 
ATOM     19  C   UNL     1       2.396   0.029  -0.020  0.00  0.00    -0.018 A 
ATOM     20  C   UNL     1       1.208  -0.679  -0.012  0.00  0.00    +0.006 A 
ATOM     21  C   UNL     1       0.002  -0.004   0.002  0.00  0.00    +0.000 A 
ENDBRANCH   1  19
BRANCH   5  22
ATOM     22  C   UNL     1       4.793  -3.917   4.651  0.00  0.00    -0.002 A 
ATOM     23  C   UNL     1       3.646  -4.135   5.389  0.00  0.00    +0.007 A 
ATOM     24  C   UNL     1       3.702  -4.884   6.550  0.00  0.00    +0.001 A 
ATOM     25  C   UNL     1       4.906  -5.416   6.975  0.00  0.00    +0.004 A 
ATOM     26  C   UNL     1       6.055  -5.201   6.240  0.00  0.00    +0.046 A 
ATOM     27  C   UNL     1       6.001  -4.455   5.072  0.00  0.00    +0.120 A 
BRANCH  27  28
ATOM     28  O   UNL     1       7.129  -4.246   4.344  0.00  0.00    -0.506 OA
ATOM     29  H   UNL     1       7.620  -3.453   4.598  0.00  0.00    +0.292 HD
ENDBRANCH  27  28
ENDBRANCH   5  22
TORSDOF 3
