REMARK  Name = ZINC67294567
REMARK  5 active torsions:
REMARK  status: ('A' for Active; 'I' for Inactive)
REMARK    1  A    between atoms: C_8  and  C_23
REMARK    2  A    between atoms: N_10  and  C_11
REMARK    3  A    between atoms: C_14  and  O_17
REMARK    4  A    between atoms: O_17  and  C_18
REMARK    5  A    between atoms: N_25  and  C_26
REMARK                            x       y       z     vdW  Elec       q    Type
REMARK                         _______ _______ _______ _____ _____    ______ ____
ROOT
ATOM      1  C   UNL     1       0.080   1.386  -0.653  0.00  0.00    +0.001 A 
ATOM      2  C   UNL     1       0.911   2.076   0.217  0.00  0.00    +0.004 A 
ATOM      3  C   UNL     1       2.080   1.503   0.678  0.00  0.00    +0.047 A 
ATOM      4  C   UNL     1       2.428   0.225   0.269  0.00  0.00    +0.137 A 
ATOM      5  C   UNL     1       1.582  -0.476  -0.611  0.00  0.00    +0.018 A 
ATOM      6  C   UNL     1       0.403   0.125  -1.068  0.00  0.00    +0.011 A 
ATOM      7  C   UNL     1       1.947  -1.830  -1.034  0.00  0.00    +0.030 A 
ATOM      8  C   UNL     1       2.969  -2.462  -0.338  0.00  0.00    +0.098 A 
ATOM      9  C   UNL     1       3.596  -1.709   0.766  0.00  0.00    +0.212 A 
ATOM     10  N   UNL     1       4.160  -2.333   1.777  0.00  0.00    -0.325 N 
ATOM     11  O   UNL     1       3.574  -0.353   0.706  0.00  0.00    -0.439 OA
ATOM     12  H   UNL     1       4.016  -3.284   1.901  0.00  0.00    +0.169 HD
ENDROOT
BRANCH  10  13
ATOM     13  C   UNL     1       4.949  -1.640   2.655  0.00  0.00    +0.042 A 
ATOM     14  C   UNL     1       5.894  -0.730   2.178  0.00  0.00    +0.029 A 
ATOM     15  C   UNL     1       6.687  -0.034   3.067  0.00  0.00    +0.048 A 
ATOM     16  C   UNL     1       6.546  -0.237   4.433  0.00  0.00    +0.130 A 
ATOM     17  C   UNL     1       5.608  -1.142   4.911  0.00  0.00    +0.048 A 
ATOM     18  C   UNL     1       4.807  -1.838   4.030  0.00  0.00    +0.029 A 
BRANCH  16  19
ATOM     19  O   UNL     1       7.330   0.451   5.305  0.00  0.00    -0.406 OA
BRANCH  19  20
ATOM     20  C   UNL     1       7.133   0.193   6.696  0.00  0.00    +0.575 C 
ATOM     21  F   UNL     1       7.376  -1.159   6.959  0.00  0.00    -0.133 F 
ATOM     22  F   UNL     1       8.015   0.980   7.446  0.00  0.00    -0.133 F 
ATOM     23  F   UNL     1       5.816   0.507   7.047  0.00  0.00    -0.133 F 
ENDBRANCH  19  20
ENDBRANCH  16  19
ENDBRANCH  10  13
BRANCH   8  24
ATOM     24  C   UNL     1       3.408  -3.824  -0.687  0.00  0.00    +0.253 C 
ATOM     25  O   UNL     1       2.798  -4.464  -1.522  0.00  0.00    -0.270 OA
ATOM     26  N   UNL     1       4.485  -4.360  -0.080  0.00  0.00    -0.281 N 
ATOM     27  H   UNL     1       4.951  -3.863   0.609  0.00  0.00    +0.155 HD
BRANCH  26  28
ATOM     28  C   UNL     1       4.930  -5.635  -0.445  0.00  0.00    +0.034 A 
ATOM     29  C   UNL     1       4.024  -6.586  -0.896  0.00  0.00    +0.025 A 
ATOM     30  C   UNL     1       4.466  -7.844  -1.256  0.00  0.00    +0.022 A 
ATOM     31  C   UNL     1       5.811  -8.157  -1.168  0.00  0.00    +0.041 A 
ATOM     32  C   UNL     1       6.717  -7.212  -0.719  0.00  0.00    +0.022 A 
ATOM     33  C   UNL     1       6.280  -5.951  -0.363  0.00  0.00    +0.025 A 
ATOM     34 CL   UNL     1       6.364  -9.739  -1.620  0.00  0.00    -0.084 Cl
ENDBRANCH  26  28
ENDBRANCH   8  24
TORSDOF 5
