REMARK  Name = ZINC39690720
REMARK  8 active torsions:
REMARK  status: ('A' for Active; 'I' for Inactive)
REMARK    1  A    between atoms: C_1  and  O_2
REMARK    2  A    between atoms: O_2  and  C_3
REMARK    3  A    between atoms: C_6  and  O_33
REMARK    4  A    between atoms: C_7  and  C_9
REMARK    5  A    between atoms: C_13  and  C_22
REMARK    6  A    between atoms: N_24  and  C_25
REMARK    7  A    between atoms: C_25  and  C_26
REMARK    8  A    between atoms: O_33  and  C_34
REMARK                            x       y       z     vdW  Elec       q    Type
REMARK                         _______ _______ _______ _____ _____    ______ ____
ROOT
ATOM      1  C   UNL     1      -2.479  -3.927   0.102  0.00  0.00    +0.250 C 
ATOM      2  O   UNL     1      -3.578  -4.446   0.126  0.00  0.00    -0.270 OA
ATOM      3  N   UNL     1      -1.378  -4.686  -0.067  0.00  0.00    -0.296 N 
ATOM      4  C   UNL     1       0.039  -4.255  -0.016  0.00  0.00    +0.121 C 
ATOM      5  C   UNL     1       0.770  -5.403   0.714  0.00  0.00    +0.100 C 
ATOM      6  C   UNL     1      -0.119  -6.638   0.494  0.00  0.00    -0.004 C 
ATOM      7  C   UNL     1      -1.311  -6.142  -0.338  0.00  0.00    +0.115 C 
ATOM      8  C   UNL     1       0.648  -7.713  -0.270  0.00  0.00    -0.010 C 
ATOM      9  C   UNL     1      -0.237  -8.952  -0.426  0.00  0.00    -0.082 C 
ATOM     10  N   UNL     1      -0.625  -9.449   0.900  0.00  0.00    +0.379 N 
ATOM     11  C   UNL     1      -1.442  -8.444   1.592  0.00  0.00    -0.082 C 
ATOM     12  C   UNL     1      -0.607  -7.183   1.833  0.00  0.00    -0.010 C 
ATOM     13  H   UNL     1      -1.157 -10.300   0.797  0.00  0.00    -0.086 HD
ATOM     14  H   UNL     1       0.204  -9.638   1.443  0.00  0.00    -0.086 HD
ENDROOT
BRANCH   1  19
ATOM     15  C   UNL     1      -1.231  -0.403  -0.270  0.00  0.00    +0.121 A 
ATOM     16  C   UNL     1      -2.112   0.285   0.554  0.00  0.00    +0.049 A 
ATOM     17  C   UNL     1      -3.109  -0.392   1.229  0.00  0.00    +0.050 A 
ATOM     18  C   UNL     1      -3.236  -1.765   1.087  0.00  0.00    +0.132 A 
ATOM     19  C   UNL     1      -2.351  -2.465   0.258  0.00  0.00    +0.082 A 
ATOM     20  C   UNL     1      -1.349  -1.772  -0.425  0.00  0.00    +0.062 A 
BRANCH  15  22
ATOM     21  C   UNL     1      -0.187   1.685  -0.725  0.00  0.00    +0.277 C 
ATOM     22  O   UNL     1      -0.252   0.272  -0.930  0.00  0.00    -0.495 OA
ENDBRANCH  15  22
BRANCH  18  23
ATOM     23  O   UNL     1      -4.216  -2.430   1.752  0.00  0.00    -0.494 OA
ATOM     24  C   UNL     1      -5.082  -1.651   2.580  0.00  0.00    +0.277 C 
ENDBRANCH  18  23
ENDBRANCH   1  19
BRANCH   5  25
ATOM     25  C   UNL     1       2.135  -5.622   0.112  0.00  0.00    +0.218 C 
ATOM     26  O   UNL     1       2.318  -5.410  -1.067  0.00  0.00    -0.275 OA
ATOM     27  N   UNL     1       3.151  -6.054   0.886  0.00  0.00    -0.311 N 
ATOM     28  H   UNL     1       3.004  -6.223   1.829  0.00  0.00    +0.149 HD
BRANCH  27  29
ATOM     29  C   UNL     1       4.477  -6.267   0.301  0.00  0.00    +0.140 C 
BRANCH  29  30
ATOM     30  C   UNL     1       5.426  -6.746   1.369  0.00  0.00    -0.016 A 
ATOM     31  C   UNL     1       6.298  -5.856   1.968  0.00  0.00    +0.006 A 
ATOM     32  C   UNL     1       7.168  -6.296   2.949  0.00  0.00    +0.000 A 
ATOM     33  C   UNL     1       7.167  -7.625   3.330  0.00  0.00    +0.001 A 
ATOM     34  C   UNL     1       6.295  -8.514   2.731  0.00  0.00    +0.015 A 
ATOM     35  C   UNL     1       5.420  -8.074   1.754  0.00  0.00    +0.023 A 
ATOM     36 BR   UNL     1       4.222  -9.290   0.939  0.00  0.00    -0.050 Br
ENDBRANCH  29  30
ENDBRANCH  27  29
ENDBRANCH   5  25
TORSDOF 6
