REMARK  Name = ZINC16570691
REMARK  4 active torsions:
REMARK  status: ('A' for Active; 'I' for Inactive)
REMARK    1  A    between atoms: N_11  and  C_12
REMARK    2  A    between atoms: C_18  and  C_20
REMARK    3  A    between atoms: C_22  and  C_32
REMARK    4  A    between atoms: N_24  and  C_25
REMARK                            x       y       z     vdW  Elec       q    Type
REMARK                         _______ _______ _______ _____ _____    ______ ____
ROOT
ATOM      1  C   UNL     1      -4.216   0.924   0.218  0.00  0.00    +0.095 C 
ATOM      2  C   UNL     1      -4.889   1.582   1.425  0.00  0.00    +0.044 C 
ATOM      3  C   UNL     1      -4.468   3.053   1.500  0.00  0.00    +0.110 C 
ATOM      4  N   UNL     1      -4.769   3.697   0.214  0.00  0.00    -0.296 N 
ATOM      5  C   UNL     1      -4.246   3.094  -1.018  0.00  0.00    +0.110 C 
ATOM      6  C   UNL     1      -4.670   1.622  -1.065  0.00  0.00    +0.044 C 
ATOM      7  C   UNL     1      -5.512   4.821   0.167  0.00  0.00    +0.265 C 
ATOM      8  O   UNL     1      -5.771   5.335  -0.905  0.00  0.00    -0.268 OA
ENDROOT
BRANCH   1  19
ATOM      9  C   UNL     1      -2.504  -4.061   0.300  0.00  0.00    +0.002 A 
ATOM     10  C   UNL     1      -1.735  -2.914   0.386  0.00  0.00    +0.002 A 
ATOM     11  C   UNL     1      -2.334  -1.670   0.347  0.00  0.00    +0.028 A 
ATOM     12  C   UNL     1      -3.712  -1.570   0.223  0.00  0.00    +0.070 A 
ATOM     13  C   UNL     1      -4.487  -2.728   0.136  0.00  0.00    +0.067 A 
ATOM     14  C   UNL     1      -3.877  -3.973   0.176  0.00  0.00    +0.028 A 
ATOM     15  N   UNL     1      -5.813  -2.317   0.021  0.00  0.00    -0.306 N 
ATOM     16  H   UNL     1      -6.584  -2.901  -0.057  0.00  0.00    +0.170 HD
ATOM     17  C   UNL     1      -5.842  -0.971   0.036  0.00  0.00    +0.328 A 
ATOM     18  O   UNL     1      -6.848  -0.291  -0.047  0.00  0.00    -0.247 OA
ATOM     19  N   UNL     1      -4.591  -0.492   0.163  0.00  0.00    -0.289 N 
ENDBRANCH   1  19
BRANCH   7  20
ATOM     20  C   UNL     1      -6.011   5.426   1.412  0.00  0.00    +0.130 A 
ATOM     21  C   UNL     1      -5.429   5.345   2.663  0.00  0.00    +0.063 A 
ATOM     22  C   UNL     1      -6.274   6.079   3.515  0.00  0.00    +0.094 A 
ATOM     23  N   UNL     1      -7.269   6.543   2.786  0.00  0.00    -0.166 NA
ATOM     24  N   UNL     1      -7.141   6.186   1.559  0.00  0.00    -0.227 N 
BRANCH  24  25
ATOM     25  C   UNL     1      -8.026   6.519   0.527  0.00  0.00    +0.066 A 
ATOM     26  C   UNL     1      -7.542   7.061  -0.657  0.00  0.00    +0.029 A 
ATOM     27  C   UNL     1      -8.417   7.384  -1.675  0.00  0.00    +0.022 A 
ATOM     28  C   UNL     1      -9.776   7.180  -1.512  0.00  0.00    +0.041 A 
ATOM     29  C   UNL     1     -10.261   6.646  -0.331  0.00  0.00    +0.022 A 
ATOM     30  C   UNL     1      -9.390   6.316   0.688  0.00  0.00    +0.029 A 
ATOM     31 CL   UNL     1     -10.874   7.594  -2.792  0.00  0.00    -0.084 Cl
ENDBRANCH  24  25
BRANCH  22  32
ATOM     32  C   UNL     1      -6.082   6.292   4.971  0.00  0.00    +0.002 A 
ATOM     33  C   UNL     1      -4.982   5.734   5.619  0.00  0.00    +0.013 A 
ATOM     34  C   UNL     1      -4.804   5.937   6.972  0.00  0.00    +0.039 A 
ATOM     35  C   UNL     1      -5.722   6.688   7.688  0.00  0.00    +0.123 A 
ATOM     36  C   UNL     1      -6.820   7.240   7.049  0.00  0.00    +0.039 A 
ATOM     37  C   UNL     1      -7.003   7.046   5.695  0.00  0.00    +0.013 A 
ATOM     38  F   UNL     1      -5.548   6.880   9.014  0.00  0.00    -0.205 F 
ENDBRANCH  22  32
ENDBRANCH   7  20
TORSDOF 4
