REMARK  Name = ZINC38677612
REMARK  9 active torsions:
REMARK  status: ('A' for Active; 'I' for Inactive)
REMARK    1  A    between atoms: C_1  and  C_2
REMARK    2  A    between atoms: C_5  and  N_9
REMARK    3  A    between atoms: C_7  and  C_8
REMARK    4  A    between atoms: C_11  and  C_16
REMARK    5  A    between atoms: N_18  and  C_19
REMARK    6  A    between atoms: C_19  and  C_20
REMARK    7  A    between atoms: C_20  and  C_22
REMARK    8  A    between atoms: C_20  and  N_28
REMARK    9  A    between atoms: N_26  and  C_27
REMARK                            x       y       z     vdW  Elec       q    Type
REMARK                         _______ _______ _______ _____ _____    ______ ____
ROOT
ATOM      1  C   UNL     1      -0.461  -7.497  -1.039  0.00  0.00    +0.218 C 
ATOM      2  O   UNL     1      -1.135  -7.105  -1.968  0.00  0.00    -0.275 OA
ATOM      3  N   UNL     1      -0.275  -8.819  -0.852  0.00  0.00    -0.316 N 
ATOM      4  H   UNL     1       0.263  -9.133  -0.109  0.00  0.00    +0.149 HD
ENDROOT
BRANCH   1   7
ATOM      5  N   UNL     1      -0.346  -4.326   0.761  0.00  0.00    -0.271 N 
ATOM      6  C   UNL     1      -0.179  -5.057  -0.500  0.00  0.00    +0.127 C 
ATOM      7  C   UNL     1       0.167  -6.507  -0.093  0.00  0.00    +0.101 C 
ATOM      8  C   UNL     1      -0.470  -6.601   1.312  0.00  0.00    +0.110 C 
ATOM      9  C   UNL     1      -0.511  -5.168   1.796  0.00  0.00    +0.221 C 
ATOM     10  O   UNL     1      -0.673  -4.829   2.949  0.00  0.00    -0.275 OA
BRANCH   5  15
ATOM     11  C   UNL     1      -0.277   1.329   1.216  0.00  0.00    +0.044 C 
ATOM     12  C   UNL     1      -0.295  -0.173   1.095  0.00  0.00    -0.047 A 
ATOM     13  C   UNL     1      -0.595  -0.951   2.199  0.00  0.00    +0.005 A 
ATOM     14  C   UNL     1      -0.613  -2.328   2.092  0.00  0.00    +0.024 A 
ATOM     15  C   UNL     1      -0.330  -2.931   0.874  0.00  0.00    +0.037 A 
ATOM     16  C   UNL     1      -0.029  -2.148  -0.233  0.00  0.00    +0.027 A 
ATOM     17  C   UNL     1      -0.018  -0.771  -0.120  0.00  0.00    -0.046 A 
ATOM     18  C   UNL     1       0.302   0.080  -1.322  0.00  0.00    +0.044 C 
ENDBRANCH   5  15
ENDBRANCH   1   7
BRANCH   3  19
ATOM     19  C   UNL     1      -0.886  -9.782  -1.771  0.00  0.00    +0.095 C 
BRANCH  19  20
ATOM     20  C   UNL     1      -0.382 -11.189  -1.446  0.00  0.00    -0.003 C 
BRANCH  20  21
ATOM     21  N   UNL     1       1.069 -11.252  -1.666  0.00  0.00    +0.386 N 
ATOM     22  C   UNL     1       1.743 -10.472  -0.610  0.00  0.00    -0.078 C 
ATOM     23  C   UNL     1       3.147 -11.000  -0.453  0.00  0.00    -0.019 C 
ATOM     24  C   UNL     1       4.156 -10.168  -1.267  0.00  0.00    -0.002 C 
ATOM     25  C   UNL     1       3.595  -9.783  -2.651  0.00  0.00    -0.002 C 
ATOM     26  C   UNL     1       2.845 -10.917  -3.303  0.00  0.00    -0.019 C 
ATOM     27  C   UNL     1       1.347 -10.794  -2.955  0.00  0.00    -0.078 C 
ATOM     28  H   UNL     1       1.366 -12.214  -1.594  0.00  0.00    -0.081 HD
ENDBRANCH  20  21
BRANCH  20  29
ATOM     29  C   UNL     1      -1.069 -12.189  -2.339  0.00  0.00    +0.006 A 
ATOM     30  C   UNL     1      -0.459 -13.114  -3.107  0.00  0.00    +0.021 A 
ATOM     31  C   UNL     1      -1.465 -13.837  -3.777  0.00  0.00    +0.019 A 
ATOM     32  C   UNL     1      -2.653 -13.326  -3.394  0.00  0.00    +0.085 A 
ATOM     33  N   UNL     1      -2.416 -12.318  -2.507  0.00  0.00    -0.355 N 
ATOM     34  C   UNL     1      -3.440 -11.504  -1.846  0.00  0.00    +0.148 C 
ENDBRANCH  20  29
ENDBRANCH  19  20
ENDBRANCH   3  19
TORSDOF 6
