REMARK  Name = ZINC01793748
REMARK  7 active torsions:
REMARK  status: ('A' for Active; 'I' for Inactive)
REMARK    1  A    between atoms: C_4  and  C_7
REMARK    2  A    between atoms: C_12  and  O_35
REMARK    3  A    between atoms: C_14  and  O_18
REMARK    4  A    between atoms: O_18  and  C_19
REMARK    5  A    between atoms: C_20  and  N_32
REMARK    6  A    between atoms: C_22  and  C_28
REMARK    7  A    between atoms: C_24  and  N_25
REMARK                            x       y       z     vdW  Elec       q    Type
REMARK                         _______ _______ _______ _____ _____    ______ ____
ROOT
ATOM      1  C   UNL     1      -6.533   2.251  -3.575  0.00  0.00    +0.139 A 
ATOM      2  C   UNL     1      -6.000   1.950  -4.788  0.00  0.00    +0.098 A 
ATOM      3  C   UNL     1      -4.764   1.262  -4.857  0.00  0.00    +0.197 A 
ATOM      4  O   UNL     1      -4.256   0.976  -5.929  0.00  0.00    -0.287 OA
ATOM      5  C   UNL     1      -4.116   0.905  -3.584  0.00  0.00    +0.105 A 
ATOM      6  C   UNL     1      -2.892   0.224  -3.556  0.00  0.00    +0.135 A 
ATOM      7  C   UNL     1      -2.314  -0.088  -2.340  0.00  0.00    +0.092 A 
ATOM      8  C   UNL     1      -2.950   0.263  -1.153  0.00  0.00    +0.136 A 
ATOM      9  C   UNL     1      -4.161   0.938  -1.173  0.00  0.00    +0.093 A 
ATOM     10  C   UNL     1      -4.753   1.264  -2.384  0.00  0.00    +0.146 A 
ATOM     11  O   UNL     1      -5.932   1.921  -2.421  0.00  0.00    -0.454 OA
ENDROOT
BRANCH   1  15
ATOM     12  C   UNL     1     -10.241   4.315  -3.429  0.00  0.00    +0.000 A 
ATOM     13  C   UNL     1      -9.601   3.963  -2.253  0.00  0.00    +0.001 A 
ATOM     14  C   UNL     1      -8.397   3.293  -2.293  0.00  0.00    +0.011 A 
ATOM     15  C   UNL     1      -7.822   2.969  -3.524  0.00  0.00    +0.017 A 
ATOM     16  C   UNL     1      -8.470   3.332  -4.707  0.00  0.00    +0.011 A 
ATOM     17  C   UNL     1      -9.677   3.997  -4.652  0.00  0.00    +0.001 A 
ENDBRANCH   1  15
BRANCH   6  18
ATOM     18  O   UNL     1      -2.276  -0.122  -4.715  0.00  0.00    -0.506 OA
ATOM     19  H   UNL     1      -1.668   0.549  -5.053  0.00  0.00    +0.292 HD
ENDBRANCH   6  18
BRANCH   8  20
ATOM     20  O   UNL     1      -2.376  -0.053   0.035  0.00  0.00    -0.451 OA
BRANCH  20  21
ATOM     21  C   UNL     1      -1.190  -0.715   0.015  0.00  0.00    +0.189 A 
ATOM     22  C   UNL     1      -1.167  -2.102   0.002  0.00  0.00    +0.171 A 
ATOM     23  C   UNL     1       0.041  -2.772  -0.013  0.00  0.00    +0.049 A 
ATOM     24  C   UNL     1       1.227  -2.062  -0.020  0.00  0.00    +0.059 A 
ATOM     25  C   UNL     1       1.207  -0.679  -0.013  0.00  0.00    +0.049 A 
ATOM     26  C   UNL     1       0.002  -0.004   0.002  0.00  0.00    +0.171 A 
BRANCH  24  27
ATOM     27  C   UNL     1       2.543  -2.795  -0.037  0.00  0.00    +0.418 C 
ATOM     28  F   UNL     1       2.963  -3.029   1.277  0.00  0.00    -0.166 F 
ATOM     29  F   UNL     1       2.388  -4.017  -0.701  0.00  0.00    -0.166 F 
ATOM     30  F   UNL     1       3.500  -2.021  -0.702  0.00  0.00    -0.166 F 
ENDBRANCH  24  27
BRANCH  26  31
ATOM     31  N   UNL     1      -0.018   1.476   0.010  0.00  0.00    +0.060 N 
ATOM     32  O   UNL     1       1.028   2.099   0.004  0.00  0.00    -0.126 OA
ATOM     33  O   UNL     1      -1.081   2.071   0.018  0.00  0.00    -0.126 OA
ENDBRANCH  26  31
BRANCH  22  34
ATOM     34  N   UNL     1      -2.437  -2.863   0.011  0.00  0.00    +0.060 N 
ATOM     35  O   UNL     1      -2.417  -4.081   0.005  0.00  0.00    -0.126 OA
ATOM     36  O   UNL     1      -3.501  -2.272   0.024  0.00  0.00    -0.126 OA
ENDBRANCH  22  34
ENDBRANCH  20  21
ENDBRANCH   8  20
TORSDOF 7
