REMARK  Name = ZINC08903722
REMARK  7 active torsions:
REMARK  status: ('A' for Active; 'I' for Inactive)
REMARK    1  A    between atoms: C_1  and  C_2
REMARK    2  A    between atoms: C_5  and  C_30
REMARK    3  A    between atoms: C_6  and  N_8
REMARK    4  A    between atoms: C_9  and  C_11
REMARK    5  A    between atoms: C_11  and  N_12
REMARK    6  A    between atoms: N_21  and  C_22
REMARK    7  A    between atoms: C_25  and  C_29
REMARK                            x       y       z     vdW  Elec       q    Type
REMARK                         _______ _______ _______ _____ _____    ______ ____
ROOT
ATOM      1  N   UNL     1       3.341   7.432  -0.301  0.00  0.00    -0.288 N 
ATOM      2  C   UNL     1       3.269   8.176   0.831  0.00  0.00    +0.205 A 
ATOM      3  N   UNL     1       3.017   9.453   0.823  0.00  0.00    -0.216 NA
ATOM      4  C   UNL     1       2.810  10.126  -0.318  0.00  0.00    +0.190 A 
ATOM      5  C   UNL     1       2.863   9.445  -1.540  0.00  0.00    +0.196 A 
ATOM      6  C   UNL     1       3.153   8.009  -1.511  0.00  0.00    +0.284 A 
ATOM      7  O   UNL     1       3.220   7.357  -2.538  0.00  0.00    -0.265 OA
ATOM      8  N   UNL     1       2.625  10.329  -2.520  0.00  0.00    -0.122 NA
ATOM      9  N   UNL     1       2.428  11.499  -2.020  0.00  0.00    -0.058 NA
ATOM     10  N   UNL     1       2.534  11.427  -0.622  0.00  0.00    -0.194 N 
ENDROOT
BRANCH  10  11
ATOM     11  C   UNL     1       2.386  12.486   0.284  0.00  0.00    +0.071 A 
ATOM     12  C   UNL     1       2.817  13.761  -0.059  0.00  0.00    +0.028 A 
ATOM     13  C   UNL     1       2.670  14.803   0.835  0.00  0.00    +0.007 A 
ATOM     14  C   UNL     1       2.093  14.578   2.072  0.00  0.00    -0.032 A 
ATOM     15  C   UNL     1       1.663  13.309   2.417  0.00  0.00    +0.046 A 
ATOM     16  C   UNL     1       1.802  12.264   1.524  0.00  0.00    +0.048 A 
ATOM     17 CL   UNL     1       0.939  13.031   3.971  0.00  0.00    -0.083 Cl
ATOM     18  C   UNL     1       1.934  15.717   3.046  0.00  0.00    +0.045 C 
ENDBRANCH  10  11
BRANCH   1  19
ATOM     19  C   UNL     1       3.629   5.998  -0.215  0.00  0.00    +0.222 C 
BRANCH  19  21
ATOM     20  N   UNL     1       2.356   3.889   0.001  0.00  0.00    -0.284 N 
ATOM     21  C   UNL     1       2.336   5.233  -0.093  0.00  0.00    +0.237 C 
ATOM     22  O   UNL     1       1.279   5.827  -0.081  0.00  0.00    -0.274 OA
ATOM     23  H   UNL     1       3.202   3.420   0.071  0.00  0.00    +0.155 HD
BRANCH  20  29
ATOM     24  C   UNL     1      -2.390   3.583  -1.245  0.00  0.00    +0.044 C 
ATOM     25  C   UNL     1      -1.161   2.998  -0.600  0.00  0.00    -0.049 A 
ATOM     26  C   UNL     1      -1.217   1.746  -0.015  0.00  0.00    +0.004 A 
ATOM     27  C   UNL     1      -0.093   1.208   0.583  0.00  0.00    +0.005 A 
ATOM     28  C   UNL     1       1.094   1.915   0.589  0.00  0.00    -0.029 A 
ATOM     29  C   UNL     1       1.155   3.170  -0.003  0.00  0.00    +0.037 A 
ATOM     30  C   UNL     1       0.022   3.710  -0.598  0.00  0.00    +0.027 A 
ATOM     31  C   UNL     1       2.321   1.325   1.235  0.00  0.00    +0.045 C 
ENDBRANCH  20  29
ENDBRANCH  19  21
ENDBRANCH   1  19
TORSDOF 4
