REMARK  Name = ZINC21246489
REMARK  12 active torsions:
REMARK  status: ('A' for Active; 'I' for Inactive)
REMARK    1  A    between atoms: C_1  and  C_2
REMARK    2  A    between atoms: C_2  and  O_3
REMARK    3  A    between atoms: O_3  and  C_4
REMARK    4  A    between atoms: C_6  and  C_14
REMARK    5  A    between atoms: C_9  and  O_10
REMARK    6  A    between atoms: O_10  and  C_11
REMARK    7  A    between atoms: C_11  and  C_13
REMARK    8  A    between atoms: C_19  and  C_24
REMARK    9  A    between atoms: C_26  and  O_32
REMARK   10  A    between atoms: C_29  and  O_30
REMARK   11  A    between atoms: O_30  and  C_31
REMARK   12  A    between atoms: O_32  and  C_33
REMARK                            x       y       z     vdW  Elec       q    Type
REMARK                         _______ _______ _______ _____ _____    ______ ____
ROOT
ATOM      1  C   UNL     1       1.118  -2.158  -0.689  0.00  0.00    +0.136 C 
ATOM      2  C   UNL     1       0.970  -0.659  -0.587  0.00  0.00    +0.036 C 
ATOM      3  C   UNL     1      -0.020  -0.006   0.047  0.00  0.00    +0.017 C 
ATOM      4  C   UNL     1      -0.048   1.513   0.071  0.00  0.00    +0.060 C 
ATOM      5  C   UNL     1       1.377   2.062   0.065  0.00  0.00    +0.036 C 
ATOM      6  C   UNL     1       2.064   1.561  -1.212  0.00  0.00    +0.088 C 
ATOM      7  C   UNL     1       2.002   0.063  -1.230  0.00  0.00    +0.163 C 
ATOM      8  O   UNL     1       2.870  -0.552  -1.817  0.00  0.00    -0.292 OA
ATOM      9  N   UNL     1      -1.054  -0.605   0.691  0.00  0.00    -0.316 N 
ATOM     10  C   UNL     1      -0.930  -1.670   1.576  0.00  0.00    +0.052 A 
ATOM     11  C   UNL     1      -1.304  -1.574   2.905  0.00  0.00    +0.025 A 
ATOM     12  C   UNL     1      -1.263  -2.704   3.705  0.00  0.00    +0.002 A 
ATOM     13  C   UNL     1      -0.850  -3.915   3.180  0.00  0.00    +0.002 A 
ATOM     14  C   UNL     1      -0.455  -4.008   1.857  0.00  0.00    +0.025 A 
ATOM     15  C   UNL     1      -0.478  -2.875   1.059  0.00  0.00    +0.049 A 
ATOM     16  N   UNL     1      -0.046  -2.908  -0.266  0.00  0.00    -0.331 N 
ATOM     17  H   UNL     1      -2.082  -0.251   0.527  0.00  0.00    +0.152 HD
ATOM     18  H   UNL     1      -0.603  -3.515  -0.994  0.00  0.00    +0.147 HD
ENDROOT
BRANCH   1  21
ATOM     19  C   UNL     1       4.480  -3.542   0.339  0.00  0.00    +0.163 A 
ATOM     20  C   UNL     1       3.400  -3.153  -0.438  0.00  0.00    +0.055 A 
ATOM     21  C   UNL     1       2.292  -2.581   0.157  0.00  0.00    -0.019 A 
ATOM     22  C   UNL     1       2.259  -2.389   1.526  0.00  0.00    +0.009 A 
ATOM     23  C   UNL     1       3.330  -2.780   2.307  0.00  0.00    +0.050 A 
ATOM     24  C   UNL     1       4.445  -3.355   1.717  0.00  0.00    +0.173 A 
BRANCH  19  25
ATOM     25  O   UNL     1       5.571  -4.105  -0.245  0.00  0.00    -0.489 OA
BRANCH  25  27
ATOM     26  C   UNL     1       6.841  -4.912  -2.136  0.00  0.00    +0.048 C 
ATOM     27  C   UNL     1       5.537  -4.267  -1.664  0.00  0.00    +0.226 C 
ENDBRANCH  25  27
ENDBRANCH  19  25
BRANCH  24  28
ATOM     28  O   UNL     1       5.502  -3.735   2.484  0.00  0.00    -0.422 OA
BRANCH  28  29
ATOM     29  C   UNL     1       6.551  -2.898   2.534  0.00  0.00    +0.309 C 
ATOM     30  O   UNL     1       6.493  -1.823   1.985  0.00  0.00    -0.251 OA
ATOM     31  C   UNL     1       7.800  -3.299   3.276  0.00  0.00    +0.136 C 
ENDBRANCH  28  29
ENDBRANCH  24  28
ENDBRANCH   1  21
BRANCH   5  32
ATOM     32  C   UNL     1       1.345   3.568   0.070  0.00  0.00    +0.002 A 
ATOM     33  C   UNL     1       0.731   4.249  -0.964  0.00  0.00    +0.053 A 
ATOM     34  C   UNL     1       0.696   5.636  -0.957  0.00  0.00    +0.121 A 
ATOM     35  C   UNL     1       1.288   6.339   0.082  0.00  0.00    +0.049 A 
ATOM     36  C   UNL     1       1.907   5.658   1.113  0.00  0.00    +0.049 A 
ATOM     37  C   UNL     1       1.936   4.271   1.108  0.00  0.00    +0.124 A 
BRANCH  37  38
ATOM     38  O   UNL     1       2.545   3.601   2.123  0.00  0.00    -0.495 OA
ATOM     39  C   UNL     1       3.133   4.389   3.160  0.00  0.00    +0.277 C 
ENDBRANCH  37  38
BRANCH  34  40
ATOM     40  O   UNL     1       0.087   6.306  -1.971  0.00  0.00    -0.495 OA
ATOM     41  C   UNL     1       0.095   7.733  -1.903  0.00  0.00    +0.277 C 
ENDBRANCH  34  40
ENDBRANCH   5  32
TORSDOF 8
