REMARK  Name = ZINC39702283
REMARK  12 active torsions:
REMARK  status: ('A' for Active; 'I' for Inactive)
REMARK    1  A    between atoms: C_1  and  C_2
REMARK    2  A    between atoms: C_2  and  C_3
REMARK    3  A    between atoms: N_7  and  C_17
REMARK    4  A    between atoms: C_11  and  C_16
REMARK    5  A    between atoms: C_13  and  C_15
REMARK    6  A    between atoms: C_17  and  C_19
REMARK    7  A    between atoms: C_17  and  C_20
REMARK    8  A    between atoms: N_22  and  C_23
REMARK    9  A    between atoms: C_24  and  C_33
REMARK   10  A    between atoms: C_33  and  O_35
REMARK   11  A    between atoms: O_35  and  C_36
REMARK   12  A    between atoms: C_36  and  C_37
REMARK                            x       y       z     vdW  Elec       q    Type
REMARK                         _______ _______ _______ _____ _____    ______ ____
ROOT
ATOM      1  C   UNL     1      -6.226  -1.076  -0.718  0.00  0.00    +0.240 C 
ATOM      2  O   UNL     1      -5.784  -0.047  -1.183  0.00  0.00    -0.273 OA
ATOM      3  N   UNL     1      -7.537  -1.364  -0.844  0.00  0.00    -0.278 N 
ATOM      4  H   UNL     1      -7.890  -2.187  -0.472  0.00  0.00    +0.155 HD
ENDROOT
BRANCH   3   5
ATOM      5  C   UNL     1      -8.379  -0.484  -1.506  0.00  0.00    +0.086 A 
ATOM      6  C   UNL     1      -9.741  -0.610  -1.725  0.00  0.00    +0.091 A 
ATOM      7  C   UNL     1     -10.404   0.463  -2.454  0.00  0.00    -0.021 A 
ATOM      8  C   UNL     1      -9.577   1.459  -2.833  0.00  0.00    -0.004 A 
ATOM      9  S   UNL     1      -7.985   0.983  -2.220  0.00  0.00    -0.077 S 
ATOM     10  C   UNL     1      -9.925   2.691  -3.608  0.00  0.00    +0.043 C 
ATOM     11  C   UNL     1     -11.161   3.349  -2.979  0.00  0.00    +0.005 C 
ATOM     12  C   UNL     1     -12.409   2.761  -3.630  0.00  0.00    +0.001 C 
ATOM     13  C   UNL     1     -12.171   1.298  -4.001  0.00  0.00    +0.005 C 
ATOM     14  C   UNL     1     -11.896   0.468  -2.751  0.00  0.00    +0.037 C 
BRANCH   6  15
ATOM     15  C   UNL     1     -10.485  -1.776  -1.242  0.00  0.00    +0.342 C 
ATOM     16  O   UNL     1     -10.986  -1.761  -0.134  0.00  0.00    -0.245 OA
BRANCH  15  17
ATOM     17  O   UNL     1     -10.614  -2.865  -2.027  0.00  0.00    -0.461 OA
BRANCH  17  18
ATOM     18  C   UNL     1     -11.352  -3.966  -1.493  0.00  0.00    +0.229 C 
ATOM     19  C   UNL     1     -11.391  -5.100  -2.518  0.00  0.00    +0.048 C 
ENDBRANCH  17  18
ENDBRANCH  15  17
ENDBRANCH   6  15
ENDBRANCH   3   5
BRANCH   1  20
ATOM     20  C   UNL     1      -5.310  -2.032   0.001  0.00  0.00    +0.176 C 
ATOM     21  C   UNL     1      -5.324  -3.386  -0.713  0.00  0.00    +0.041 C 
BRANCH  20  26
ATOM     22  C   UNL     1      -1.425  -0.497   0.084  0.00  0.00    +0.050 A 
ATOM     23  C   UNL     1      -1.990  -0.770  -1.127  0.00  0.00    +0.093 A 
ATOM     24  C   UNL     1      -3.299  -1.288  -1.163  0.00  0.00    +0.256 A 
ATOM     25  O   UNL     1      -3.837  -1.544  -2.228  0.00  0.00    -0.268 OA
ATOM     26  N   UNL     1      -3.947  -1.495   0.003  0.00  0.00    -0.266 N 
ATOM     27  C   UNL     1      -3.331  -1.204   1.178  0.00  0.00    +0.236 A 
ATOM     28  N   UNL     1      -2.106  -0.726   1.206  0.00  0.00    -0.217 NA
ATOM     29  N   UNL     1      -4.003  -1.420   2.369  0.00  0.00    -0.204 N 
ATOM     30  C   UNL     1      -4.853  -0.550   2.979  0.00  0.00    +0.045 A 
ATOM     31  C   UNL     1      -5.295  -1.139   4.113  0.00  0.00    +0.048 A 
ATOM     32  C   UNL     1      -4.700  -2.404   4.203  0.00  0.00    +0.061 A 
ATOM     33  N   UNL     1      -3.933  -2.575   3.159  0.00  0.00    -0.169 NA
ATOM     34  C   UNL     1      -4.914  -3.401   5.313  0.00  0.00    +0.067 C 
ATOM     35  C   UNL     1      -5.234   0.820   2.482  0.00  0.00    +0.066 C 
BRANCH  22  37
ATOM     36  C   UNL     1      -0.086   1.583   0.254  0.00  0.00    +0.010 C 
ATOM     37  C   UNL     1      -0.026   0.057   0.153  0.00  0.00    +0.052 C 
ENDBRANCH  22  37
ENDBRANCH  20  26
ENDBRANCH   1  20
TORSDOF 7
