REMARK  Name = ZINC06300911
REMARK  13 active torsions:
REMARK  status: ('A' for Active; 'I' for Inactive)
REMARK    1  A    between atoms: C_1  and  C_2
REMARK    2  A    between atoms: C_4  and  C_37
REMARK    3  A    between atoms: C_9  and  C_14
REMARK    4  A    between atoms: C_14  and  C_16
REMARK    5  A    between atoms: C_14  and  N_66
REMARK    6  A    between atoms: N_20  and  C_21
REMARK    7  A    between atoms: C_21  and  C_22
REMARK    8  A    between atoms: C_21  and  C_23
REMARK    9  A    between atoms: C_21  and  C_24
REMARK   10  A    between atoms: C_25  and  C_26
REMARK   11  A    between atoms: C_25  and  N_66
REMARK   12  A    between atoms: C_31  and  C_32
REMARK   13  A    between atoms: C_31  and  N_66
REMARK                            x       y       z     vdW  Elec       q    Type
REMARK                         _______ _______ _______ _____ _____    ______ ____
ROOT
ATOM      1  C   UNL     1       0.877   2.999   0.173  0.00  0.00    +0.040 C 
ENDROOT
BRANCH   1  10
ATOM      2  C   UNL     1      -2.853  -3.452  -0.123  0.00  0.00    +0.044 C 
ATOM      3  C   UNL     1      -1.569  -2.670  -0.229  0.00  0.00    -0.050 A 
ATOM      4  C   UNL     1      -0.384  -3.330  -0.526  0.00  0.00    +0.008 A 
ATOM      5  C   UNL     1       0.802  -2.635  -0.628  0.00  0.00    -0.026 A 
ATOM      6  C   UNL     1       0.814  -1.258  -0.431  0.00  0.00    +0.052 A 
ATOM      7  C   UNL     1      -0.389  -0.593  -0.129  0.00  0.00    -0.001 A 
ATOM      8  C   UNL     1      -1.581  -1.318  -0.031  0.00  0.00    +0.013 A 
ATOM      9  C   UNL     1      -0.366   0.857   0.076  0.00  0.00    +0.017 A 
ATOM     10  C   UNL     1       0.819   1.508  -0.032  0.00  0.00    +0.011 A 
ATOM     11  C   UNL     1       1.997   0.793  -0.337  0.00  0.00    +0.251 A 
ATOM     12  O   UNL     1       3.051   1.397  -0.429  0.00  0.00    -0.268 OA
ATOM     13  N   UNL     1       1.986  -0.538  -0.527  0.00  0.00    -0.322 N 
ATOM     14  H   UNL     1       2.814  -0.998  -0.735  0.00  0.00    +0.169 HD
ATOM     15  C   UNL     1       2.080  -3.364  -0.952  0.00  0.00    +0.046 C 
ENDBRANCH   1  10
BRANCH   1  16
ATOM     16  C   UNL     1       1.357   3.662  -1.092  0.00  0.00    +0.143 A 
ATOM     17  N   UNL     1       2.594   3.727  -1.521  0.00  0.00    -0.115 NA
ATOM     18  N   UNL     1       2.595   4.371  -2.637  0.00  0.00    -0.023 NA
ATOM     19  N   UNL     1       1.392   4.726  -2.927  0.00  0.00    -0.043 NA
ATOM     20  N   UNL     1       0.600   4.307  -1.999  0.00  0.00    -0.225 N 
BRANCH  20  21
ATOM     21  C   UNL     1      -0.851   4.498  -1.942  0.00  0.00    +0.059 C 
ATOM     22  C   UNL     1      -1.205   5.367  -0.734  0.00  0.00    +0.036 C 
ATOM     23  C   UNL     1      -1.325   5.188  -3.223  0.00  0.00    +0.036 C 
ATOM     24  C   UNL     1      -1.540   3.138  -1.811  0.00  0.00    +0.036 C 
ENDBRANCH  20  21
ENDBRANCH   1  16
BRANCH   1  25
ATOM     25  N   UNL     1       1.833   3.303   1.260  0.00  0.00    +0.397 N 
ATOM     26  H   UNL     1       2.788   3.165   0.912  0.00  0.00    -0.079 HD
BRANCH  25  27
ATOM     27  C   UNL     1       1.602   2.396   2.404  0.00  0.00    -0.001 C 
BRANCH  27  28
ATOM     28  C   UNL     1       2.688   2.614   3.425  0.00  0.00    +0.089 A 
ATOM     29  C   UNL     1       2.596   3.398   4.515  0.00  0.00    +0.042 A 
ATOM     30  C   UNL     1       3.837   3.310   5.188  0.00  0.00    +0.041 A 
ATOM     31  C   UNL     1       4.612   2.478   4.469  0.00  0.00    +0.195 A 
ATOM     32  O   UNL     1       3.908   2.055   3.406  0.00  0.00    -0.470 OA
ENDBRANCH  27  28
ENDBRANCH  25  27
BRANCH  25  33
ATOM     33  C   UNL     1       1.677   4.708   1.691  0.00  0.00    -0.034 C 
BRANCH  33  34
ATOM     34  C   UNL     1       2.420   5.594   0.723  0.00  0.00    -0.027 A 
ATOM     35  C   UNL     1       1.942   6.287  -0.338  0.00  0.00    +0.009 A 
ATOM     36  C   UNL     1       2.818   7.044  -1.094  0.00  0.00    +0.008 A 
ATOM     37  C   UNL     1       4.129   7.069  -0.751  0.00  0.00    +0.045 A 
ATOM     38  S   UNL     1       4.156   6.007   0.683  0.00  0.00    -0.103 S 
ENDBRANCH  33  34
ENDBRANCH  25  33
ENDBRANCH   1  25
TORSDOF 8
