REMARK  Name = ZINC36029883
REMARK  9 active torsions:
REMARK  status: ('A' for Active; 'I' for Inactive)
REMARK    1  A    between atoms: C_1  and  C_2
REMARK    2  A    between atoms: C_2  and  C_3
REMARK    3  A    between atoms: C_3  and  C_5
REMARK    4  A    between atoms: C_3  and  C_6
REMARK    5  A    between atoms: N_10  and  C_31
REMARK    6  A    between atoms: N_15  and  S_18
REMARK    7  A    between atoms: S_18  and  C_21
REMARK    8  A    between atoms: C_25  and  C_27
REMARK    9  A    between atoms: C_31  and  C_32
REMARK                            x       y       z     vdW  Elec       q    Type
REMARK                         _______ _______ _______ _____ _____    ______ ____
ROOT
ATOM      1  C   UNL     1      -0.778  -3.489   0.926  0.00  0.00    +0.022 C 
ATOM      2  C   UNL     1      -1.544  -4.292  -0.103  0.00  0.00    +0.201 C 
ATOM      3  O   UNL     1      -2.454  -5.059   0.131  0.00  0.00    -0.277 OA
ATOM      4  N   UNL     1      -1.044  -4.009  -1.324  0.00  0.00    -0.309 N 
ATOM      5  C   UNL     1       0.049  -3.042  -1.194  0.00  0.00    +0.006 C 
ATOM      6  N   UNL     1      -0.087  -2.432   0.148  0.00  0.00    +0.401 N 
ATOM      7  C   UNL     1      -0.070  -1.962  -2.267  0.00  0.00    +0.023 C 
ATOM      8  C   UNL     1       0.035  -2.608  -3.652  0.00  0.00    +0.109 C 
ATOM      9  N   UNL     1       1.273  -3.397  -3.712  0.00  0.00    -0.177 NA
ATOM     10  C   UNL     1       1.515  -4.412  -2.678  0.00  0.00    +0.109 C 
ATOM     11  C   UNL     1       1.397  -3.751  -1.301  0.00  0.00    +0.023 C 
ATOM     12  H   UNL     1      -0.650  -1.596   0.104  0.00  0.00    -0.082 HD
ATOM     13  H   UNL     1       0.819  -2.233   0.544  0.00  0.00    -0.082 HD
ENDROOT
BRANCH   9  14
ATOM     14  S   UNL     1       2.375  -3.147  -4.923  0.00  0.00    +0.061 S 
ATOM     15  O   UNL     1       3.119  -4.351  -5.051  0.00  0.00    -0.153 OA
ATOM     16  O   UNL     1       1.661  -2.574  -6.010  0.00  0.00    -0.153 OA
BRANCH  14  17
ATOM     17  C   UNL     1       3.502  -1.917  -4.357  0.00  0.00    +0.106 A 
ATOM     18  C   UNL     1       3.240  -0.580  -4.591  0.00  0.00    +0.028 A 
ATOM     19  C   UNL     1       4.124   0.385  -4.146  0.00  0.00    +0.002 A 
ATOM     20  C   UNL     1       5.270   0.013  -3.467  0.00  0.00    +0.012 A 
ATOM     21  C   UNL     1       5.531  -1.323  -3.232  0.00  0.00    +0.057 A 
ATOM     22  C   UNL     1       4.644  -2.288  -3.673  0.00  0.00    +0.041 A 
BRANCH  21  23
ATOM     23  C   UNL     1       6.779  -1.729  -2.493  0.00  0.00    +0.417 C 
ATOM     24  F   UNL     1       7.510  -0.586  -2.149  0.00  0.00    -0.166 F 
ATOM     25  F   UNL     1       6.428  -2.425  -1.331  0.00  0.00    -0.166 F 
ATOM     26  F   UNL     1       7.560  -2.552  -3.312  0.00  0.00    -0.166 F 
ENDBRANCH  21  23
ENDBRANCH  14  17
ENDBRANCH   9  14
BRANCH   1  27
ATOM     27  C   UNL     1      -1.741  -2.862   1.937  0.00  0.00    -0.020 C 
ATOM     28  C   UNL     1      -2.836  -2.096   1.191  0.00  0.00    +0.006 C 
BRANCH  27  30
ATOM     29  C   UNL     1      -3.245  -3.331   3.877  0.00  0.00    +0.004 C 
ATOM     30  C   UNL     1      -2.378  -3.964   2.786  0.00  0.00    -0.001 C 
ENDBRANCH  27  30
ENDBRANCH   1  27
BRANCH   4  31
ATOM     31  C   UNL     1      -1.521  -4.581  -2.586  0.00  0.00    +0.142 C 
BRANCH  31  32
ATOM     32  C   UNL     1      -2.661  -3.750  -3.115  0.00  0.00    -0.012 A 
ATOM     33  C   UNL     1      -3.587  -3.193  -2.246  0.00  0.00    +0.008 A 
ATOM     34  C   UNL     1      -4.619  -2.435  -2.777  0.00  0.00    +0.020 A 
ATOM     35  C   UNL     1      -4.691  -2.262  -4.147  0.00  0.00    +0.111 A 
ATOM     36  N   UNL     1      -3.793  -2.807  -4.944  0.00  0.00    -0.263 NA
ATOM     37  C   UNL     1      -2.794  -3.529  -4.473  0.00  0.00    +0.115 A 
ENDBRANCH  31  32
ENDBRANCH   4  31
TORSDOF 7
