REMARK  Name = ZINC19236498
REMARK  11 active torsions:
REMARK  status: ('A' for Active; 'I' for Inactive)
REMARK    1  A    between atoms: C_1  and  C_2
REMARK    2  A    between atoms: C_12  and  C_14
REMARK    3  A    between atoms: C_14  and  N_15
REMARK    4  A    between atoms: N_15  and  C_16
REMARK    5  A    between atoms: N_15  and  C_22
REMARK    6  A    between atoms: C_16  and  C_17
REMARK    7  A    between atoms: C_22  and  C_24
REMARK    8  A    between atoms: C_22  and  C_34
REMARK    9  A    between atoms: N_28  and  C_29
REMARK   10  A    between atoms: C_34  and  C_35
REMARK   11  A    between atoms: C_34  and  C_36
REMARK                            x       y       z     vdW  Elec       q    Type
REMARK                         _______ _______ _______ _____ _____    ______ ____
ROOT
ATOM      1  N   UNL     1       1.510  -3.079   5.394  0.00  0.00    +0.392 N 
ATOM      2  H   UNL     1       2.049  -3.512   4.659  0.00  0.00    -0.080 HD
ENDROOT
BRANCH   1   3
ATOM      3  C   UNL     1       0.155  -2.792   4.904  0.00  0.00    -0.036 C 
BRANCH   3  15
ATOM      4  C   UNL     1       0.634   1.507  -0.045  0.00  0.00    +0.046 C 
ATOM      5  C   UNL     1       0.488   0.007  -0.040  0.00  0.00    -0.026 A 
ATOM      6  C   UNL     1       0.439  -0.687  -1.230  0.00  0.00    +0.005 A 
ATOM      7  C   UNL     1       0.304  -2.069  -1.239  0.00  0.00    +0.001 A 
ATOM      8  C   UNL     1       0.216  -2.767  -0.068  0.00  0.00    +0.010 A 
ATOM      9  C   UNL     1       0.264  -2.083   1.151  0.00  0.00    -0.001 A 
ATOM     10  C   UNL     1       0.406  -0.683   1.165  0.00  0.00    +0.052 A 
ATOM     11  N   UNL     1       0.458  -0.014   2.370  0.00  0.00    -0.322 N 
ATOM     12  H   UNL     1       0.552   0.951   2.377  0.00  0.00    +0.169 HD
ATOM     13  C   UNL     1       0.379  -0.681   3.534  0.00  0.00    +0.251 A 
ATOM     14  O   UNL     1       0.426  -0.058   4.581  0.00  0.00    -0.268 OA
ATOM     15  C   UNL     1       0.241  -2.086   3.576  0.00  0.00    +0.001 A 
ATOM     16  C   UNL     1       0.173  -2.800   2.425  0.00  0.00    +0.017 A 
ENDBRANCH   3  15
ENDBRANCH   1   3
BRANCH   1  17
ATOM     17  C   UNL     1       2.158  -1.826   5.803  0.00  0.00    -0.034 C 
BRANCH  17  18
ATOM     18  C   UNL     1       1.452  -1.266   7.012  0.00  0.00    -0.027 A 
ATOM     19  C   UNL     1       1.764  -1.408   8.324  0.00  0.00    +0.009 A 
ATOM     20  C   UNL     1       0.964  -0.797   9.272  0.00  0.00    +0.008 A 
ATOM     21  C   UNL     1      -0.108  -0.076   8.862  0.00  0.00    +0.045 A 
ATOM     22  S   UNL     1      -0.006  -0.240   7.087  0.00  0.00    -0.103 S 
ENDBRANCH  17  18
ENDBRANCH   1  17
BRANCH   1  23
ATOM     23  C   UNL     1       1.433  -3.989   6.545  0.00  0.00    +0.006 C 
BRANCH  23  24
ATOM     24  C   UNL     1       0.672  -5.229   6.154  0.00  0.00    +0.139 A 
ATOM     25  N   UNL     1       0.824  -5.928   5.056  0.00  0.00    -0.115 NA
ATOM     26  N   UNL     1      -0.007  -6.911   5.091  0.00  0.00    -0.023 NA
ATOM     27  N   UNL     1      -0.686  -6.859   6.183  0.00  0.00    -0.044 NA
ATOM     28  N   UNL     1      -0.293  -5.838   6.869  0.00  0.00    -0.228 N 
BRANCH  28  29
ATOM     29  C   UNL     1      -0.804  -5.420   8.176  0.00  0.00    +0.111 C 
ATOM     30  C   UNL     1      -0.644  -6.565   9.197  0.00  0.00    +0.027 C 
ATOM     31  C   UNL     1      -1.916  -6.470  10.076  0.00  0.00    +0.002 C 
ATOM     32  C   UNL     1      -3.014  -6.094   9.050  0.00  0.00    +0.002 C 
ATOM     33  C   UNL     1      -2.310  -5.120   8.083  0.00  0.00    +0.027 C 
ENDBRANCH  28  29
ENDBRANCH  23  24
BRANCH  23  34
ATOM     34  C   UNL     1       2.846  -4.375   6.986  0.00  0.00    -0.024 C 
ATOM     35  C   UNL     1       2.764  -5.386   8.131  0.00  0.00    +0.006 C 
ATOM     36  C   UNL     1       3.595  -4.998   5.807  0.00  0.00    +0.006 C 
ENDBRANCH  23  34
ENDBRANCH   1  23
TORSDOF 8
