REMARK  Name = ZINC40313416
REMARK  7 active torsions:
REMARK  status: ('A' for Active; 'I' for Inactive)
REMARK    1  A    between atoms: C_1  and  C_2
REMARK    2  A    between atoms: C_3  and  C_19
REMARK    3  A    between atoms: C_5  and  N_9
REMARK    4  A    between atoms: C_6  and  C_7
REMARK    5  A    between atoms: C_10  and  C_12
REMARK    6  A    between atoms: C_14  and  N_18
REMARK    7  A    between atoms: N_16  and  C_17
REMARK                            x       y       z     vdW  Elec       q    Type
REMARK                         _______ _______ _______ _____ _____    ______ ____
ROOT
ATOM      1  N   UNL     1       0.089  -3.114   2.082  0.00  0.00    -0.274 N 
ATOM      2  C   UNL     1       0.096  -4.423   1.762  0.00  0.00    +0.265 C 
ATOM      3  O   UNL     1       0.007  -4.765   0.597  0.00  0.00    -0.268 OA
ATOM      4  H   UNL     1       0.083  -2.843   3.014  0.00  0.00    +0.156 HD
ENDROOT
BRANCH   1   9
ATOM      5  C   UNL     1       0.082   1.506   0.011  0.00  0.00    +0.046 C 
ATOM      6  C   UNL     1       0.087  -0.001   0.002  0.00  0.00    -0.021 A 
ATOM      7  C   UNL     1       0.096  -0.710  -1.143  0.00  0.00    -0.007 A 
ATOM      8  S   UNL     1       0.100  -2.397  -0.579  0.00  0.00    -0.077 S 
ATOM      9  C   UNL     1       0.090  -2.155   1.081  0.00  0.00    +0.090 A 
ATOM     10  C   UNL     1       0.090  -0.775   1.222  0.00  0.00    +0.083 A 
ATOM     11  C   UNL     1       0.101  -0.197  -2.560  0.00  0.00    +0.052 C 
BRANCH  10  12
ATOM     12  C   UNL     1       0.088  -0.150   2.510  0.00  0.00    +0.102 C 
ATOM     13  N   UNL     1       0.086   0.346   3.532  0.00  0.00    -0.191 NA
ENDBRANCH  10  12
ENDBRANCH   1   9
BRANCH   2  14
ATOM     14  C   UNL     1       0.212  -5.435   2.816  0.00  0.00    +0.106 A 
ATOM     15  C   UNL     1       0.224  -5.197   4.175  0.00  0.00    +0.055 A 
ATOM     16  C   UNL     1       0.349  -6.441   4.810  0.00  0.00    +0.043 A 
ATOM     17  C   UNL     1       0.410  -7.395   3.845  0.00  0.00    +0.108 A 
ATOM     18  N   UNL     1       0.322  -6.794   2.629  0.00  0.00    -0.344 N 
ATOM     19  C   UNL     1       0.345  -7.478   1.334  0.00  0.00    +0.149 C 
BRANCH  16  20
ATOM     20  N   UNL     1       0.402  -6.661   6.199  0.00  0.00    -0.357 N 
ATOM     21  H   UNL     1       0.351  -5.910   6.812  0.00  0.00    +0.142 HD
ATOM     22  H   UNL     1       0.491  -7.563   6.544  0.00  0.00    +0.142 HD
ENDBRANCH  16  20
ENDBRANCH   2  14
TORSDOF 4
