REMARK  Name = ZINC39325522
REMARK  10 active torsions:
REMARK  status: ('A' for Active; 'I' for Inactive)
REMARK    1  A    between atoms: C_1  and  C_2
REMARK    2  A    between atoms: C_8  and  C_14
REMARK    3  A    between atoms: C_14  and  N_15
REMARK    4  A    between atoms: N_15  and  C_16
REMARK    5  A    between atoms: N_15  and  S_24
REMARK    6  A    between atoms: C_16  and  C_17
REMARK    7  A    between atoms: S_24  and  C_27
REMARK    8  A    between atoms: C_30  and  C_33
REMARK    9  A    between atoms: C_33  and  O_35
REMARK   10  A    between atoms: O_35  and  C_36
REMARK                            x       y       z     vdW  Elec       q    Type
REMARK                         _______ _______ _______ _____ _____    ______ ____
ROOT
ATOM      1  N   UNL     1       1.271  -1.833   5.710  0.00  0.00    -0.171 NA
ENDROOT
BRANCH   1   2
ATOM      2  S   UNL     1       2.009  -0.353   5.796  0.00  0.00    +0.061 S 
ATOM      3  O   UNL     1       2.445  -0.194   7.139  0.00  0.00    -0.153 OA
ATOM      4  O   UNL     1       2.900  -0.279   4.692  0.00  0.00    -0.153 OA
BRANCH   2   5
ATOM      5  C   UNL     1       0.765   0.865   5.523  0.00  0.00    +0.106 A 
ATOM      6  C   UNL     1       0.580   1.387   4.255  0.00  0.00    +0.029 A 
ATOM      7  C   UNL     1      -0.392   2.341   4.035  0.00  0.00    +0.017 A 
ATOM      8  C   UNL     1      -1.189   2.780   5.094  0.00  0.00    +0.059 A 
ATOM      9  C   UNL     1      -0.996   2.249   6.371  0.00  0.00    +0.017 A 
ATOM     10  C   UNL     1      -0.024   1.291   6.577  0.00  0.00    +0.029 A 
BRANCH   8  11
ATOM     11  C   UNL     1      -2.231   3.802   4.865  0.00  0.00    +0.339 C 
ATOM     12  O   UNL     1      -2.396   4.262   3.753  0.00  0.00    -0.245 OA
BRANCH  11  13
ATOM     13  O   UNL     1      -2.998   4.223   5.889  0.00  0.00    -0.464 OA
ATOM     14  C   UNL     1      -3.986   5.213   5.596  0.00  0.00    +0.280 C 
ENDBRANCH  11  13
ENDBRANCH   8  11
ENDBRANCH   2   5
ENDBRANCH   1   2
BRANCH   1  15
ATOM     15  C   UNL     1       1.301  -2.595   4.460  0.00  0.00    +0.126 C 
BRANCH  15  23
ATOM     16  C   UNL     1      -2.473   0.233   0.532  0.00  0.00    +0.045 C 
ATOM     17  C   UNL     1      -1.807  -1.118   0.478  0.00  0.00    -0.029 A 
ATOM     18  C   UNL     1      -1.748  -1.793  -0.699  0.00  0.00    +0.005 A 
ATOM     19  C   UNL     1      -1.147  -3.046  -0.819  0.00  0.00    +0.001 A 
ATOM     20  C   UNL     1      -0.581  -3.664   0.250  0.00  0.00    +0.009 A 
ATOM     21  C   UNL     1      -0.609  -2.991   1.550  0.00  0.00    -0.007 A 
ATOM     22  C   UNL     1      -0.053  -3.573   2.651  0.00  0.00    -0.003 C 
ATOM     23  C   UNL     1      -0.128  -2.805   3.955  0.00  0.00    +0.114 C 
ATOM     24  C   UNL     1      -0.812  -1.457   3.930  0.00  0.00    +0.225 C 
ATOM     25  O   UNL     1      -0.900  -0.797   4.948  0.00  0.00    -0.275 OA
ATOM     26  N   UNL     1      -1.314  -0.997   2.796  0.00  0.00    -0.284 N 
ATOM     27  C   UNL     1      -1.246  -1.667   1.645  0.00  0.00    +0.043 A 
ATOM     28  H   UNL     1      -1.749  -0.130   2.801  0.00  0.00    +0.155 HD
ENDBRANCH  15  23
ENDBRANCH   1  15
BRANCH   1  29
ATOM     29  C   UNL     1       0.588  -2.381   6.885  0.00  0.00    +0.144 C 
BRANCH  29  30
ATOM     30  C   UNL     1       1.527  -3.293   7.632  0.00  0.00    -0.031 A 
ATOM     31  C   UNL     1       1.580  -4.638   7.317  0.00  0.00    +0.008 A 
ATOM     32  C   UNL     1       2.441  -5.475   8.001  0.00  0.00    +0.038 A 
ATOM     33  C   UNL     1       3.250  -4.967   9.002  0.00  0.00    +0.123 A 
ATOM     34  C   UNL     1       3.196  -3.620   9.317  0.00  0.00    +0.038 A 
ATOM     35  C   UNL     1       2.339  -2.783   8.629  0.00  0.00    +0.008 A 
ATOM     36  F   UNL     1       4.092  -5.785   9.672  0.00  0.00    -0.205 F 
ENDBRANCH  29  30
ENDBRANCH   1  29
TORSDOF 8
