REMARK  Name = ZINC01828172
REMARK  8 active torsions:
REMARK  status: ('A' for Active; 'I' for Inactive)
REMARK    1  A    between atoms: C_1  and  C_2
REMARK    2  A    between atoms: C_2  and  O_3
REMARK    3  A    between atoms: O_3  and  C_4
REMARK    4  A    between atoms: C_4  and  C_6
REMARK    5  A    between atoms: C_7  and  N_37
REMARK    6  A    between atoms: C_12  and  C_13
REMARK    7  A    between atoms: C_23  and  C_34
REMARK    8  A    between atoms: C_24  and  C_26
REMARK                            x       y       z     vdW  Elec       q    Type
REMARK                         _______ _______ _______ _____ _____    ______ ____
ROOT
ATOM      1  C   UNL     1       0.547  -2.223  -2.789  0.00  0.00    +0.087 C 
ATOM      2  C   UNL     1       0.726  -3.557  -2.941  0.00  0.00    +0.115 C 
ATOM      3  N   UNL     1       1.433  -4.128  -4.003  0.00  0.00    -0.257 N 
ATOM      4  C   UNL     1       1.605  -5.457  -4.145  0.00  0.00    +0.271 A 
ATOM      5  O   UNL     1       1.140  -6.236  -3.333  0.00  0.00    -0.266 OA
ATOM      6  C   UNL     1       2.365  -5.944  -5.302  0.00  0.00    +0.080 A 
ATOM      7  C   UNL     1       2.669  -7.218  -5.659  0.00  0.00    +0.030 C 
ATOM      8  S   UNL     1       2.781  -4.409  -6.113  0.00  0.00    -0.065 S 
ATOM      9  C   UNL     1       1.987  -3.304  -4.963  0.00  0.00    +0.099 A 
ATOM     10  C   UNL     1       1.897  -1.949  -4.954  0.00  0.00    +0.057 C 
ATOM     11  C   UNL     1       1.135  -1.286  -3.824  0.00  0.00    +0.098 C 
ENDROOT
BRANCH   7  12
ATOM     12  C   UNL     1       3.298  -7.486  -6.960  0.00  0.00    -0.005 A 
ATOM     13  C   UNL     1       3.129  -6.589  -8.021  0.00  0.00    +0.011 A 
ATOM     14  C   UNL     1       3.722  -6.847  -9.238  0.00  0.00    +0.020 A 
ATOM     15  C   UNL     1       4.485  -7.990  -9.413  0.00  0.00    +0.042 A 
ATOM     16  C   UNL     1       4.658  -8.883  -8.368  0.00  0.00    +0.040 A 
ATOM     17  C   UNL     1       4.075  -8.637  -7.142  0.00  0.00    +0.050 A 
ATOM     18 CL   UNL     1       4.299  -9.753  -5.832  0.00  0.00    -0.083 Cl
ATOM     19 CL   UNL     1       5.227  -8.306 -10.950  0.00  0.00    -0.083 Cl
ENDBRANCH   7  12
BRANCH  11  20
ATOM     20  C   UNL     1       2.072  -0.336  -3.123  0.00  0.00    -0.017 A 
ATOM     21  C   UNL     1       3.167  -0.827  -2.437  0.00  0.00    +0.007 A 
ATOM     22  C   UNL     1       4.027   0.043  -1.794  0.00  0.00    +0.020 A 
ATOM     23  C   UNL     1       3.792   1.406  -1.836  0.00  0.00    +0.042 A 
ATOM     24  C   UNL     1       2.697   1.897  -2.522  0.00  0.00    +0.040 A 
ATOM     25  C   UNL     1       1.839   1.026  -3.170  0.00  0.00    +0.046 A 
ATOM     26 CL   UNL     1       0.467   1.643  -4.037  0.00  0.00    -0.083 Cl
ATOM     27 CL   UNL     1       4.872   2.498  -1.028  0.00  0.00    -0.083 Cl
ENDBRANCH  11  20
BRANCH  10  28
ATOM     28  C   UNL     1       2.491  -1.182  -5.969  0.00  0.00    +0.241 C 
ATOM     29  O   UNL     1       3.096  -1.731  -6.874  0.00  0.00    -0.271 OA
ATOM     30  N   UNL     1       2.392   0.162  -5.944  0.00  0.00    -0.326 N 
ATOM     31  H   UNL     1       1.911   0.600  -5.224  0.00  0.00    +0.145 HD
ATOM     32  H   UNL     1       2.802   0.692  -6.645  0.00  0.00    +0.145 HD
ENDBRANCH  10  28
BRANCH   2  33
ATOM     33  N   UNL     1       0.185  -4.393  -2.001  0.00  0.00    -0.344 N 
ATOM     34  H   UNL     1      -0.720  -4.246  -1.684  0.00  0.00    +0.144 HD
ATOM     35  H   UNL     1       0.707  -5.133  -1.651  0.00  0.00    +0.144 HD
ENDBRANCH   2  33
BRANCH   1  36
ATOM     36  C   UNL     1      -0.174  -1.719  -1.696  0.00  0.00    +0.339 C 
ATOM     37  O   UNL     1      -0.553  -2.473  -0.817  0.00  0.00    -0.245 OA
BRANCH  36  38
ATOM     38  O   UNL     1      -0.448  -0.399  -1.618  0.00  0.00    -0.462 OA
BRANCH  38  40
ATOM     39  C   UNL     1      -1.397   1.558  -0.564  0.00  0.00    +0.048 C 
ATOM     40  C   UNL     1      -1.186   0.045  -0.477  0.00  0.00    +0.229 C 
ENDBRANCH  38  40
ENDBRANCH  36  38
ENDBRANCH   1  36
TORSDOF 7
