REMARK  Name = ZINC18199061
REMARK  6 active torsions:
REMARK  status: ('A' for Active; 'I' for Inactive)
REMARK    1  A    between atoms: C_1  and  O_2
REMARK    2  A    between atoms: O_2  and  C_3
REMARK    3  A    between atoms: C_6  and  C_11
REMARK    4  A    between atoms: C_8  and  O_9
REMARK    5  A    between atoms: O_9  and  C_10
REMARK    6  A    between atoms: C_16  and  C_25
REMARK                            x       y       z     vdW  Elec       q    Type
REMARK                         _______ _______ _______ _____ _____    ______ ____
ROOT
ATOM      1  C   UNL     1      -2.399   1.297  -0.696  0.00  0.00    +0.032 C 
ATOM      2  C   UNL     1      -1.322   2.104   0.032  0.00  0.00    +0.060 C 
ATOM      3  C   UNL     1      -0.016   1.346   0.009  0.00  0.00    +0.020 C 
ATOM      4  C   UNL     1       0.002  -0.004   0.002  0.00  0.00    +0.041 C 
ATOM      5  C   UNL     1       1.294  -0.791  -0.017  0.00  0.00    +0.175 C 
ATOM      6  N   UNL     1       2.416   0.085   0.298  0.00  0.00    -0.219 N 
ATOM      7  C   UNL     1       2.330   1.438   0.297  0.00  0.00    +0.220 A 
ATOM      8  N   UNL     1       3.502   1.919   0.611  0.00  0.00    -0.180 NA
ATOM      9  C   UNL     1       4.359   0.910   0.823  0.00  0.00    +0.233 A 
ATOM     10  N   UNL     1       3.730  -0.231   0.642  0.00  0.00    -0.132 NA
ATOM     11  N   UNL     1       5.701   1.048   1.179  0.00  0.00    -0.326 N 
ATOM     12  N   UNL     1       1.142   2.086   0.002  0.00  0.00    -0.287 N 
ATOM     13  C   UNL     1      -1.196  -0.742   0.008  0.00  0.00    +0.164 C 
ATOM     14  O   UNL     1      -1.145  -1.956   0.022  0.00  0.00    -0.292 OA
ATOM     15  C   UNL     1      -2.536  -0.061  -0.001  0.00  0.00    +0.088 C 
ATOM     16  H   UNL     1       6.084   1.931   1.293  0.00  0.00    +0.145 HD
ATOM     17  H   UNL     1       6.250   0.260   1.313  0.00  0.00    +0.145 HD
ATOM     18  H   UNL     1       1.128   3.034  -0.203  0.00  0.00    +0.155 HD
ENDROOT
BRANCH   5  19
ATOM     19  C   UNL     1       1.495  -1.388  -1.386  0.00  0.00    -0.018 A 
ATOM     20  C   UNL     1       1.581  -0.565  -2.494  0.00  0.00    +0.007 A 
ATOM     21  C   UNL     1       1.771  -1.113  -3.748  0.00  0.00    +0.015 A 
ATOM     22  C   UNL     1       1.863  -2.485  -3.897  0.00  0.00    +0.018 A 
ATOM     23  C   UNL     1       1.772  -3.308  -2.790  0.00  0.00    +0.015 A 
ATOM     24  C   UNL     1       1.588  -2.760  -1.534  0.00  0.00    +0.007 A 
ATOM     25 BR   UNL     1       2.116  -3.235  -5.615  0.00  0.00    -0.050 Br
ENDBRANCH   5  19
BRANCH   1  29
ATOM     26  C   UNL     1      -6.128   3.385  -0.522  0.00  0.00    +0.161 A 
ATOM     27  C   UNL     1      -5.481   3.016   0.647  0.00  0.00    +0.049 A 
ATOM     28  C   UNL     1      -4.279   2.337   0.587  0.00  0.00    +0.008 A 
ATOM     29  C   UNL     1      -3.713   2.033  -0.637  0.00  0.00    -0.040 A 
ATOM     30  C   UNL     1      -4.353   2.397  -1.807  0.00  0.00    +0.053 A 
ATOM     31  C   UNL     1      -5.561   3.074  -1.754  0.00  0.00    +0.162 A 
BRANCH  26  33
ATOM     32  C   UNL     1      -7.835   4.333   0.834  0.00  0.00    +0.277 C 
ATOM     33  O   UNL     1      -7.313   4.048  -0.465  0.00  0.00    -0.491 OA
ENDBRANCH  26  33
BRANCH  31  34
ATOM     34  O   UNL     1      -6.191   3.433  -2.904  0.00  0.00    -0.491 OA
ATOM     35  C   UNL     1      -5.551   3.081  -4.133  0.00  0.00    +0.277 C 
ENDBRANCH  31  34
ENDBRANCH   1  29
TORSDOF 4
