REMARK  Name = ZINC20905144
REMARK  12 active torsions:
REMARK  status: ('A' for Active; 'I' for Inactive)
REMARK    1  A    between atoms: C_1  and  C_2
REMARK    2  A    between atoms: C_3  and  C_11
REMARK    3  A    between atoms: C_4  and  C_10
REMARK    4  A    between atoms: N_5  and  C_7
REMARK    5  A    between atoms: C_7  and  C_8
REMARK    6  A    between atoms: C_7  and  C_9
REMARK    7  A    between atoms: N_12  and  N_13
REMARK    8  A    between atoms: C_16  and  S_19
REMARK    9  A    between atoms: S_19  and  C_20
REMARK   10  A    between atoms: C_20  and  C_21
REMARK   11  A    between atoms: C_21  and  C_22
REMARK   12  A    between atoms: N_24  and  C_25
REMARK                            x       y       z     vdW  Elec       q    Type
REMARK                         _______ _______ _______ _____ _____    ______ ____
ROOT
ATOM      1  N   UNL     1       1.693   3.125   0.063  0.00  0.00    -0.205 N 
ATOM      2  C   UNL     1       1.282   1.800   0.051  0.00  0.00    +0.232 A 
ATOM      3  N   UNL     1      -0.013   1.361   0.061  0.00  0.00    -0.186 NA
ATOM      4  C   UNL     1       0.005  -0.005   0.043  0.00  0.00    +0.210 A 
ATOM      5  N   UNL     1       1.257  -0.394   0.023  0.00  0.00    -0.144 NA
ATOM      6  N   UNL     1       2.066   0.750   0.029  0.00  0.00    -0.245 N 
ATOM      7  H   UNL     1       0.946   3.933   0.081  0.00  0.00    +0.177 HD
ATOM      8  H   UNL     1       3.158   0.879   0.017  0.00  0.00    +0.192 HD
ENDROOT
BRANCH   1  10
ATOM      9  C   UNL     1       3.444   4.674   0.061  0.00  0.00    +0.141 C 
ATOM     10  N   UNL     1       3.059   3.434   0.051  0.00  0.00    -0.187 NA
BRANCH   9  13
ATOM     11  C   UNL     1       5.820   2.575   0.007  0.00  0.00    +0.068 C 
ATOM     12  C   UNL     1       5.951   4.076   0.024  0.00  0.00    +0.069 A 
ATOM     13  C   UNL     1       4.884   5.000   0.049  0.00  0.00    +0.038 A 
ATOM     14  C   UNL     1       5.436   6.262   0.052  0.00  0.00    +0.045 A 
ATOM     15  N   UNL     1       6.776   6.116   0.041  0.00  0.00    -0.265 N 
ATOM     16  N   UNL     1       7.070   4.748   0.020  0.00  0.00    -0.175 NA
ATOM     17  C   UNL     1       4.680   7.566   0.070  0.00  0.00    +0.066 C 
BRANCH  15  18
ATOM     18  C   UNL     1       7.757   7.204   0.043  0.00  0.00    +0.101 C 
ATOM     19  C   UNL     1       8.649   7.084   1.280  0.00  0.00    +0.032 C 
ATOM     20  C   UNL     1       8.619   7.117  -1.218  0.00  0.00    +0.032 C 
ENDBRANCH  15  18
ENDBRANCH   9  13
ENDBRANCH   1  10
BRANCH   4  21
ATOM     21  S   UNL     1      -1.407  -1.060   0.046  0.00  0.00    -0.084 S 
BRANCH  21  22
ATOM     22  C   UNL     1      -0.706  -2.732   0.017  0.00  0.00    +0.086 C 
BRANCH  22  23
ATOM     23  C   UNL     1      -1.839  -3.760   0.017  0.00  0.00    +0.107 C 
BRANCH  23  24
ATOM     24  C   UNL     1      -1.256  -5.150  -0.007  0.00  0.00    +0.218 C 
ATOM     25  O   UNL     1      -0.053  -5.303  -0.024  0.00  0.00    -0.275 OA
ATOM     26  N   UNL     1      -2.071  -6.223  -0.012  0.00  0.00    -0.285 N 
ATOM     27  H   UNL     1      -3.159  -6.087   0.078  0.00  0.00    +0.155 HD
BRANCH  26  28
ATOM     28  C   UNL     1      -1.534  -7.510  -0.129  0.00  0.00    +0.047 A 
ATOM     29  C   UNL     1      -0.307  -7.807   0.449  0.00  0.00    +0.024 A 
ATOM     30  C   UNL     1       0.218  -9.079   0.334  0.00  0.00    +0.002 A 
ATOM     31  C   UNL     1      -0.472 -10.054  -0.363  0.00  0.00    +0.001 A 
ATOM     32  C   UNL     1      -1.691  -9.761  -0.944  0.00  0.00    +0.017 A 
ATOM     33  C   UNL     1      -2.225  -8.491  -0.830  0.00  0.00    +0.039 A 
ATOM     34 BR   UNL     1      -3.893  -8.090  -1.625  0.00  0.00    -0.048 Br
ENDBRANCH  26  28
ENDBRANCH  23  24
ENDBRANCH  22  23
ENDBRANCH  21  22
ENDBRANCH   4  21
TORSDOF 8
