REMARK  Name = ZINC64609508
REMARK  4 active torsions:
REMARK  status: ('A' for Active; 'I' for Inactive)
REMARK    1  A    between atoms: C_12  and  C_16
REMARK    2  A    between atoms: C_23  and  C_25
REMARK    3  A    between atoms: C_25  and  C_26
REMARK    4  A    between atoms: C_26  and  C_27
REMARK                            x       y       z     vdW  Elec       q    Type
REMARK                         _______ _______ _______ _____ _____    ______ ____
ROOT
ATOM      1  C   UNL     1      -0.201   1.273  -0.043  0.00  0.00    +0.000 A 
ATOM      2  C   UNL     1       0.960   2.026  -0.021  0.00  0.00    +0.002 A 
ATOM      3  C   UNL     1       2.193   1.410  -0.018  0.00  0.00    +0.028 A 
ATOM      4  C   UNL     1       2.280   0.015  -0.035  0.00  0.00    +0.068 A 
ATOM      5  C   UNL     1       1.096  -0.733  -0.035  0.00  0.00    -0.013 A 
ATOM      6  C   UNL     1      -0.127  -0.111  -0.050  0.00  0.00    +0.006 A 
ATOM      7  C   UNL     1       1.542  -2.170   0.012  0.00  0.00    +0.069 C 
ATOM      8  C   UNL     1       1.060  -2.960  -1.207  0.00  0.00    +0.033 C 
ATOM      9  C   UNL     1       1.805  -4.300  -1.250  0.00  0.00    +0.110 C 
ATOM     10  N   UNL     1       3.253  -4.086  -1.341  0.00  0.00    -0.289 N 
ATOM     11  C   UNL     1       3.928  -3.279  -0.303  0.00  0.00    +0.154 C 
ATOM     12  C   UNL     1       3.058  -2.056  -0.087  0.00  0.00    +0.052 C 
ATOM     13  N   UNL     1       3.365  -0.822  -0.067  0.00  0.00    -0.253 NA
ATOM     14  C   UNL     1       3.959  -4.620  -2.357  0.00  0.00    +0.216 C 
ATOM     15  O   UNL     1       5.143  -4.379  -2.466  0.00  0.00    -0.276 OA
ENDROOT
BRANCH  11  16
ATOM     16  C   UNL     1       5.303  -2.874  -0.770  0.00  0.00    +0.014 A 
ATOM     17  C   UNL     1       5.443  -2.024  -1.850  0.00  0.00    +0.008 A 
ATOM     18  C   UNL     1       6.703  -1.652  -2.279  0.00  0.00    +0.001 A 
ATOM     19  C   UNL     1       7.825  -2.130  -1.627  0.00  0.00    +0.003 A 
ATOM     20  C   UNL     1       7.687  -2.979  -0.546  0.00  0.00    +0.039 A 
ATOM     21  C   UNL     1       6.425  -3.348  -0.113  0.00  0.00    +0.129 A 
ATOM     22  F   UNL     1       6.289  -4.175   0.947  0.00  0.00    -0.205 F 
ENDBRANCH  11  16
BRANCH  14  23
ATOM     23  C   UNL     1       3.278  -5.517  -3.359  0.00  0.00    +0.100 C 
BRANCH  23  24
ATOM     24  C   UNL     1       4.296  -5.984  -4.400  0.00  0.00    +0.056 C 
BRANCH  24  25
ATOM     25  C   UNL     1       3.604  -6.894  -5.417  0.00  0.00    +0.174 C 
ATOM     26  N   UNL     1       3.099  -8.101  -4.751  0.00  0.00    -0.363 N 
ATOM     27  C   UNL     1       3.690  -9.125  -5.296  0.00  0.00    +0.060 A 
ATOM     28  C   UNL     1       3.601 -10.572  -5.060  0.00  0.00    +0.027 A 
ATOM     29  C   UNL     1       4.353 -11.414  -5.797  0.00  0.00    +0.002 A 
ATOM     30  C   UNL     1       5.234 -10.965  -6.797  0.00  0.00    +0.002 A 
ATOM     31  C   UNL     1       5.392  -9.660  -7.094  0.00  0.00    +0.027 A 
ATOM     32  C   UNL     1       4.622  -8.650  -6.355  0.00  0.00    +0.060 A 
ATOM     33  N   UNL     1       4.571  -7.351  -6.424  0.00  0.00    -0.363 N 
ATOM     34  H   UNL     1       2.444  -8.130  -4.036  0.00  0.00    +0.162 HD
ATOM     35  H   UNL     1       5.078  -6.788  -7.030  0.00  0.00    +0.162 HD
ENDBRANCH  24  25
ENDBRANCH  23  24
ENDBRANCH  14  23
TORSDOF 4
