REMARK  Name = ZINC48839516
REMARK  8 active torsions:
REMARK  status: ('A' for Active; 'I' for Inactive)
REMARK    1  A    between atoms: C_1  and  C_2
REMARK    2  A    between atoms: C_2  and  O_3
REMARK    3  A    between atoms: O_3  and  C_4
REMARK    4  A    between atoms: C_4  and  C_6
REMARK    5  A    between atoms: C_11  and  S_12
REMARK    6  A    between atoms: S_12  and  N_15
REMARK    7  A    between atoms: N_15  and  C_16
REMARK    8  A    between atoms: C_22  and  N_24
REMARK                            x       y       z     vdW  Elec       q    Type
REMARK                         _______ _______ _______ _____ _____    ______ ____
ROOT
ATOM      1  S   UNL     1      -1.935  -5.228  -0.066  0.00  0.00    +0.078 S 
ATOM      2  O   UNL     1      -0.891  -4.856   0.825  0.00  0.00    -0.151 OA
ATOM      3  O   UNL     1      -2.844  -4.282  -0.611  0.00  0.00    -0.151 OA
ENDROOT
BRANCH   1   9
ATOM      4  C   UNL     1      -0.596  -5.399  -2.557  0.00  0.00    +0.123 A 
ATOM      5  C   UNL     1      -0.103  -6.393  -3.380  0.00  0.00    +0.122 A 
ATOM      6  N   UNL     1      -0.367  -7.570  -2.789  0.00  0.00    -0.282 N 
ATOM      7  N   UNL     1      -1.031  -7.323  -1.583  0.00  0.00    -0.153 NA
ATOM      8  H   UNL     1      -0.135  -8.444  -3.140  0.00  0.00    +0.188 HD
ATOM      9  C   UNL     1      -1.168  -6.035  -1.432  0.00  0.00    +0.228 A 
BRANCH   4  10
ATOM     10  C   UNL     1      -0.532  -3.949  -2.804  0.00  0.00    +0.344 C 
ATOM     11  O   UNL     1      -1.001  -3.173  -1.994  0.00  0.00    -0.245 OA
BRANCH  10  12
ATOM     12  O   UNL     1       0.047  -3.481  -3.927  0.00  0.00    -0.461 OA
BRANCH  12  14
ATOM     13  C   UNL     1       0.764  -1.724  -5.424  0.00  0.00    +0.048 C 
ATOM     14  C   UNL     1       0.074  -2.063  -4.101  0.00  0.00    +0.229 C 
ENDBRANCH  12  14
ENDBRANCH  10  12
ENDBRANCH   4  10
ENDBRANCH   1   9
BRANCH   1  15
ATOM     15  N   UNL     1      -2.848  -6.363   0.723  0.00  0.00    -0.187 NA
ATOM     16  H   UNL     1      -2.615  -6.630   1.626  0.00  0.00    +0.148 HD
BRANCH  15  17
ATOM     17  C   UNL     1      -4.007  -6.962   0.058  0.00  0.00    +0.062 C 
ATOM     18  C   UNL     1      -5.275  -6.211   0.469  0.00  0.00    +0.019 C 
ATOM     19  C   UNL     1      -6.486  -6.837  -0.227  0.00  0.00    +0.001 C 
ATOM     20  C   UNL     1      -6.607  -8.306   0.184  0.00  0.00    -0.001 C 
ATOM     21  C   UNL     1      -5.339  -9.057  -0.227  0.00  0.00    -0.015 C 
ATOM     22  C   UNL     1      -4.128  -8.431   0.468  0.00  0.00    -0.056 C 
BRANCH  22  23
ATOM     23  N   UNL     1      -2.910  -9.151   0.073  0.00  0.00    +0.381 N 
ATOM     24  H   UNL     1      -2.112  -8.739   0.532  0.00  0.00    -0.090 HD
ATOM     25  H   UNL     1      -2.990 -10.120   0.344  0.00  0.00    -0.090 HD
ATOM     26  H   UNL     1      -2.792  -9.090  -0.927  0.00  0.00    -0.090 HD
ENDBRANCH  22  23
ENDBRANCH  15  17
ENDBRANCH   1  15
TORSDOF 7
