REMARK  Name = ZINC02179839
REMARK  8 active torsions:
REMARK  status: ('A' for Active; 'I' for Inactive)
REMARK    1  A    between atoms: C_1  and  C_2
REMARK    2  A    between atoms: C_2  and  O_3
REMARK    3  A    between atoms: O_3  and  C_4
REMARK    4  A    between atoms: C_6  and  C_21
REMARK    5  A    between atoms: C_9  and  O_10
REMARK    6  A    between atoms: O_10  and  S_11
REMARK    7  A    between atoms: S_11  and  C_14
REMARK    8  A    between atoms: C_17  and  C_20
REMARK                            x       y       z     vdW  Elec       q    Type
REMARK                         _______ _______ _______ _____ _____    ______ ____
ROOT
ATOM      1  C   UNL     1      -2.376   9.339   0.066  0.00  0.00    +0.165 A 
ATOM      2  C   UNL     1      -1.955   8.023   0.050  0.00  0.00    +0.061 A 
ATOM      3  C   UNL     1      -0.589   7.730   0.042  0.00  0.00    +0.021 A 
ATOM      4  C   UNL     1       0.345   8.769   0.037  0.00  0.00    +0.015 A 
ATOM      5  C   UNL     1      -0.081  10.079   0.046  0.00  0.00    +0.053 A 
ATOM      6  C   UNL     1      -1.438  10.371   0.060  0.00  0.00    +0.198 A 
ENDROOT
BRANCH   3   7
ATOM      7  C   UNL     1      -0.134   6.326   0.032  0.00  0.00    +0.142 A 
ATOM      8  N   UNL     1       1.207   6.073   0.019  0.00  0.00    -0.306 N 
ATOM      9  H   UNL     1       1.840   6.847   0.017  0.00  0.00    +0.170 HD
ATOM     10  C   UNL     1       1.720   4.819   0.008  0.00  0.00    +0.260 A 
ATOM     11  O   UNL     1       2.921   4.611  -0.004  0.00  0.00    -0.267 OA
ATOM     12  C   UNL     1       0.761   3.751   0.013  0.00  0.00    +0.075 A 
ATOM     13  C   UNL     1       1.048   2.328   0.005  0.00  0.00    -0.023 A 
ATOM     14  C   UNL     1      -0.018   1.493   0.010  0.00  0.00    -0.004 A 
ATOM     15  S   UNL     1      -1.441   2.555   0.022  0.00  0.00    -0.073 S 
ATOM     16  C   UNL     1      -0.607   4.111   0.028  0.00  0.00    +0.116 A 
ATOM     17  N   UNL     1      -1.044   5.363   0.037  0.00  0.00    -0.222 NA
ATOM     18  C   UNL     1       0.002  -0.004   0.002  0.00  0.00    +0.043 C 
ATOM     19  C   UNL     1       1.412  -0.469  -0.389  0.00  0.00    +0.005 C 
ATOM     20  C   UNL     1       2.433   0.311   0.444  0.00  0.00    +0.005 C 
ATOM     21  C   UNL     1       2.469   1.770  -0.011  0.00  0.00    +0.037 C 
ENDBRANCH   3   7
BRANCH   1  22
ATOM     22  O   UNL     1      -3.704   9.628   0.080  0.00  0.00    -0.488 OA
BRANCH  22  24
ATOM     23  C   UNL     1      -6.048   9.040   0.102  0.00  0.00    +0.048 C 
ATOM     24  C   UNL     1      -4.609   8.522   0.085  0.00  0.00    +0.226 C 
ENDBRANCH  22  24
ENDBRANCH   1  22
BRANCH   6  25
ATOM     25  O   UNL     1      -1.854  11.664   0.070  0.00  0.00    -0.339 OA
BRANCH  25  26
ATOM     26  S   UNL     1      -2.056  12.259  -1.317  0.00  0.00    +0.151 S 
ATOM     27  O   UNL     1      -2.281  13.650  -1.133  0.00  0.00    -0.131 OA
ATOM     28  O   UNL     1      -1.005  11.759  -2.131  0.00  0.00    -0.131 OA
BRANCH  26  29
ATOM     29  C   UNL     1      -3.553  11.587  -1.958  0.00  0.00    +0.128 A 
ATOM     30  C   UNL     1      -3.526  10.418  -2.695  0.00  0.00    +0.031 A 
ATOM     31  C   UNL     1      -4.702   9.888  -3.194  0.00  0.00    +0.005 A 
ATOM     32  C   UNL     1      -5.902  10.534  -2.966  0.00  0.00    -0.050 A 
ATOM     33  C   UNL     1      -5.929  11.706  -2.234  0.00  0.00    +0.005 A 
ATOM     34  C   UNL     1      -4.754  12.233  -1.730  0.00  0.00    +0.031 A 
ATOM     35  C   UNL     1      -7.183   9.959  -3.514  0.00  0.00    +0.044 C 
ENDBRANCH  26  29
ENDBRANCH  25  26
ENDBRANCH   6  25
TORSDOF 6
