REMARK  Name = ZINC31830145
REMARK  5 active torsions:
REMARK  status: ('A' for Active; 'I' for Inactive)
REMARK    1  A    between atoms: C_1  and  C_2
REMARK    2  A    between atoms: C_5  and  C_7
REMARK    3  A    between atoms: C_9  and  C_13
REMARK    4  A    between atoms: N_15  and  N_16
REMARK    5  A    between atoms: C_17  and  C_18
REMARK                            x       y       z     vdW  Elec       q    Type
REMARK                         _______ _______ _______ _____ _____    ______ ____
ROOT
ATOM      1  C   UNL     1       1.673   3.231  -0.647  0.00  0.00    +0.281 C 
ATOM      2  O   UNL     1       2.778   3.410  -0.170  0.00  0.00    -0.267 OA
ATOM      3  N   UNL     1       0.779   4.239  -0.672  0.00  0.00    -0.202 N 
ATOM      4  H   UNL     1      -0.220   4.077  -1.103  0.00  0.00    +0.178 HD
ENDROOT
BRANCH   1   7
ATOM      5  C   UNL     1       1.327  -0.204  -1.854  0.00  0.00    +0.100 A 
ATOM      6  C   UNL     1       2.115   0.790  -1.242  0.00  0.00    +0.063 A 
ATOM      7  C   UNL     1       1.313   1.914  -1.196  0.00  0.00    +0.122 A 
ATOM      8  N   UNL     1       0.119   1.562  -1.762  0.00  0.00    -0.272 N 
ATOM      9  H   UNL     1      -0.691   2.302  -1.839  0.00  0.00    +0.189 HD
ATOM     10  N   UNL     1       0.156   0.334  -2.133  0.00  0.00    -0.173 NA
BRANCH   5  15
ATOM     11  C   UNL     1       3.758  -5.249  -2.510  0.00  0.00    +0.051 C 
ATOM     12  C   UNL     1       2.899  -4.012  -2.450  0.00  0.00    -0.013 A 
ATOM     13  C   UNL     1       1.624  -3.836  -2.882  0.00  0.00    +0.011 A 
ATOM     14  C   UNL     1       1.023  -2.607  -2.718  0.00  0.00    +0.018 A 
ATOM     15  C   UNL     1       1.739  -1.597  -2.135  0.00  0.00    +0.040 A 
ATOM     16  S   UNL     1       3.296  -2.400  -1.793  0.00  0.00    -0.092 S 
ENDBRANCH   5  15
ENDBRANCH   1   7
BRANCH   3  17
ATOM     17  N   UNL     1       1.121   5.493  -0.149  0.00  0.00    -0.187 NA
ATOM     18  C   UNL     1       0.225   6.428  -0.064  0.00  0.00    +0.138 C 
BRANCH  18  19
ATOM     19  C   UNL     1      -1.207   6.077  -0.052  0.00  0.00    -0.004 A 
ATOM     20  C   UNL     1      -1.604   4.752   0.149  0.00  0.00    +0.009 A 
ATOM     21  C   UNL     1      -2.945   4.432   0.163  0.00  0.00    +0.002 A 
ATOM     22  C   UNL     1      -3.898   5.417  -0.030  0.00  0.00    +0.015 A 
ATOM     23  C   UNL     1      -3.512   6.731  -0.235  0.00  0.00    +0.018 A 
ATOM     24  C   UNL     1      -2.174   7.066  -0.247  0.00  0.00    +0.024 A 
ATOM     25 BR   UNL     1      -4.823   8.068  -0.500  0.00  0.00    -0.050 Br
ENDBRANCH  18  19
ENDBRANCH   3  17
TORSDOF 4
