REMARK  Name = ZINC64988577
REMARK  6 active torsions:
REMARK  status: ('A' for Active; 'I' for Inactive)
REMARK    1  A    between atoms: C_1  and  C_2
REMARK    2  A    between atoms: N_8  and  S_25
REMARK    3  A    between atoms: C_11  and  C_14
REMARK    4  A    between atoms: N_16  and  C_17
REMARK    5  A    between atoms: C_22  and  C_23
REMARK    6  A    between atoms: S_25  and  C_28
REMARK                            x       y       z     vdW  Elec       q    Type
REMARK                         _______ _______ _______ _____ _____    ______ ____
ROOT
ATOM      1  C   UNL     1      -0.037   1.497   0.067  0.00  0.00    +0.044 C 
ATOM      2  C   UNL     1      -0.013  -0.010   0.047  0.00  0.00    -0.048 A 
ATOM      3  C   UNL     1      -0.005  -0.683  -1.160  0.00  0.00    +0.007 A 
ATOM      4  C   UNL     1       0.013  -2.067  -1.188  0.00  0.00    +0.048 A 
ATOM      5  C   UNL     1       0.025  -2.777  -0.001  0.00  0.00    +0.144 A 
ATOM      6  C   UNL     1       0.024  -2.099   1.214  0.00  0.00    +0.093 A 
ATOM      7  C   UNL     1       0.006  -0.715   1.238  0.00  0.00    +0.031 A 
ATOM      8  N   UNL     1       0.057  -2.838   2.406  0.00  0.00    -0.204 N 
ATOM      9  C   UNL     1       1.260  -3.631   2.696  0.00  0.00    +0.135 C 
ATOM     10  C   UNL     1       1.211  -4.954   1.955  0.00  0.00    +0.075 C 
ATOM     11  C   UNL     1       1.223  -4.777   0.443  0.00  0.00    +0.260 C 
ATOM     12  O   UNL     1       0.030  -4.144  -0.012  0.00  0.00    -0.478 OA
ENDROOT
BRANCH  11  13
ATOM     13  C   UNL     1       1.345  -6.128  -0.212  0.00  0.00    +0.258 C 
ATOM     14  O   UNL     1       0.436  -6.556  -0.892  0.00  0.00    -0.271 OA
ATOM     15  N   UNL     1       2.462  -6.862  -0.042  0.00  0.00    -0.282 N 
ATOM     16  H   UNL     1       3.220  -6.488   0.435  0.00  0.00    +0.155 HD
BRANCH  15  17
ATOM     17  C   UNL     1       2.530  -8.163  -0.552  0.00  0.00    +0.038 A 
ATOM     18  C   UNL     1       1.365  -8.890  -0.760  0.00  0.00    +0.043 A 
ATOM     19  C   UNL     1       1.435 -10.175  -1.265  0.00  0.00    +0.043 A 
ATOM     20  C   UNL     1       2.665 -10.736  -1.562  0.00  0.00    +0.020 A 
ATOM     21  C   UNL     1       3.826 -10.014  -1.355  0.00  0.00    +0.006 A 
ATOM     22  C   UNL     1       3.761  -8.728  -0.857  0.00  0.00    -0.029 A 
ATOM     23  C   UNL     1       5.027  -7.940  -0.637  0.00  0.00    +0.045 C 
ATOM     24 CL   UNL     1      -0.020 -11.085  -1.526  0.00  0.00    -0.083 Cl
ENDBRANCH  15  17
ENDBRANCH  11  13
BRANCH   8  25
ATOM     25  S   UNL     1      -1.222  -2.817   3.458  0.00  0.00    +0.043 S 
ATOM     26  O   UNL     1      -0.653  -3.107   4.727  0.00  0.00    -0.155 OA
ATOM     27  O   UNL     1      -1.866  -1.572   3.220  0.00  0.00    -0.155 OA
ATOM     28  C   UNL     1      -2.288  -4.184   2.923  0.00  0.00    +0.218 C 
ENDBRANCH   8  25
TORSDOF 3
