REMARK  Name = ZINC39352982
REMARK  8 active torsions:
REMARK  status: ('A' for Active; 'I' for Inactive)
REMARK    1  A    between atoms: C_1  and  C_2
REMARK    2  A    between atoms: C_2  and  C_4
REMARK    3  A    between atoms: C_2  and  N_12
REMARK    4  A    between atoms: C_4  and  C_5
REMARK    5  A    between atoms: C_5  and  C_6
REMARK    6  A    between atoms: C_13  and  C_15
REMARK    7  A    between atoms: C_20  and  O_25
REMARK    8  A    between atoms: O_25  and  C_26
REMARK                            x       y       z     vdW  Elec       q    Type
REMARK                         _______ _______ _______ _____ _____    ______ ____
ROOT
ATOM      1  C   UNL     1       0.734  -1.212   3.623  0.00  0.00    +0.190 C 
ATOM      2  C   UNL     1       1.540  -0.107   4.269  0.00  0.00    +0.016 C 
ATOM      3  C   UNL     1       1.016   0.066   5.504  0.00  0.00    -0.000 A 
ATOM      4  C   UNL     1       1.348   0.973   6.608  0.00  0.00    +0.056 A 
ATOM      5  C   UNL     1       0.631   0.917   7.756  0.00  0.00    +0.129 A 
ATOM      6  C   UNL     1      -0.432   0.014   7.934  0.00  0.00    +0.048 A 
ATOM      7  C   UNL     1      -0.812  -0.859   6.977  0.00  0.00    +0.029 A 
ATOM      8  C   UNL     1      -0.104  -0.885   5.693  0.00  0.00    +0.043 A 
ATOM      9  N   UNL     1      -0.265  -1.618   4.617  0.00  0.00    -0.370 N 
ATOM     10  H   UNL     1      -0.934  -2.310   4.498  0.00  0.00    +0.161 HD
ENDROOT
BRANCH   1  12
ATOM     11  N   UNL     1       0.740  -0.608   1.224  0.00  0.00    -0.311 N 
ATOM     12  C   UNL     1       0.053  -0.700   2.380  0.00  0.00    +0.240 C 
ATOM     13  O   UNL     1      -1.114  -0.370   2.421  0.00  0.00    -0.273 OA
ATOM     14  H   UNL     1       1.673  -0.872   1.192  0.00  0.00    +0.149 HD
BRANCH  11  16
ATOM     15  C   UNL     1       0.130   1.419  -0.001  0.00  0.00    +0.028 C 
ATOM     16  C   UNL     1       0.077  -0.110   0.016  0.00  0.00    +0.070 C 
BRANCH  16  17
ATOM     17  C   UNL     1       0.791  -0.659  -1.220  0.00  0.00    +0.026 C 
BRANCH  17  18
ATOM     18  C   UNL     1       0.631  -2.180  -1.268  0.00  0.00    +0.037 C 
BRANCH  18  19
ATOM     19  C   UNL     1       1.334  -2.721  -2.486  0.00  0.00    -0.047 A 
ATOM     20  C   UNL     1       0.653  -2.838  -3.683  0.00  0.00    +0.003 A 
ATOM     21  C   UNL     1       1.298  -3.334  -4.801  0.00  0.00    +0.000 A 
ATOM     22  C   UNL     1       2.625  -3.714  -4.721  0.00  0.00    +0.000 A 
ATOM     23  C   UNL     1       3.307  -3.596  -3.524  0.00  0.00    +0.000 A 
ATOM     24  C   UNL     1       2.663  -3.096  -2.408  0.00  0.00    +0.003 A 
ENDBRANCH  18  19
ENDBRANCH  17  18
ENDBRANCH  16  17
ENDBRANCH  11  16
ENDBRANCH   1  12
BRANCH   5  25
ATOM     25  O   UNL     1       0.950   1.763   8.771  0.00  0.00    -0.456 OA
BRANCH  25  26
ATOM     26  C   UNL     1       1.468   1.229   9.908  0.00  0.00    +0.132 A 
ATOM     27  C   UNL     1       1.684   2.034  11.017  0.00  0.00    +0.050 A 
ATOM     28  C   UNL     1       2.211   1.492  12.174  0.00  0.00    +0.053 A 
ATOM     29  C   UNL     1       2.524   0.144  12.231  0.00  0.00    +0.166 A 
ATOM     30  C   UNL     1       2.308  -0.666  11.119  0.00  0.00    +0.170 A 
ATOM     31  C   UNL     1       1.775  -0.123   9.962  0.00  0.00    +0.095 A 
ATOM     32  O   UNL     1       2.693  -1.940  11.426  0.00  0.00    -0.452 OA
ATOM     33  C   UNL     1       3.526  -1.819  12.594  0.00  0.00    +0.466 C 
ATOM     34  O   UNL     1       3.046  -0.622  13.234  0.00  0.00    -0.453 OA
ENDBRANCH  25  26
ENDBRANCH   5  25
TORSDOF 7
