REMARK  Name = ZINC20894861
REMARK  8 active torsions:
REMARK  status: ('A' for Active; 'I' for Inactive)
REMARK    1  A    between atoms: C_3  and  C_6
REMARK    2  A    between atoms: C_6  and  N_7
REMARK    3  A    between atoms: N_7  and  S_8
REMARK    4  A    between atoms: S_8  and  C_11
REMARK    5  A    between atoms: C_14  and  C_17
REMARK    6  A    between atoms: C_17  and  O_19
REMARK    7  A    between atoms: O_19  and  C_20
REMARK    8  A    between atoms: C_20  and  C_21
REMARK                            x       y       z     vdW  Elec       q    Type
REMARK                         _______ _______ _______ _____ _____    ______ ____
ROOT
ATOM      1  C   UNL     1       1.208  -0.683  -0.013  0.00  0.00    +0.105 A 
ATOM      2  C   UNL     1       0.002  -0.004   0.002  0.00  0.00    +0.029 A 
ATOM      3  C   UNL     1      -0.017   1.375   0.010  0.00  0.00    +0.017 A 
ATOM      4  C   UNL     1       1.185   2.087   0.002  0.00  0.00    +0.059 A 
ATOM      5  C   UNL     1       2.398   1.395  -0.012  0.00  0.00    +0.017 A 
ATOM      6  C   UNL     1       2.402   0.016  -0.020  0.00  0.00    +0.029 A 
ENDROOT
BRANCH   1   7
ATOM      7  S   UNL     1       1.222  -2.445  -0.023  0.00  0.00    +0.059 S 
ATOM      8  O   UNL     1       2.476  -2.843   0.514  0.00  0.00    -0.153 OA
ATOM      9  O   UNL     1      -0.014  -2.864   0.538  0.00  0.00    -0.153 OA
BRANCH   7  10
ATOM     10  N   UNL     1       1.211  -2.926  -1.607  0.00  0.00    -0.183 NA
ATOM     11  H   UNL     1       0.284  -3.328  -2.040  0.00  0.00    +0.148 HD
BRANCH  10  12
ATOM     12  C   UNL     1       2.350  -2.616  -2.475  0.00  0.00    +0.180 C 
BRANCH  12  15
ATOM     13  C   UNL     1       1.826  -4.186  -5.768  0.00  0.00    +0.041 A 
ATOM     14  C   UNL     1       1.649  -3.112  -4.865  0.00  0.00    +0.046 A 
ATOM     15  C   UNL     1       2.273  -3.455  -3.724  0.00  0.00    +0.120 A 
ATOM     16  O   UNL     1       2.822  -4.670  -3.889  0.00  0.00    -0.466 OA
ATOM     17  C   UNL     1       2.549  -5.120  -5.125  0.00  0.00    +0.195 A 
ENDBRANCH  12  15
ENDBRANCH  10  12
ENDBRANCH   7  10
ENDBRANCH   1   7
BRANCH   4  18
ATOM     18  C   UNL     1       1.173   3.564   0.011  0.00  0.00    +0.340 C 
ATOM     19  O   UNL     1       0.116   4.162   0.024  0.00  0.00    -0.245 OA
BRANCH  18  20
ATOM     20  O   UNL     1       2.334   4.247   0.003  0.00  0.00    -0.456 OA
BRANCH  20  21
ATOM     21  C   UNL     1       2.246   5.696   0.012  0.00  0.00    +0.271 C 
BRANCH  21  22
ATOM     22  C   UNL     1       3.633   6.284   0.002  0.00  0.00    +0.033 A 
ATOM     23  C   UNL     1       4.736   5.452  -0.013  0.00  0.00    +0.030 A 
ATOM     24  C   UNL     1       6.010   5.990  -0.024  0.00  0.00    +0.042 A 
ATOM     25  C   UNL     1       6.181   7.363  -0.017  0.00  0.00    +0.029 A 
ATOM     26  C   UNL     1       5.081   8.200   0.000  0.00  0.00    +0.022 A 
ATOM     27  C   UNL     1       3.804   7.661   0.002  0.00  0.00    +0.135 A 
ATOM     28  O   UNL     1       2.712   8.473   0.006  0.00  0.00    -0.465 OA
ATOM     29  C   UNL     1       2.924   9.839   0.372  0.00  0.00    +0.394 C 
ATOM     30  O   UNL     1       4.054  10.337  -0.356  0.00  0.00    -0.339 OA
ATOM     31  C   UNL     1       5.280   9.694   0.016  0.00  0.00    +0.202 C 
ATOM     32 CL   UNL     1       7.394   4.943  -0.044  0.00  0.00    -0.084 Cl
ENDBRANCH  21  22
ENDBRANCH  20  21
ENDBRANCH  18  20
ENDBRANCH   4  18
TORSDOF 8
