REMARK  Name = ZINC61999538
REMARK  6 active torsions:
REMARK  status: ('A' for Active; 'I' for Inactive)
REMARK    1  A    between atoms: C_1  and  O_2
REMARK    2  A    between atoms: O_2  and  C_3
REMARK    3  A    between atoms: C_8  and  N_9
REMARK    4  A    between atoms: C_10  and  C_12
REMARK    5  A    between atoms: C_15  and  C_29
REMARK    6  A    between atoms: C_29  and  C_30
REMARK                            x       y       z     vdW  Elec       q    Type
REMARK                         _______ _______ _______ _____ _____    ______ ____
ROOT
ATOM      1  C   UNL     1       1.255  -4.749  -0.053  0.00  0.00    +0.110 C 
ATOM      2  C   UNL     1       2.034  -4.482   1.257  0.00  0.00    +0.034 C 
ATOM      3  C   UNL     1       1.715  -5.734   2.113  0.00  0.00    +0.064 C 
ATOM      4  N   UNL     1       1.689  -6.835   1.113  0.00  0.00    -0.296 NA
ATOM      5  C   UNL     1       1.049  -6.268  -0.088  0.00  0.00    +0.135 C 
ATOM      6  C   UNL     1      -0.414  -6.615  -0.140  0.00  0.00    +0.004 A 
ATOM      7  C   UNL     1      -1.476  -6.361   0.700  0.00  0.00    +0.023 A 
ATOM      8  C   UNL     1      -2.740  -6.823   0.376  0.00  0.00    +0.018 A 
ATOM      9  C   UNL     1      -2.933  -7.541  -0.791  0.00  0.00    +0.017 A 
ATOM     10  C   UNL     1      -1.872  -7.797  -1.634  0.00  0.00    +0.025 A 
ATOM     11  C   UNL     1      -0.597  -7.334  -1.316  0.00  0.00    +0.039 A 
ATOM     12  N   UNL     1       0.616  -7.461  -1.997  0.00  0.00    -0.283 N 
ATOM     13  C   UNL     1       1.630  -6.863  -1.344  0.00  0.00    +0.243 C 
ATOM     14  O   UNL     1       2.789  -6.812  -1.700  0.00  0.00    -0.273 OA
ATOM     15 BR   UNL     1      -4.200  -6.476   1.527  0.00  0.00    -0.050 Br
ATOM     16  H   UNL     1       2.622  -7.158   0.907  0.00  0.00    +0.123 HD
ATOM     17  H   UNL     1       0.717  -7.927  -2.842  0.00  0.00    +0.155 HD
ENDROOT
BRANCH   1  19
ATOM     18  N   UNL     1      -0.727  -3.787  -1.178  0.00  0.00    -0.282 N 
ATOM     19  C   UNL     1      -0.075  -4.041  -0.026  0.00  0.00    +0.223 C 
ATOM     20  O   UNL     1      -0.558  -3.699   1.032  0.00  0.00    -0.275 OA
ATOM     21  H   UNL     1      -0.381  -4.130  -2.017  0.00  0.00    +0.155 HD
BRANCH  18  27
ATOM     22  C   UNL     1      -2.840  -3.171  -2.186  0.00  0.00    +0.141 A 
ATOM     23  C   UNL     1      -4.005  -2.422  -2.164  0.00  0.00    +0.049 A 
ATOM     24  C   UNL     1      -4.235  -1.530  -1.134  0.00  0.00    +0.024 A 
ATOM     25  C   UNL     1      -3.303  -1.381  -0.121  0.00  0.00    +0.043 A 
ATOM     26  C   UNL     1      -2.138  -2.126  -0.136  0.00  0.00    +0.047 A 
ATOM     27  C   UNL     1      -1.904  -3.027  -1.164  0.00  0.00    +0.077 A 
ATOM     28 CL   UNL     1      -3.598  -0.259   1.169  0.00  0.00    -0.083 Cl
BRANCH  22  30
ATOM     29  C   UNL     1      -3.617  -4.145  -4.211  0.00  0.00    +0.277 C 
ATOM     30  O   UNL     1      -2.614  -4.050  -3.198  0.00  0.00    -0.493 OA
ENDBRANCH  22  30
ENDBRANCH  18  27
ENDBRANCH   1  19
BRANCH   3  31
ATOM     31  C   UNL     1       2.812  -5.971   3.153  0.00  0.00    +0.114 C 
BRANCH  31  32
ATOM     32  C   UNL     1       2.416  -7.117   4.048  0.00  0.00    +0.212 C 
ATOM     33  O   UNL     1       1.361  -7.689   3.871  0.00  0.00    -0.276 OA
ATOM     34  N   UNL     1       3.235  -7.508   5.044  0.00  0.00    -0.329 N 
ATOM     35  H   UNL     1       4.079  -7.051   5.186  0.00  0.00    +0.145 HD
ATOM     36  H   UNL     1       2.981  -8.245   5.620  0.00  0.00    +0.145 HD
ENDBRANCH  31  32
ENDBRANCH   3  31
TORSDOF 5
