REMARK  Name = ZINC39037798
REMARK  17 active torsions:
REMARK  status: ('A' for Active; 'I' for Inactive)
REMARK    1  A    between atoms: C_1  and  C_2
REMARK    2  A    between atoms: C_2  and  C_3
REMARK    3  A    between atoms: C_2  and  C_4
REMARK    4  A    between atoms: C_4  and  N_5
REMARK    5  A    between atoms: N_5  and  C_6
REMARK    6  A    between atoms: N_5  and  C_30
REMARK    7  A    between atoms: C_6  and  C_7
REMARK    8  A    between atoms: C_7  and  C_9
REMARK    9  A    between atoms: C_7  and  O_29
REMARK   10  A    between atoms: C_9  and  N_10
REMARK   11  A    between atoms: N_10  and  C_11
REMARK   12  A    between atoms: N_10  and  S_17
REMARK   13  A    between atoms: S_17  and  C_20
REMARK   14  A    between atoms: C_25  and  N_26
REMARK   15  A    between atoms: C_30  and  C_31
REMARK   16  A    between atoms: C_31  and  C_32
REMARK   17  A    between atoms: C_31  and  C_33
REMARK                            x       y       z     vdW  Elec       q    Type
REMARK                         _______ _______ _______ _____ _____    ______ ____
ROOT
ATOM      1  N   UNL     1       2.012  -0.642   3.577  0.00  0.00    -0.201 N 
ENDROOT
BRANCH   1   2
ATOM      2  C   UNL     1       2.089   0.659   4.080  0.00  0.00    +0.051 A 
ATOM      3  C   UNL     1       3.234   1.418   3.873  0.00  0.00    +0.025 A 
ATOM      4  C   UNL     1       3.307   2.704   4.371  0.00  0.00    +0.002 A 
ATOM      5  C   UNL     1       2.243   3.236   5.076  0.00  0.00    +0.000 A 
ATOM      6  C   UNL     1       1.102   2.483   5.284  0.00  0.00    +0.002 A 
ATOM      7  C   UNL     1       1.020   1.198   4.783  0.00  0.00    +0.025 A 
ENDBRANCH   1   2
BRANCH   1   8
ATOM      8  S   UNL     1       1.012  -1.750   4.296  0.00  0.00    +0.077 S 
ATOM      9  O   UNL     1       1.447  -3.031   3.863  0.00  0.00    -0.150 OA
ATOM     10  O   UNL     1       0.935  -1.395   5.670  0.00  0.00    -0.150 OA
BRANCH   8  11
ATOM     11  C   UNL     1      -0.599  -1.511   3.624  0.00  0.00    +0.139 A 
ATOM     12  C   UNL     1      -0.877  -0.379   2.881  0.00  0.00    +0.031 A 
ATOM     13  C   UNL     1      -2.141  -0.191   2.353  0.00  0.00    +0.002 A 
ATOM     14  C   UNL     1      -3.127  -1.137   2.568  0.00  0.00    +0.002 A 
ATOM     15  C   UNL     1      -2.848  -2.269   3.310  0.00  0.00    +0.035 A 
ATOM     16  C   UNL     1      -1.583  -2.458   3.834  0.00  0.00    +0.153 A 
BRANCH  16  17
ATOM     17  N   UNL     1      -1.284  -3.673   4.625  0.00  0.00    +0.058 N 
ATOM     18  O   UNL     1      -2.108  -4.552   4.718  0.00  0.00    -0.126 OA
ATOM     19  O   UNL     1      -0.214  -3.787   5.177  0.00  0.00    -0.126 OA
ENDBRANCH  16  17
ENDBRANCH   8  11
ENDBRANCH   1   8
BRANCH   1  20
ATOM     20  C   UNL     1       2.815  -1.027   2.414  0.00  0.00    +0.161 C 
BRANCH  20  21
ATOM     21  C   UNL     1       2.120  -0.554   1.136  0.00  0.00    +0.117 C 
BRANCH  21  22
ATOM     22  O   UNL     1       0.852  -1.203   1.015  0.00  0.00    -0.392 OA
ATOM     23  H   UNL     1       0.900  -2.168   1.045  0.00  0.00    +0.210 HD
ENDBRANCH  21  22
BRANCH  21  24
ATOM     24  C   UNL     1       2.988  -0.902  -0.075  0.00  0.00    -0.046 C 
BRANCH  24  25
ATOM     25  N   UNL     1       2.323  -0.443  -1.302  0.00  0.00    +0.382 N 
ATOM     26  H   UNL     1       1.391  -0.828  -1.343  0.00  0.00    -0.082 HD
BRANCH  25  27
ATOM     27  C   UNL     1       3.090  -0.893  -2.472  0.00  0.00    -0.076 C 
BRANCH  27  29
ATOM     28  C   UNL     1       1.611  -2.887  -2.748  0.00  0.00    +0.005 C 
ATOM     29  C   UNL     1       3.054  -2.420  -2.549  0.00  0.00    -0.034 C 
ATOM     30  C   UNL     1       3.909  -2.892  -3.727  0.00  0.00    +0.005 C 
ENDBRANCH  27  29
ENDBRANCH  25  27
BRANCH  25  31
ATOM     31  C   UNL     1       2.248   1.024  -1.300  0.00  0.00    -0.076 C 
BRANCH  31  32
ATOM     32  C   UNL     1       1.447   1.496  -2.515  0.00  0.00    -0.034 C 
ATOM     33  C   UNL     1      -0.001   1.016  -2.389  0.00  0.00    +0.005 C 
ATOM     34  C   UNL     1       1.474   3.024  -2.582  0.00  0.00    +0.005 C 
ENDBRANCH  31  32
ENDBRANCH  25  31
ENDBRANCH  24  25
ENDBRANCH  21  24
ENDBRANCH  20  21
ENDBRANCH   1  20
TORSDOF 13
