REMARK  Name = ZINC38964475
REMARK  7 active torsions:
REMARK  status: ('A' for Active; 'I' for Inactive)
REMARK    1  A    between atoms: C_1  and  C_2
REMARK    2  A    between atoms: C_7  and  C_14
REMARK    3  A    between atoms: C_14  and  N_15
REMARK    4  A    between atoms: N_15  and  C_16
REMARK    5  A    between atoms: C_20  and  C_23
REMARK    6  A    between atoms: C_21  and  C_22
REMARK    7  A    between atoms: C_24  and  C_26
REMARK                            x       y       z     vdW  Elec       q    Type
REMARK                         _______ _______ _______ _____ _____    ______ ____
ROOT
ATOM      1  N   UNL     1      -1.276  -6.792   2.395  0.00  0.00    -0.266 N 
ATOM      2  C   UNL     1      -0.275  -7.694   2.377  0.00  0.00    +0.252 C 
ATOM      3  O   UNL     1       0.389  -7.845   1.370  0.00  0.00    -0.270 OA
ENDROOT
BRANCH   1   4
ATOM      4  C   UNL     1      -2.095  -6.679   3.523  0.00  0.00    +0.040 A 
ATOM      5  C   UNL     1      -1.547  -6.320   4.748  0.00  0.00    +0.024 A 
ATOM      6  C   UNL     1      -2.359  -6.209   5.860  0.00  0.00    +0.002 A 
ATOM      7  C   UNL     1      -3.716  -6.454   5.754  0.00  0.00    +0.004 A 
ATOM      8  C   UNL     1      -4.264  -6.812   4.536  0.00  0.00    -0.046 A 
ATOM      9  C   UNL     1      -3.459  -6.919   3.419  0.00  0.00    -0.026 A 
ATOM     10  C   UNL     1      -4.058  -7.303   2.091  0.00  0.00    +0.046 C 
ATOM     11  C   UNL     1      -5.743  -7.079   4.426  0.00  0.00    +0.044 C 
ENDBRANCH   1   4
BRANCH   2  12
ATOM     12  C   UNL     1       0.015  -8.501   3.581  0.00  0.00    +0.051 A 
ATOM     13  C   UNL     1      -1.013  -9.187   4.230  0.00  0.00    +0.014 A 
ATOM     14  C   UNL     1      -0.736  -9.938   5.353  0.00  0.00    +0.001 A 
ATOM     15  C   UNL     1       0.559 -10.012   5.837  0.00  0.00    +0.001 A 
ATOM     16  C   UNL     1       1.583  -9.335   5.200  0.00  0.00    +0.016 A 
ATOM     17  C   UNL     1       1.320  -8.584   4.071  0.00  0.00    +0.030 A 
ATOM     18 BR   UNL     1       2.723  -7.666   3.196  0.00  0.00    -0.050 Br
ENDBRANCH   2  12
BRANCH   1  19
ATOM     19  C   UNL     1      -1.505  -5.929   1.234  0.00  0.00    +0.131 C 
BRANCH  19  26
ATOM     20  C   UNL     1      -1.984   1.480   0.195  0.00  0.00    +0.044 C 
ATOM     21  C   UNL     1      -1.628   0.017   0.145  0.00  0.00    -0.049 A 
ATOM     22  C   UNL     1      -1.428  -0.581  -1.100  0.00  0.00    +0.004 A 
ATOM     23  C   UNL     1      -1.105  -1.895  -1.210  0.00  0.00    +0.010 A 
ATOM     24  C   UNL     1      -0.965  -2.691   0.010  0.00  0.00    -0.007 A 
ATOM     25  C   UNL     1      -0.642  -4.014  -0.051  0.00  0.00    -0.003 C 
ATOM     26  C   UNL     1      -0.517  -4.761   1.262  0.00  0.00    +0.116 C 
ATOM     27  C   UNL     1      -0.763  -3.979   2.533  0.00  0.00    +0.226 C 
ATOM     28  O   UNL     1      -0.676  -4.528   3.615  0.00  0.00    -0.275 OA
ATOM     29  N   UNL     1      -1.071  -2.695   2.463  0.00  0.00    -0.284 N 
ATOM     30  C   UNL     1      -1.181  -2.034   1.311  0.00  0.00    +0.041 A 
ATOM     31  C   UNL     1      -1.508  -0.665   1.313  0.00  0.00    +0.027 A 
ATOM     32  H   UNL     1      -1.225  -2.211   3.290  0.00  0.00    +0.155 HD
ENDBRANCH  19  26
ENDBRANCH   1  19
TORSDOF 4
