REMARK  Name = ZINC28730263
REMARK  10 active torsions:
REMARK  status: ('A' for Active; 'I' for Inactive)
REMARK    1  A    between atoms: C_1  and  C_2
REMARK    2  A    between atoms: C_3  and  C_16
REMARK    3  A    between atoms: C_4  and  C_15
REMARK    4  A    between atoms: N_5  and  C_7
REMARK    5  A    between atoms: C_7  and  C_8
REMARK    6  A    between atoms: C_16  and  N_17
REMARK    7  A    between atoms: N_17  and  C_18
REMARK    8  A    between atoms: N_17  and  C_19
REMARK    9  A    between atoms: C_19  and  C_20
REMARK   10  A    between atoms: C_33  and  C_35
REMARK                            x       y       z     vdW  Elec       q    Type
REMARK                         _______ _______ _______ _____ _____    ______ ____
ROOT
ATOM      1  N   UNL     1      -0.315   2.236  -1.236  0.00  0.00    +0.386 N 
ATOM      2  C   UNL     1      -0.005   3.609  -1.654  0.00  0.00    -0.095 C 
ATOM      3  H   UNL     1      -1.398   2.175  -1.051  0.00  0.00    -0.081 HD
ENDROOT
BRANCH   1   4
ATOM      4  C   UNL     1       0.017   1.274  -2.296  0.00  0.00    -0.039 C 
BRANCH   4   7
ATOM      5  C   UNL     1      -2.788  -0.115  -2.791  0.00  0.00    +0.068 C 
ATOM      6  C   UNL     1      -2.126   0.888  -3.700  0.00  0.00    +0.062 A 
ATOM      7  C   UNL     1      -0.888   1.501  -3.480  0.00  0.00    -0.021 A 
ATOM      8  C   UNL     1      -0.642   2.329  -4.522  0.00  0.00    +0.038 A 
ATOM      9  N   UNL     1      -1.691   2.248  -5.367  0.00  0.00    -0.264 N 
ATOM     10  N   UNL     1      -2.611   1.340  -4.828  0.00  0.00    -0.176 NA
ATOM     11  C   UNL     1       0.582   3.189  -4.705  0.00  0.00    +0.065 C 
BRANCH   9  12
ATOM     12  C   UNL     1      -1.841   2.980  -6.627  0.00  0.00    +0.180 C 
BRANCH  12  13
ATOM     13  C   UNL     1      -2.665   4.220  -6.393  0.00  0.00    -0.008 A 
ATOM     14  C   UNL     1      -2.042   5.441  -6.217  0.00  0.00    +0.007 A 
ATOM     15  C   UNL     1      -2.798   6.578  -6.002  0.00  0.00    +0.000 A 
ATOM     16  C   UNL     1      -4.177   6.495  -5.962  0.00  0.00    +0.001 A 
ATOM     17  C   UNL     1      -4.801   5.274  -6.138  0.00  0.00    +0.020 A 
ATOM     18  C   UNL     1      -4.045   4.137  -6.359  0.00  0.00    +0.046 A 
ATOM     19 CL   UNL     1      -4.829   2.604  -6.587  0.00  0.00    -0.083 Cl
ENDBRANCH  12  13
ENDBRANCH   9  12
ENDBRANCH   4   7
ENDBRANCH   1   4
BRANCH   1  20
ATOM     20  C   UNL     1       0.376   1.898   0.016  0.00  0.00    +0.019 C 
BRANCH  20  21
ATOM     21  C   UNL     1      -0.170   2.746   1.136  0.00  0.00    +0.204 C 
ATOM     22  O   UNL     1      -1.048   3.553   0.913  0.00  0.00    -0.277 OA
ATOM     23  N   UNL     1       0.318   2.609   2.385  0.00  0.00    -0.268 N 
ATOM     24  C   UNL     1       1.329   1.677   2.659  0.00  0.00    +0.058 A 
ATOM     25  C   UNL     1       2.632   1.911   2.235  0.00  0.00    +0.025 A 
ATOM     26  C   UNL     1       3.627   1.002   2.543  0.00  0.00    +0.002 A 
ATOM     27  C   UNL     1       3.332  -0.136   3.272  0.00  0.00    +0.002 A 
ATOM     28  C   UNL     1       2.035  -0.380   3.686  0.00  0.00    +0.025 A 
ATOM     29  C   UNL     1       1.031   0.519   3.370  0.00  0.00    +0.055 A 
ATOM     30  N   UNL     1      -0.295   0.280   3.749  0.00  0.00    -0.284 N 
ATOM     31  C   UNL     1      -1.019   1.244   4.361  0.00  0.00    +0.219 C 
ATOM     32  O   UNL     1      -2.189   1.049   4.614  0.00  0.00    -0.275 OA
ATOM     33  C   UNL     1      -0.384   2.558   4.731  0.00  0.00    +0.118 C 
ATOM     34  C   UNL     1      -0.201   3.424   3.483  0.00  0.00    +0.087 C 
ATOM     35  C   UNL     1       0.787   4.552   3.789  0.00  0.00    +0.029 C 
ATOM     36  H   UNL     1      -0.757  -0.698   3.550  0.00  0.00    +0.155 HD
ENDBRANCH  20  21
ENDBRANCH   1  20
TORSDOF 6
