REMARK  Name = ZINC36499632
REMARK  13 active torsions:
REMARK  status: ('A' for Active; 'I' for Inactive)
REMARK    1  A    between atoms: C_1  and  C_2
REMARK    2  A    between atoms: C_5  and  C_9
REMARK    3  A    between atoms: C_6  and  C_8
REMARK    4  A    between atoms: C_9  and  C_11
REMARK    5  A    between atoms: C_9  and  N_18
REMARK    6  A    between atoms: N_13  and  C_14
REMARK    7  A    between atoms: C_14  and  C_15
REMARK    8  A    between atoms: C_14  and  C_16
REMARK    9  A    between atoms: C_14  and  C_17
REMARK   10  A    between atoms: N_18  and  C_19
REMARK   11  A    between atoms: C_19  and  C_20
REMARK   12  A    between atoms: C_25  and  C_27
REMARK   13  A    between atoms: C_29  and  N_34
REMARK                            x       y       z     vdW  Elec       q    Type
REMARK                         _______ _______ _______ _____ _____    ______ ____
ROOT
ATOM      1  N   UNL     1       0.339  -5.276  -0.473  0.00  0.00    -0.275 N 
ATOM      2  C   UNL     1      -0.163  -6.527  -0.460  0.00  0.00    +0.252 C 
ATOM      3  O   UNL     1      -1.193  -6.764   0.141  0.00  0.00    -0.270 OA
ENDROOT
BRANCH   2   4
ATOM      4  C   UNL     1       0.539  -7.610  -1.176  0.00  0.00    +0.086 A 
ATOM      5  C   UNL     1       0.910  -7.444  -2.512  0.00  0.00    +0.049 A 
ATOM      6  C   UNL     1       1.565  -8.459  -3.175  0.00  0.00    +0.127 A 
ATOM      7  C   UNL     1       1.858  -9.645  -2.522  0.00  0.00    +0.036 A 
ATOM      8  C   UNL     1       1.497  -9.823  -1.201  0.00  0.00    +0.054 A 
ATOM      9  C   UNL     1       0.842  -8.809  -0.517  0.00  0.00    +0.191 A 
ATOM     10  O   UNL     1       0.492  -8.980   0.782  0.00  0.00    -0.287 OA
BRANCH   6  11
ATOM     11  N   UNL     1       1.957  -8.281  -4.591  0.00  0.00    +0.056 N 
ATOM     12  O   UNL     1       1.703  -7.247  -5.164  0.00  0.00    -0.126 OA
ATOM     13  O   UNL     1       2.532  -9.170  -5.175  0.00  0.00    -0.126 OA
ENDBRANCH   6  11
ENDBRANCH   2   4
BRANCH   1  14
ATOM     14  C   UNL     1      -0.272  -4.234   0.356  0.00  0.00    +0.193 C 
BRANCH  14  19
ATOM     15  C   UNL     1      -1.666   0.290  -2.958  0.00  0.00    +0.044 C 
ATOM     16  C   UNL     1      -1.302  -0.890  -2.094  0.00  0.00    -0.050 A 
ATOM     17  C   UNL     1      -0.222  -0.811  -1.235  0.00  0.00    +0.004 A 
ATOM     18  C   UNL     1       0.111  -1.893  -0.442  0.00  0.00    +0.006 A 
ATOM     19  C   UNL     1      -0.636  -3.054  -0.507  0.00  0.00    -0.015 A 
ATOM     20  C   UNL     1      -1.717  -3.133  -1.365  0.00  0.00    -0.045 A 
ATOM     21  C   UNL     1      -2.053  -2.049  -2.155  0.00  0.00    +0.007 A 
ATOM     22  C   UNL     1      -2.531  -4.399  -1.437  0.00  0.00    +0.044 C 
ENDBRANCH  14  19
BRANCH  14  23
ATOM     23  C   UNL     1       0.706  -3.798   1.417  0.00  0.00    +0.239 C 
ATOM     24  O   UNL     1       1.846  -4.210   1.396  0.00  0.00    -0.273 OA
ATOM     25  N   UNL     1       0.313  -2.951   2.388  0.00  0.00    -0.309 N 
ATOM     26  H   UNL     1      -0.616  -2.677   2.446  0.00  0.00    +0.149 HD
BRANCH  25  27
ATOM     27  C   UNL     1       1.289  -2.443   3.356  0.00  0.00    +0.026 C 
ATOM     28  C   UNL     1       2.387  -1.675   2.618  0.00  0.00    +0.031 C 
ATOM     29  C   UNL     1       0.588  -1.507   4.343  0.00  0.00    +0.031 C 
ATOM     30  C   UNL     1       1.909  -3.616   4.117  0.00  0.00    +0.031 C 
ENDBRANCH  25  27
ENDBRANCH  14  23
ENDBRANCH   1  14
BRANCH   1  31
ATOM     31  C   UNL     1       1.494  -4.958  -1.315  0.00  0.00    +0.183 C 
BRANCH  31  32
ATOM     32  C   UNL     1       1.030  -4.230  -2.550  0.00  0.00    +0.122 A 
ATOM     33  C   UNL     1       1.068  -2.899  -2.739  0.00  0.00    +0.046 A 
ATOM     34  C   UNL     1       0.538  -2.652  -4.027  0.00  0.00    +0.041 A 
ATOM     35  C   UNL     1       0.208  -3.848  -4.547  0.00  0.00    +0.195 A 
ATOM     36  O   UNL     1       0.513  -4.800  -3.651  0.00  0.00    -0.466 OA
ENDBRANCH  31  32
ENDBRANCH   1  31
TORSDOF 8
