REMARK  Name = ZINC23237235
REMARK  4 active torsions:
REMARK  status: ('A' for Active; 'I' for Inactive)
REMARK    1  A    between atoms: C_8  and  C_12
REMARK    2  A    between atoms: N_14  and  C_15
REMARK    3  A    between atoms: C_15  and  C_16
REMARK    4  A    between atoms: C_16  and  C_22
REMARK                            x       y       z     vdW  Elec       q    Type
REMARK                         _______ _______ _______ _____ _____    ______ ____
ROOT
ATOM      1  C   UNL     1       2.304  -6.331  -1.240  0.00  0.00    +0.251 C 
ATOM      2  O   UNL     1       1.509  -5.767  -0.511  0.00  0.00    -0.270 OA
ATOM      3  N   UNL     1       3.554  -6.585  -0.805  0.00  0.00    -0.310 N 
ATOM      4  H   UNL     1       4.187  -7.034  -1.387  0.00  0.00    +0.149 HD
ENDROOT
BRANCH   1  12
ATOM      5  C   UNL     1      -1.176  -6.927  -6.269  0.00  0.00    +0.001 A 
ATOM      6  C   UNL     1      -0.284  -7.731  -6.966  0.00  0.00    +0.004 A 
ATOM      7  C   UNL     1       0.888  -8.156  -6.375  0.00  0.00    +0.047 A 
ATOM      8  C   UNL     1       1.184  -7.773  -5.074  0.00  0.00    +0.139 A 
ATOM      9  C   UNL     1       0.293  -6.935  -4.378  0.00  0.00    +0.018 A 
ATOM     10  C   UNL     1      -0.903  -6.533  -4.991  0.00  0.00    +0.011 A 
ATOM     11  C   UNL     1       0.619  -6.487  -3.072  0.00  0.00    +0.031 A 
ATOM     12  C   UNL     1       1.899  -6.735  -2.597  0.00  0.00    +0.122 A 
ATOM     13  C   UNL     1       2.838  -7.419  -3.504  0.00  0.00    +0.350 A 
ATOM     14  O   UNL     1       4.041  -7.278  -3.387  0.00  0.00    -0.244 OA
ATOM     15  O   UNL     1       2.317  -8.208  -4.473  0.00  0.00    -0.422 OA
ENDBRANCH   1  12
BRANCH   3  16
ATOM     16  C   UNL     1       3.956  -6.183   0.545  0.00  0.00    +0.116 C 
BRANCH  16  17
ATOM     17  C   UNL     1       5.370  -6.693   0.829  0.00  0.00    +0.017 C 
ATOM     18  C   UNL     1       5.805  -6.242   2.225  0.00  0.00    +0.013 C 
ATOM     19  C   UNL     1       4.839  -6.808   3.267  0.00  0.00    +0.001 C 
ATOM     20  C   UNL     1       4.853  -8.337   3.198  0.00  0.00    +0.000 C 
ATOM     21  C   UNL     1       4.419  -8.788   1.802  0.00  0.00    +0.001 C 
ATOM     22  C   UNL     1       5.385  -8.221   0.759  0.00  0.00    +0.013 C 
BRANCH  17  23
ATOM     23  C   UNL     1       6.322  -6.135  -0.198  0.00  0.00    -0.003 A 
ATOM     24  C   UNL     1       6.670  -4.845  -0.428  0.00  0.00    +0.012 A 
ATOM     25  C   UNL     1       7.573  -4.563  -1.435  0.00  0.00    +0.008 A 
ATOM     26  C   UNL     1       8.084  -5.585  -2.164  0.00  0.00    +0.045 A 
ATOM     27  S   UNL     1       7.289  -7.002  -1.423  0.00  0.00    -0.101 S 
ENDBRANCH  17  23
ENDBRANCH  16  17
ENDBRANCH   3  16
TORSDOF 4
