REMARK  Name = ZINC39672205
REMARK  6 active torsions:
REMARK  status: ('A' for Active; 'I' for Inactive)
REMARK    1  A    between atoms: C_1  and  C_2
REMARK    2  A    between atoms: C_2  and  C_8
REMARK    3  A    between atoms: C_12  and  C_21
REMARK    4  A    between atoms: N_23  and  C_24
REMARK    5  A    between atoms: C_24  and  C_25
REMARK    6  A    between atoms: N_34  and  C_35
REMARK                            x       y       z     vdW  Elec       q    Type
REMARK                         _______ _______ _______ _____ _____    ______ ____
ROOT
ATOM      1  C   UNL     1      -1.250   0.073  -0.198  0.00  0.00    +0.222 C 
ATOM      2  O   UNL     1      -1.603  -0.498   0.812  0.00  0.00    -0.275 OA
ATOM      3  N   UNL     1      -2.124   0.262  -1.206  0.00  0.00    -0.300 N 
ATOM      4  C   UNL     1      -1.854   0.831  -2.547  0.00  0.00    +0.121 C 
ATOM      5  C   UNL     1      -2.704  -0.025  -3.513  0.00  0.00    +0.100 C 
ATOM      6  C   UNL     1      -3.831  -0.600  -2.639  0.00  0.00    -0.004 C 
ATOM      7  C   UNL     1      -3.571  -0.058  -1.226  0.00  0.00    +0.115 C 
ATOM      8  C   UNL     1      -5.189  -0.126  -3.147  0.00  0.00    -0.010 C 
ATOM      9  C   UNL     1      -6.295  -0.757  -2.298  0.00  0.00    -0.082 C 
ATOM     10  N   UNL     1      -6.204  -2.220  -2.380  0.00  0.00    +0.379 N 
ATOM     11  C   UNL     1      -4.933  -2.675  -1.804  0.00  0.00    -0.082 C 
ATOM     12  C   UNL     1      -3.769  -2.125  -2.632  0.00  0.00    -0.010 C 
ATOM     13  H   UNL     1      -6.970  -2.632  -1.870  0.00  0.00    -0.086 HD
ATOM     14  H   UNL     1      -6.255  -2.505  -3.346  0.00  0.00    -0.086 HD
ENDROOT
BRANCH   1  16
ATOM     15  C   UNL     1       0.895  -0.232  -1.405  0.00  0.00    +0.021 C 
ATOM     16  C   UNL     1       0.167   0.572  -0.325  0.00  0.00    +0.044 C 
ATOM     17  C   UNL     1       0.890   0.401   1.012  0.00  0.00    +0.016 C 
ATOM     18  C   UNL     1       0.161   1.205   2.092  0.00  0.00    +0.001 C 
ATOM     19  C   UNL     1       0.148   2.685   1.704  0.00  0.00    +0.000 C 
ATOM     20  C   UNL     1      -0.575   2.855   0.366  0.00  0.00    +0.001 C 
ATOM     21  C   UNL     1       0.154   2.052  -0.713  0.00  0.00    +0.016 C 
ENDBRANCH   1  16
BRANCH   5  22
ATOM     22  C   UNL     1      -1.872  -1.137  -4.099  0.00  0.00    +0.218 C 
ATOM     23  O   UNL     1      -0.998  -1.654  -3.436  0.00  0.00    -0.275 OA
ATOM     24  N   UNL     1      -2.099  -1.556  -5.359  0.00  0.00    -0.311 N 
ATOM     25  H   UNL     1      -2.798  -1.143  -5.889  0.00  0.00    +0.149 HD
BRANCH  24  26
ATOM     26  C   UNL     1      -1.290  -2.637  -5.929  0.00  0.00    +0.139 C 
BRANCH  26  27
ATOM     27  C   UNL     1      -1.742  -2.913  -7.340  0.00  0.00    -0.030 A 
ATOM     28  C   UNL     1      -2.741  -3.841  -7.575  0.00  0.00    +0.007 A 
ATOM     29  C   UNL     1      -3.154  -4.094  -8.867  0.00  0.00    +0.024 A 
ATOM     30  C   UNL     1      -2.567  -3.417  -9.931  0.00  0.00    +0.033 A 
ATOM     31  C   UNL     1      -1.569  -2.485  -9.694  0.00  0.00    -0.026 A 
ATOM     32  C   UNL     1      -1.162  -2.235  -8.394  0.00  0.00    +0.010 A 
ATOM     33  C   UNL     1      -0.918  -1.725 -10.820  0.00  0.00    +0.038 C 
ATOM     34  C   UNL     1      -1.114  -2.461 -12.145  0.00  0.00    +0.024 C 
ATOM     35  C   UNL     1      -2.605  -2.782 -12.318  0.00  0.00    +0.105 C 
ATOM     36  N   UNL     1      -2.997  -3.692 -11.234  0.00  0.00    -0.333 N 
ATOM     37  C   UNL     1      -3.823  -4.869 -11.512  0.00  0.00    +0.129 C 
ENDBRANCH  26  27
ENDBRANCH  24  26
ENDBRANCH   5  22
TORSDOF 4
