REMARK  Name = ZINC43261428
REMARK  8 active torsions:
REMARK  status: ('A' for Active; 'I' for Inactive)
REMARK    1  A    between atoms: C_1  and  C_2
REMARK    2  A    between atoms: C_2  and  C_4
REMARK    3  A    between atoms: C_2  and  N_22
REMARK    4  A    between atoms: C_4  and  C_6
REMARK    5  A    between atoms: C_4  and  N_12
REMARK    6  A    between atoms: N_12  and  C_13
REMARK    7  A    between atoms: N_12  and  C_14
REMARK    8  A    between atoms: C_14  and  C_15
REMARK                            x       y       z     vdW  Elec       q    Type
REMARK                         _______ _______ _______ _____ _____    ______ ____
ROOT
ATOM      1  C   UNL     1       0.721  -0.527   1.086  0.00  0.00    +0.079 C 
ENDROOT
BRANCH   1   2
ATOM      2  C   UNL     1      -0.257  -0.239   2.195  0.00  0.00    +0.006 A 
ATOM      3  C   UNL     1      -1.042  -1.102   2.885  0.00  0.00    +0.014 A 
ATOM      4  C   UNL     1      -1.873  -0.609   3.874  0.00  0.00    +0.023 A 
ATOM      5  C   UNL     1      -1.878   0.724   4.124  0.00  0.00    +0.055 A 
ATOM      6  S   UNL     1      -0.676   1.324   2.948  0.00  0.00    -0.085 S 
ATOM      7 BR   UNL     1      -2.889   1.695   5.394  0.00  0.00    -0.043 Br
ENDBRANCH   1   2
BRANCH   1   9
ATOM      8  C   UNL     1      -0.166   1.346  -0.309  0.00  0.00    -0.012 C 
ATOM      9  C   UNL     1       0.089  -0.161  -0.259  0.00  0.00    -0.056 C 
BRANCH   9  10
ATOM     10  N   UNL     1      -1.183  -0.879  -0.413  0.00  0.00    +0.381 N 
ATOM     11  H   UNL     1      -1.809  -0.619   0.335  0.00  0.00    -0.090 HD
ATOM     12  H   UNL     1      -1.600  -0.638  -1.299  0.00  0.00    -0.090 HD
ATOM     13  H   UNL     1      -1.015  -1.873  -0.380  0.00  0.00    -0.090 HD
ENDBRANCH   9  10
ENDBRANCH   1   9
BRANCH   1  14
ATOM     14  N   UNL     1       1.938   0.271   1.287  0.00  0.00    -0.295 NA
ATOM     15  C   UNL     1       2.887   0.071   0.184  0.00  0.00    +0.105 C 
BRANCH  14  16
ATOM     16  C   UNL     1       2.562  -0.039   2.581  0.00  0.00    +0.119 C 
BRANCH  16  17
ATOM     17  C   UNL     1       3.655   0.959   2.863  0.00  0.00    -0.032 A 
ATOM     18  C   UNL     1       4.947   0.710   2.436  0.00  0.00    +0.005 A 
ATOM     19  C   UNL     1       5.950   1.625   2.694  0.00  0.00    +0.001 A 
ATOM     20  C   UNL     1       5.662   2.790   3.380  0.00  0.00    +0.015 A 
ATOM     21  C   UNL     1       4.371   3.041   3.807  0.00  0.00    +0.018 A 
ATOM     22  C   UNL     1       3.366   2.127   3.543  0.00  0.00    +0.020 A 
ATOM     23 BR   UNL     1       3.977   4.634   4.746  0.00  0.00    -0.050 Br
ENDBRANCH  16  17
ENDBRANCH  14  16
ENDBRANCH   1  14
TORSDOF 6
