REMARK  Name = ZINC20688988
REMARK  5 active torsions:
REMARK  status: ('A' for Active; 'I' for Inactive)
REMARK    1  A    between atoms: C_1  and  C_2
REMARK    2  A    between atoms: C_5  and  C_7
REMARK    3  A    between atoms: C_17  and  N_25
REMARK    4  A    between atoms: C_20  and  O_23
REMARK    5  A    between atoms: O_23  and  C_24
REMARK                            x       y       z     vdW  Elec       q    Type
REMARK                         _______ _______ _______ _____ _____    ______ ____
ROOT
ATOM      1  C   UNL     1      -3.482   2.878   4.112  0.00  0.00    +0.112 C 
ATOM      2  C   UNL     1      -4.239   1.657   4.639  0.00  0.00    +0.029 C 
ATOM      3  C   UNL     1      -3.286   0.883   5.594  0.00  0.00    +0.033 C 
ATOM      4  C   UNL     1      -3.411   1.633   6.905  0.00  0.00    -0.030 C 
ATOM      5  C   UNL     1      -4.527   2.317   6.939  0.00  0.00    -0.023 C 
ATOM      6  C   UNL     1      -5.317   2.130   5.638  0.00  0.00    +0.051 C 
ATOM      7  C   UNL     1      -5.957   3.411   5.191  0.00  0.00    +0.014 A 
ATOM      8  C   UNL     1      -7.058   3.873   5.903  0.00  0.00    +0.132 A 
ATOM      9  C   UNL     1      -7.688   5.046   5.545  0.00  0.00    +0.037 A 
ATOM     10  C   UNL     1      -7.226   5.780   4.467  0.00  0.00    +0.050 A 
ATOM     11  C   UNL     1      -6.133   5.330   3.751  0.00  0.00    +0.141 A 
ATOM     12  C   UNL     1      -5.494   4.139   4.112  0.00  0.00    +0.076 A 
ATOM     13  N   UNL     1      -4.403   3.737   3.368  0.00  0.00    -0.333 N 
ATOM     14  H   UNL     1      -4.187   3.998   2.321  0.00  0.00    +0.147 HD
ENDROOT
BRANCH   1  19
ATOM     15  C   UNL     1      -0.013   1.086   0.008  0.00  0.00    +0.051 C 
ATOM     16  C   UNL     1      -0.718   1.572   1.248  0.00  0.00    -0.013 A 
ATOM     17  C   UNL     1      -0.201   1.857   2.468  0.00  0.00    +0.011 A 
ATOM     18  C   UNL     1      -1.047   2.294   3.469  0.00  0.00    +0.013 A 
ATOM     19  C   UNL     1      -2.370   2.425   3.202  0.00  0.00    +0.010 A 
ATOM     20  S   UNL     1      -2.451   1.929   1.489  0.00  0.00    -0.097 S 
ENDBRANCH   1  19
BRANCH   8  21
ATOM     21  N   UNL     1      -7.561   3.095   7.058  0.00  0.00    +0.057 N 
ATOM     22  O   UNL     1      -8.525   3.493   7.686  0.00  0.00    -0.126 OA
ATOM     23  O   UNL     1      -7.010   2.058   7.380  0.00  0.00    -0.126 OA
ENDBRANCH   8  21
BRANCH  11  24
ATOM     24  O   UNL     1      -5.676   6.050   2.691  0.00  0.00    -0.493 OA
ATOM     25  C   UNL     1      -6.374   7.256   2.376  0.00  0.00    +0.277 C 
ENDBRANCH  11  24
TORSDOF 3
