REMARK  Name = ZINC15835092
REMARK  11 active torsions:
REMARK  status: ('A' for Active; 'I' for Inactive)
REMARK    1  A    between atoms: C_1  and  C_2
REMARK    2  A    between atoms: C_4  and  C_8
REMARK    3  A    between atoms: C_5  and  C_7
REMARK    4  A    between atoms: N_10  and  N_11
REMARK    5  A    between atoms: C_12  and  C_14
REMARK    6  A    between atoms: C_17  and  O_33
REMARK    7  A    between atoms: C_18  and  S_20
REMARK    8  A    between atoms: S_20  and  N_23
REMARK    9  A    between atoms: C_25  and  C_32
REMARK   10  A    between atoms: C_28  and  C_31
REMARK   11  A    between atoms: O_33  and  C_34
REMARK                            x       y       z     vdW  Elec       q    Type
REMARK                         _______ _______ _______ _____ _____    ______ ____
ROOT
ATOM      1  C   UNL     1       2.338   2.022   0.559  0.00  0.00    +0.040 A 
ATOM      2  C   UNL     1       2.600   0.651   0.496  0.00  0.00    +0.017 A 
ATOM      3  C   UNL     1       1.563  -0.239   0.325  0.00  0.00    +0.048 A 
ATOM      4  C   UNL     1       0.257   0.225   0.215  0.00  0.00    +0.146 A 
ATOM      5  C   UNL     1      -0.008   1.588   0.278  0.00  0.00    +0.148 A 
ATOM      6  C   UNL     1       1.024   2.484   0.449  0.00  0.00    +0.045 A 
ENDROOT
BRANCH   1   8
ATOM      7  N   UNL     1       4.713   2.532   0.848  0.00  0.00    -0.230 N 
ATOM      8  C   UNL     1       3.446   2.980   0.742  0.00  0.00    +0.260 C 
ATOM      9  O   UNL     1       3.216   4.173   0.796  0.00  0.00    -0.269 OA
ATOM     10  H   UNL     1       4.896   1.581   0.805  0.00  0.00    +0.173 HD
BRANCH   7  13
ATOM     11  C   UNL     1       7.031   2.993   1.129  0.00  0.00    +0.263 C 
ATOM     12  O   UNL     1       7.261   1.800   1.074  0.00  0.00    -0.269 OA
ATOM     13  N   UNL     1       5.765   3.441   1.022  0.00  0.00    -0.230 N 
ATOM     14  H   UNL     1       5.581   4.393   1.066  0.00  0.00    +0.173 HD
BRANCH  11  18
ATOM     15  C   UNL     1       9.704   7.301   1.704  0.00  0.00    +0.086 C 
ATOM     16  C   UNL     1       9.298   5.857   1.564  0.00  0.00    +0.103 A 
ATOM     17  C   UNL     1       8.043   5.414   1.393  0.00  0.00    +0.057 A 
ATOM     18  C   UNL     1       8.138   3.949   1.312  0.00  0.00    +0.079 A 
ATOM     19  C   UNL     1       9.465   3.660   1.435  0.00  0.00    +0.114 A 
ATOM     20  O   UNL     1      10.135   4.808   1.584  0.00  0.00    -0.464 OA
ATOM     21  C   UNL     1      10.074   2.282   1.410  0.00  0.00    +0.087 C 
ENDBRANCH  11  18
ENDBRANCH   7  13
ENDBRANCH   1   8
BRANCH   5  22
ATOM     22  S   UNL     1      -1.664   2.170   0.131  0.00  0.00    +0.064 S 
ATOM     23  O   UNL     1      -2.450   1.387   1.020  0.00  0.00    -0.153 OA
ATOM     24  O   UNL     1      -1.605   3.587   0.213  0.00  0.00    -0.153 OA
BRANCH  22  25
ATOM     25  N   UNL     1      -2.178   1.805  -1.400  0.00  0.00    -0.176 NA
ATOM     26  C   UNL     1      -2.953   0.584  -1.659  0.00  0.00    +0.112 C 
ATOM     27  C   UNL     1      -4.247   0.973  -2.391  0.00  0.00    +0.002 C 
ATOM     28  C   UNL     1      -3.895   1.772  -3.648  0.00  0.00    +0.009 C 
ATOM     29  C   UNL     1      -3.162   3.055  -3.250  0.00  0.00    +0.002 C 
ATOM     30  C   UNL     1      -1.861   2.693  -2.527  0.00  0.00    +0.112 C 
ATOM     31  C   UNL     1      -4.050   3.883  -2.319  0.00  0.00    +0.009 C 
ATOM     32  C   UNL     1      -5.008  -0.293  -2.787  0.00  0.00    +0.009 C 
ENDBRANCH  22  25
ENDBRANCH   5  22
BRANCH   4  33
ATOM     33  O   UNL     1      -0.762  -0.655   0.047  0.00  0.00    -0.493 OA
ATOM     34  C   UNL     1      -0.435  -2.045   0.105  0.00  0.00    +0.277 C 
ENDBRANCH   4  33
TORSDOF 6
