REMARK  Name = ZINC01787496
REMARK  6 active torsions:
REMARK  status: ('A' for Active; 'I' for Inactive)
REMARK    1  A    between atoms: C_4  and  C_7
REMARK    2  A    between atoms: C_7  and  C_9
REMARK    3  A    between atoms: C_14  and  N_15
REMARK    4  A    between atoms: C_16  and  C_18
REMARK    5  A    between atoms: C_18  and  O_19
REMARK    6  A    between atoms: O_19  and  C_20
REMARK                            x       y       z     vdW  Elec       q    Type
REMARK                         _______ _______ _______ _____ _____    ______ ____
ROOT
ATOM      1  N   UNL     1       2.211  -2.935   0.005  0.00  0.00    -0.282 N 
ATOM      2  C   UNL     1       1.140  -2.118   0.044  0.00  0.00    +0.255 C 
ATOM      3  O   UNL     1       0.021  -2.586   0.042  0.00  0.00    -0.272 OA
ATOM      4  H   UNL     1       3.102  -2.562  -0.079  0.00  0.00    +0.155 HD
ENDROOT
BRANCH   1  10
ATOM      5  C   UNL     1       3.007  -5.179  -0.449  0.00  0.00    +0.045 A 
ATOM      6  C   UNL     1       2.822  -6.562  -0.361  0.00  0.00    +0.033 A 
ATOM      7  C   UNL     1       1.693  -7.067   0.247  0.00  0.00    +0.042 A 
ATOM      8  C   UNL     1       0.738  -6.209   0.774  0.00  0.00    +0.022 A 
ATOM      9  C   UNL     1       0.911  -4.841   0.700  0.00  0.00    +0.025 A 
ATOM     10  C   UNL     1       2.038  -4.314   0.086  0.00  0.00    +0.044 A 
ATOM     11 CL   UNL     1       1.464  -8.784   0.355  0.00  0.00    -0.084 Cl
BRANCH   5  12
ATOM     12  C   UNL     1       4.212  -4.631  -1.099  0.00  0.00    +0.195 C 
ATOM     13  O   UNL     1       5.295  -4.732  -0.555  0.00  0.00    -0.287 OA
BRANCH  12  17
ATOM     14  C   UNL     1       3.900  -2.703  -4.870  0.00  0.00    +0.000 A 
ATOM     15  C   UNL     1       5.114  -2.723  -4.205  0.00  0.00    +0.001 A 
ATOM     16  C   UNL     1       5.222  -3.347  -2.980  0.00  0.00    +0.012 A 
ATOM     17  C   UNL     1       4.103  -3.960  -2.411  0.00  0.00    +0.022 A 
ATOM     18  C   UNL     1       2.883  -3.941  -3.090  0.00  0.00    +0.012 A 
ATOM     19  C   UNL     1       2.788  -3.309  -4.312  0.00  0.00    +0.001 A 
ENDBRANCH  12  17
ENDBRANCH   5  12
ENDBRANCH   1  10
BRANCH   2  20
ATOM     20  C   UNL     1       1.332  -0.624   0.091  0.00  0.00    +0.324 C 
BRANCH  20  21
ATOM     21  O   UNL     1       0.057   0.020   0.127  0.00  0.00    -0.483 OA
BRANCH  21  22
ATOM     22  C   UNL     1       0.052   1.376   0.172  0.00  0.00    +0.125 A 
ATOM     23  C   UNL     1       1.260   2.071   0.180  0.00  0.00    +0.046 A 
ATOM     24  C   UNL     1       1.273   3.435   0.225  0.00  0.00    +0.015 A 
ATOM     25  C   UNL     1       0.064   4.140   0.262  0.00  0.00    +0.021 A 
ATOM     26  C   UNL     1      -1.157   3.444   0.254  0.00  0.00    +0.143 A 
ATOM     27  C   UNL     1      -1.153   2.059   0.202  0.00  0.00    +0.092 A 
ATOM     28  O   UNL     1      -2.318   4.133   0.292  0.00  0.00    -0.422 OA
ATOM     29  C   UNL     1      -2.333   5.472   0.335  0.00  0.00    +0.341 A 
ATOM     30  O   UNL     1      -3.405   6.048   0.370  0.00  0.00    -0.245 OA
ATOM     31  C   UNL     1      -1.141   6.239   0.341  0.00  0.00    +0.041 A 
ATOM     32  C   UNL     1       0.053   5.608   0.311  0.00  0.00    -0.027 A 
ATOM     33  C   UNL     1       1.369   6.336   0.335  0.00  0.00    +0.036 C 
ATOM     34  C   UNL     1       1.179   7.803  -0.047  0.00  0.00    +0.005 C 
ATOM     35  C   UNL     1       0.048   8.381   0.811  0.00  0.00    +0.005 C 
ATOM     36  C   UNL     1      -1.266   7.739   0.371  0.00  0.00    +0.042 C 
ENDBRANCH  21  22
ENDBRANCH  20  21
ENDBRANCH   2  20
TORSDOF 6
