REMARK  Name = ZINC38636131
REMARK  14 active torsions:
REMARK  status: ('A' for Active; 'I' for Inactive)
REMARK    1  A    between atoms: C_1  and  C_2
REMARK    2  A    between atoms: C_3  and  C_32
REMARK    3  A    between atoms: C_4  and  C_31
REMARK    4  A    between atoms: C_5  and  S_10
REMARK    5  A    between atoms: C_6  and  C_9
REMARK    6  A    between atoms: C_7  and  C_8
REMARK    7  A    between atoms: S_10  and  N_13
REMARK    8  A    between atoms: N_13  and  C_14
REMARK    9  A    between atoms: C_14  and  C_15
REMARK   10  A    between atoms: C_15  and  C_17
REMARK   11  A    between atoms: C_15  and  N_26
REMARK   12  A    between atoms: C_20  and  N_23
REMARK   13  A    between atoms: N_23  and  C_24
REMARK   14  A    between atoms: N_23  and  C_25
REMARK                            x       y       z     vdW  Elec       q    Type
REMARK                         _______ _______ _______ _____ _____    ______ ____
ROOT
ATOM      1  C   UNL     1       2.336  -4.397  -0.499  0.00  0.00    +0.095 C 
ENDROOT
BRANCH   1   2
ATOM      2  N   UNL     1       2.679  -3.005  -0.198  0.00  0.00    -0.191 NA
ATOM      3  H   UNL     1       3.602  -2.710  -0.252  0.00  0.00    +0.148 HD
BRANCH   2   4
ATOM      4  S   UNL     1       1.492  -1.934   0.234  0.00  0.00    +0.059 S 
ATOM      5  O   UNL     1       0.451  -2.074  -0.723  0.00  0.00    -0.153 OA
ATOM      6  O   UNL     1       2.136  -0.693   0.484  0.00  0.00    -0.153 OA
BRANCH   4  11
ATOM      7  C   UNL     1      -0.756  -3.804   5.512  0.00  0.00    +0.044 C 
ATOM      8  C   UNL     1      -0.195  -3.337   4.194  0.00  0.00    -0.044 A 
ATOM      9  C   UNL     1      -0.757  -3.775   3.009  0.00  0.00    -0.043 A 
ATOM     10  C   UNL     1      -0.242  -3.346   1.800  0.00  0.00    -0.021 A 
ATOM     11  C   UNL     1       0.835  -2.479   1.776  0.00  0.00    +0.112 A 
ATOM     12  C   UNL     1       1.396  -2.041   2.960  0.00  0.00    -0.021 A 
ATOM     13  C   UNL     1       0.879  -2.466   4.169  0.00  0.00    -0.043 A 
ATOM     14  C   UNL     1       1.487  -1.984   5.461  0.00  0.00    +0.044 C 
ATOM     15  C   UNL     1       2.570  -1.097   2.933  0.00  0.00    +0.046 C 
ATOM     16  C   UNL     1      -0.854  -3.824   0.509  0.00  0.00    +0.046 C 
ATOM     17  C   UNL     1      -1.931  -4.719   3.036  0.00  0.00    +0.044 C 
ENDBRANCH   4  11
ENDBRANCH   2   4
ENDBRANCH   1   2
BRANCH   1  18
ATOM     18  C   UNL     1       3.515  -5.072  -1.204  0.00  0.00    -0.022 C 
BRANCH  18  19
ATOM     19  C   UNL     1       4.697  -5.120  -0.270  0.00  0.00    -0.060 A 
ATOM     20  C   UNL     1       4.768  -6.100   0.703  0.00  0.00    +0.004 A 
ATOM     21  C   UNL     1       5.851  -6.147   1.559  0.00  0.00    +0.023 A 
ATOM     22  C   UNL     1       6.868  -5.209   1.443  0.00  0.00    +0.029 A 
ATOM     23  C   UNL     1       6.793  -4.226   0.464  0.00  0.00    +0.023 A 
ATOM     24  C   UNL     1       5.711  -4.188  -0.393  0.00  0.00    +0.004 A 
BRANCH  22  25
ATOM     25  N   UNL     1       7.964  -5.253   2.308  0.00  0.00    -0.336 N 
ATOM     26  C   UNL     1       8.101  -6.358   3.260  0.00  0.00    +0.129 C 
ATOM     27  C   UNL     1       8.976  -4.194   2.263  0.00  0.00    +0.129 C 
ENDBRANCH  22  25
ENDBRANCH  18  19
BRANCH  18  28
ATOM     28  N   UNL     1       3.138  -6.439  -1.587  0.00  0.00    +0.385 N 
ATOM     29  C   UNL     1       2.076  -6.405  -2.626  0.00  0.00    -0.078 C 
ATOM     30  C   UNL     1       2.198  -7.793  -3.303  0.00  0.00    -0.020 C 
ATOM     31  C   UNL     1       3.725  -8.037  -3.318  0.00  0.00    -0.020 C 
ATOM     32  C   UNL     1       4.288  -7.129  -2.210  0.00  0.00    -0.078 C 
ATOM     33  H   UNL     1       2.819  -6.952  -0.779  0.00  0.00    -0.081 HD
ENDBRANCH  18  28
ENDBRANCH   1  18
TORSDOF 7
