REMARK  Name = ZINC35916803
REMARK  9 active torsions:
REMARK  status: ('A' for Active; 'I' for Inactive)
REMARK    1  A    between atoms: C_1  and  N_2
REMARK    2  A    between atoms: C_3  and  C_21
REMARK    3  A    between atoms: C_5  and  S_9
REMARK    4  A    between atoms: S_9  and  N_12
REMARK    5  A    between atoms: N_12  and  C_13
REMARK    6  A    between atoms: C_13  and  C_14
REMARK    7  A    between atoms: C_14  and  C_15
REMARK    8  A    between atoms: C_25  and  O_27
REMARK    9  A    between atoms: O_27  and  C_28
REMARK                            x       y       z     vdW  Elec       q    Type
REMARK                         _______ _______ _______ _____ _____    ______ ____
ROOT
ATOM      1  C   UNL     1       0.238   2.129   0.630  0.00  0.00    +0.138 C 
ATOM      2  N   UNL     1      -0.047   0.689   0.573  0.00  0.00    -0.182 NA
ATOM      3  C   UNL     1       0.280   0.135  -0.762  0.00  0.00    +0.142 C 
ATOM      4  C   UNL     1       0.818  -1.285  -0.487  0.00  0.00    +0.199 C 
ATOM      5  C   UNL     1       0.769  -1.423   1.051  0.00  0.00    +0.215 C 
ATOM      6  O   UNL     1       0.802  -0.057   1.525  0.00  0.00    -0.295 OA
ENDROOT
BRANCH   3   7
ATOM      7  C   UNL     1       1.335   0.976  -1.433  0.00  0.00    -0.023 A 
ATOM      8  C   UNL     1       1.078   1.557  -2.662  0.00  0.00    +0.005 A 
ATOM      9  C   UNL     1       2.044   2.329  -3.280  0.00  0.00    +0.004 A 
ATOM     10  C   UNL     1       3.270   2.522  -2.672  0.00  0.00    +0.046 A 
ATOM     11  C   UNL     1       3.530   1.940  -1.439  0.00  0.00    +0.129 A 
ATOM     12  C   UNL     1       2.557   1.170  -0.819  0.00  0.00    +0.051 A 
BRANCH  11  13
ATOM     13  O   UNL     1       4.735   2.129  -0.839  0.00  0.00    -0.456 OA
BRANCH  13  14
ATOM     14  C   UNL     1       4.985   1.454   0.314  0.00  0.00    +0.128 A 
ATOM     15  C   UNL     1       5.286   0.101   0.276  0.00  0.00    +0.046 A 
ATOM     16  C   UNL     1       5.540  -0.582   1.450  0.00  0.00    +0.004 A 
ATOM     17  C   UNL     1       5.494   0.082   2.661  0.00  0.00    +0.000 A 
ATOM     18  C   UNL     1       5.194   1.431   2.702  0.00  0.00    +0.004 A 
ATOM     19  C   UNL     1       4.946   2.120   1.531  0.00  0.00    +0.046 A 
ENDBRANCH  13  14
ENDBRANCH  11  13
ENDBRANCH   3   7
BRANCH   4  20
ATOM     20  S   UNL     1      -0.245  -2.528  -1.272  0.00  0.00    +0.036 S 
ATOM     21  O   UNL     1      -1.551  -2.478  -0.714  0.00  0.00    -0.158 OA
ATOM     22  O   UNL     1      -0.058  -2.513  -2.681  0.00  0.00    -0.158 OA
BRANCH  20  23
ATOM     23  N   UNL     1       0.369  -3.985  -0.780  0.00  0.00    -0.194 NA
ATOM     24  H   UNL     1       0.759  -4.591  -1.429  0.00  0.00    +0.148 HD
BRANCH  23  25
ATOM     25  C   UNL     1       0.324  -4.358   0.636  0.00  0.00    +0.110 C 
BRANCH  25  26
ATOM     26  C   UNL     1       0.596  -5.857   0.777  0.00  0.00    +0.052 C 
BRANCH  26  27
ATOM     27  C   UNL     1       0.549  -6.242   2.233  0.00  0.00    -0.046 A 
ATOM     28  C   UNL     1       1.699  -6.191   2.999  0.00  0.00    +0.003 A 
ATOM     29  C   UNL     1       1.656  -6.543   4.335  0.00  0.00    +0.000 A 
ATOM     30  C   UNL     1       0.463  -6.946   4.905  0.00  0.00    +0.000 A 
ATOM     31  C   UNL     1      -0.687  -6.996   4.140  0.00  0.00    +0.000 A 
ATOM     32  C   UNL     1      -0.645  -6.640   2.805  0.00  0.00    +0.003 A 
ENDBRANCH  26  27
ENDBRANCH  25  26
ENDBRANCH  23  25
ENDBRANCH  20  23
ENDBRANCH   4  20
TORSDOF 8
