REMARK  Name = ZINC34683700
REMARK  7 active torsions:
REMARK  status: ('A' for Active; 'I' for Inactive)
REMARK    1  A    between atoms: C_3  and  C_32
REMARK    2  A    between atoms: C_6  and  C_7
REMARK    3  A    between atoms: C_7  and  N_8
REMARK    4  A    between atoms: C_11  and  N_14
REMARK    5  A    between atoms: N_14  and  C_15
REMARK    6  A    between atoms: N_14  and  S_22
REMARK    7  A    between atoms: S_22  and  C_25
REMARK                            x       y       z     vdW  Elec       q    Type
REMARK                         _______ _______ _______ _____ _____    ______ ____
ROOT
ATOM      1  N   UNL     1      -2.038  -1.877  -1.256  0.00  0.00    +0.382 N 
ATOM      2  C   UNL     1      -2.109  -0.484  -1.712  0.00  0.00    -0.077 C 
ATOM      3  C   UNL     1      -2.387  -0.449  -3.216  0.00  0.00    +0.006 C 
ATOM      4  C   UNL     1      -3.720  -1.149  -3.499  0.00  0.00    +0.095 C 
ATOM      5  C   UNL     1      -3.661  -2.578  -2.953  0.00  0.00    +0.006 C 
ATOM      6  C   UNL     1      -3.335  -2.534  -1.458  0.00  0.00    -0.077 C 
ATOM      7  H   UNL     1      -1.329  -2.365  -1.781  0.00  0.00    -0.081 HD
ENDROOT
BRANCH   1   8
ATOM      8  C   UNL     1      -1.694  -1.906   0.172  0.00  0.00    -0.043 C 
BRANCH   8  14
ATOM      9  C   UNL     1      -0.139   0.010   0.591  0.00  0.00    +0.002 A 
ATOM     10  C   UNL     1       1.131   0.526   0.770  0.00  0.00    +0.012 A 
ATOM     11  C   UNL     1       2.230  -0.311   0.725  0.00  0.00    +0.055 A 
ATOM     12  C   UNL     1       2.059  -1.664   0.502  0.00  0.00    +0.012 A 
ATOM     13  C   UNL     1       0.789  -2.181   0.324  0.00  0.00    +0.002 A 
ATOM     14  C   UNL     1      -0.310  -1.343   0.367  0.00  0.00    -0.064 A 
BRANCH  11  15
ATOM     15  C   UNL     1       3.614   0.252   0.919  0.00  0.00    +0.417 C 
ATOM     16  F   UNL     1       3.942   0.225   2.279  0.00  0.00    -0.166 F 
ATOM     17  F   UNL     1       4.535  -0.518   0.202  0.00  0.00    -0.166 F 
ATOM     18  F   UNL     1       3.650   1.572   0.457  0.00  0.00    -0.166 F 
ENDBRANCH  11  15
ENDBRANCH   8  14
ENDBRANCH   1   8
BRANCH   4  19
ATOM     19  N   UNL     1      -3.955  -1.186  -4.945  0.00  0.00    -0.200 N 
BRANCH  19  20
ATOM     20  C   UNL     1      -3.100  -1.919  -5.774  0.00  0.00    +0.052 A 
ATOM     21  C   UNL     1      -1.816  -1.457  -6.030  0.00  0.00    +0.027 A 
ATOM     22  C   UNL     1      -0.973  -2.183  -6.848  0.00  0.00    +0.040 A 
ATOM     23  C   UNL     1      -1.407  -3.369  -7.414  0.00  0.00    +0.124 A 
ATOM     24  C   UNL     1      -2.688  -3.831  -7.161  0.00  0.00    +0.040 A 
ATOM     25  C   UNL     1      -3.532  -3.112  -6.338  0.00  0.00    +0.027 A 
ATOM     26  F   UNL     1      -0.581  -4.077  -8.216  0.00  0.00    -0.205 F 
ENDBRANCH  19  20
BRANCH  19  27
ATOM     27  S   UNL     1      -5.235  -0.361  -5.597  0.00  0.00    +0.075 S 
ATOM     28  O   UNL     1      -5.463  -0.917  -6.885  0.00  0.00    -0.150 OA
ATOM     29  O   UNL     1      -6.243  -0.319  -4.596  0.00  0.00    -0.150 OA
BRANCH  27  30
ATOM     30  C   UNL     1      -4.708   1.300  -5.852  0.00  0.00    +0.109 A 
ATOM     31  C   UNL     1      -4.871   2.238  -4.849  0.00  0.00    +0.031 A 
ATOM     32  C   UNL     1      -4.458   3.542  -5.048  0.00  0.00    +0.040 A 
ATOM     33  C   UNL     1      -3.880   3.909  -6.251  0.00  0.00    +0.124 A 
ATOM     34  C   UNL     1      -3.717   2.968  -7.255  0.00  0.00    +0.040 A 
ATOM     35  C   UNL     1      -4.126   1.664  -7.052  0.00  0.00    +0.031 A 
ATOM     36  F   UNL     1      -3.475   5.183  -6.447  0.00  0.00    -0.205 F 
ENDBRANCH  27  30
ENDBRANCH  19  27
ENDBRANCH   4  19
TORSDOF 7
