REMARK  Name = ZINC01307544
REMARK  6 active torsions:
REMARK  status: ('A' for Active; 'I' for Inactive)
REMARK    1  A    between atoms: C_1  and  C_2
REMARK    2  A    between atoms: C_3  and  C_4
REMARK    3  A    between atoms: C_4  and  S_5
REMARK    4  A    between atoms: S_5  and  C_6
REMARK    5  A    between atoms: C_23  and  C_25
REMARK    6  A    between atoms: C_23  and  C_26
REMARK                            x       y       z     vdW  Elec       q    Type
REMARK                         _______ _______ _______ _____ _____    ______ ____
ROOT
ATOM      1  C   UNL     1      -4.198   4.038  -7.949  0.00  0.00    +0.115 A 
ATOM      2  C   UNL     1      -3.584   3.830  -6.721  0.00  0.00    +0.072 A 
ATOM      3  C   UNL     1      -3.344   4.897  -5.847  0.00  0.00    +0.092 A 
ATOM      4  C   UNL     1      -2.687   4.552  -4.573  0.00  0.00    +0.035 A 
ATOM      5  C   UNL     1      -2.334   5.430  -3.519  0.00  0.00    -0.024 A 
ATOM      6  C   UNL     1      -1.736   4.933  -2.405  0.00  0.00    +0.020 A 
ATOM      7  C   UNL     1      -1.460   3.564  -2.313  0.00  0.00    +0.105 A 
ATOM      8  C   UNL     1      -2.379   3.193  -4.389  0.00  0.00    +0.089 A 
ATOM      9  S   UNL     1      -2.954   2.408  -5.874  0.00  0.00    -0.066 S 
ATOM     10  N   UNL     1      -0.839   3.061  -1.178  0.00  0.00    -0.312 N 
ATOM     11  C   UNL     1       0.095   1.979  -1.524  0.00  0.00    +0.134 C 
ATOM     12  C   UNL     1       0.799   1.494  -0.255  0.00  0.00    +0.178 C 
ATOM     13  O   UNL     1      -0.181   1.079   0.700  0.00  0.00    -0.377 OA
ATOM     14  C   UNL     1      -1.107   2.108   1.060  0.00  0.00    +0.178 C 
ATOM     15  C   UNL     1      -1.831   2.599  -0.197  0.00  0.00    +0.134 C 
ATOM     16  C   UNL     1      -1.349   5.827  -1.254  0.00  0.00    +0.199 C 
ATOM     17  O   UNL     1      -1.355   7.194  -1.666  0.00  0.00    -0.369 OA
ATOM     18  C   UNL     1      -2.573   7.584  -2.310  0.00  0.00    +0.068 C 
ATOM     19  C   UNL     1      -2.640   6.896  -3.675  0.00  0.00    +0.070 C 
ATOM     20  C   UNL     1      -2.594   9.103  -2.497  0.00  0.00    +0.041 C 
ATOM     21  C   UNL     1      -3.768   7.154  -1.457  0.00  0.00    +0.041 C 
ATOM     22  N   UNL     1      -3.743   6.117  -6.275  0.00  0.00    -0.234 NA
ATOM     23  C   UNL     1      -4.319   6.277  -7.440  0.00  0.00    +0.223 A 
ATOM     24  N   UNL     1      -4.553   5.282  -8.276  0.00  0.00    -0.228 NA
ATOM     25  N   UNL     1      -1.776   2.671  -3.293  0.00  0.00    -0.337 N 
ATOM     26  H   UNL     1      -1.570   1.669  -3.207  0.00  0.00    +0.168 HD
ENDROOT
BRANCH   1  27
ATOM     27  S   UNL     1      -4.500   2.694  -9.048  0.00  0.00    -0.101 S 
BRANCH  27  28
ATOM     28  C   UNL     1      -5.289   3.578 -10.416  0.00  0.00    +0.103 C 
BRANCH  28  31
ATOM     29  C   UNL     1      -7.261   1.407 -12.897  0.00  0.00    +0.051 C 
ATOM     30  C   UNL     1      -6.904   2.385 -11.807  0.00  0.00    -0.011 C 
ATOM     31  C   UNL     1      -5.646   2.600 -11.506  0.00  0.00    -0.005 C 
ATOM     32 BR   UNL     1      -8.270   3.301 -10.874  0.00  0.00    -0.056 Br
ENDBRANCH  28  31
ENDBRANCH  27  28
ENDBRANCH   1  27
TORSDOF 3
