REMARK  Name = ZINC09491231
REMARK  12 active torsions:
REMARK  status: ('A' for Active; 'I' for Inactive)
REMARK    1  A    between atoms: C_1  and  C_2
REMARK    2  A    between atoms: C_4  and  N_25
REMARK    3  A    between atoms: C_5  and  O_23
REMARK    4  A    between atoms: C_7  and  N_8
REMARK    5  A    between atoms: C_9  and  C_11
REMARK    6  A    between atoms: C_11  and  N_50
REMARK    7  A    between atoms: C_12  and  N_50
REMARK    8  A    between atoms: C_13  and  C_14
REMARK    9  A    between atoms: C_13  and  N_50
REMARK   10  A    between atoms: C_19  and  O_20
REMARK   11  A    between atoms: O_20  and  C_21
REMARK   12  A    between atoms: O_23  and  C_24
REMARK                            x       y       z     vdW  Elec       q    Type
REMARK                         _______ _______ _______ _____ _____    ______ ____
ROOT
ATOM      1  N   UNL     1       6.202   4.769  -3.005  0.00  0.00    -0.287 N 
ATOM      2  C   UNL     1       4.947   4.346  -2.754  0.00  0.00    +0.201 C 
ATOM      3  O   UNL     1       4.296   3.824  -3.633  0.00  0.00    -0.278 OA
ATOM      4  H   UNL     1       6.694   5.258  -2.327  0.00  0.00    +0.155 HD
ENDROOT
BRANCH   1  11
ATOM      5  C   UNL     1       8.272   6.501  -3.902  0.00  0.00    +0.046 C 
ATOM      6  C   UNL     1       7.810   5.322  -4.720  0.00  0.00    -0.027 A 
ATOM      7  C   UNL     1       8.400   5.055  -5.941  0.00  0.00    +0.041 A 
ATOM      8  C   UNL     1       7.974   3.979  -6.696  0.00  0.00    +0.168 A 
ATOM      9  C   UNL     1       6.957   3.159  -6.227  0.00  0.00    +0.152 A 
ATOM     10  C   UNL     1       6.367   3.420  -5.001  0.00  0.00    +0.071 A 
ATOM     11  C   UNL     1       6.796   4.502  -4.244  0.00  0.00    +0.040 A 
BRANCH   8  12
ATOM     12  N   UNL     1       8.604   3.700  -8.006  0.00  0.00    +0.060 N 
ATOM     13  O   UNL     1       9.497   4.419  -8.418  0.00  0.00    -0.126 OA
ATOM     14  O   UNL     1       8.230   2.752  -8.672  0.00  0.00    -0.126 OA
ENDBRANCH   8  12
BRANCH   9  15
ATOM     15  O   UNL     1       6.540   2.101  -6.971  0.00  0.00    -0.493 OA
ATOM     16  C   UNL     1       5.489   1.300  -6.427  0.00  0.00    +0.277 C 
ENDBRANCH   9  15
ENDBRANCH   1  11
BRANCH   2  17
ATOM     17  C   UNL     1       4.354   4.523  -1.380  0.00  0.00    +0.019 C 
BRANCH  17  19
ATOM     18  C   UNL     1       2.101   4.774  -2.232  0.00  0.00    -0.095 C 
ATOM     19  N   UNL     1       2.987   3.959  -1.375  0.00  0.00    +0.386 N 
ATOM     20  H   UNL     1       3.021   3.002  -1.744  0.00  0.00    -0.081 HD
BRANCH  19  21
ATOM     21  C   UNL     1       2.461   3.923   0.006  0.00  0.00    -0.039 C 
BRANCH  21  22
ATOM     22  C   UNL     1       1.169   3.148   0.013  0.00  0.00    -0.021 A 
ATOM     23  C   UNL     1      -0.039   3.818   0.037  0.00  0.00    +0.020 A 
ATOM     24  C   UNL     1      -1.226   3.107   0.043  0.00  0.00    +0.018 A 
ATOM     25  C   UNL     1      -1.206   1.724   0.020  0.00  0.00    +0.019 A 
ATOM     26  C   UNL     1      -0.000   1.050   0.002  0.00  0.00    +0.047 A 
ATOM     27  C   UNL     1       1.191   1.761  -0.005  0.00  0.00    +0.121 A 
ATOM     28 BR   UNL     1      -2.878   4.027   0.075  0.00  0.00    -0.050 Br
BRANCH  27  29
ATOM     29  O   UNL     1       2.378   1.100  -0.029  0.00  0.00    -0.495 OA
ATOM     30  C   UNL     1       2.325  -0.328  -0.047  0.00  0.00    +0.277 C 
ENDBRANCH  27  29
ENDBRANCH  21  22
ENDBRANCH  19  21
ENDBRANCH  17  19
ENDBRANCH   2  17
TORSDOF 8
