REMARK  Name = ZINC15926583
REMARK  5 active torsions:
REMARK  status: ('A' for Active; 'I' for Inactive)
REMARK    1  A    between atoms: C_6  and  S_7
REMARK    2  A    between atoms: S_7  and  N_10
REMARK    3  A    between atoms: C_13  and  C_16
REMARK    4  A    between atoms: N_18  and  C_19
REMARK    5  A    between atoms: C_19  and  C_20
REMARK                            x       y       z     vdW  Elec       q    Type
REMARK                         _______ _______ _______ _____ _____    ______ ____
ROOT
ATOM      1  N   UNL     1       1.154   4.329   1.596  0.00  0.00    -0.177 NA
ATOM      2  C   UNL     1      -0.107   4.535   2.322  0.00  0.00    +0.110 C 
ATOM      3  C   UNL     1      -0.106   5.935   2.932  0.00  0.00    +0.030 C 
ATOM      4  C   UNL     1       1.149   6.116   3.788  0.00  0.00    +0.077 C 
ATOM      5  C   UNL     1       2.394   5.970   2.909  0.00  0.00    +0.030 C 
ATOM      6  C   UNL     1       2.422   4.565   2.300  0.00  0.00    +0.110 C 
ENDROOT
BRANCH   4   7
ATOM      7  C   UNL     1       1.136   7.486   4.416  0.00  0.00    +0.216 C 
ATOM      8  O   UNL     1       2.033   8.268   4.184  0.00  0.00    -0.276 OA
ATOM      9  N   UNL     1       0.128   7.841   5.236  0.00  0.00    -0.315 N 
ATOM     10  H   UNL     1      -0.590   7.216   5.422  0.00  0.00    +0.149 HD
BRANCH   9  11
ATOM     11  C   UNL     1       0.115   9.173   5.847  0.00  0.00    +0.111 C 
BRANCH  11  12
ATOM     12  C   UNL     1      -1.129   9.319   6.726  0.00  0.00    -0.013 C 
ATOM     13  C   UNL     1      -1.105   8.255   7.824  0.00  0.00    +0.012 C 
ATOM     14  C   UNL     1      -2.349   8.401   8.703  0.00  0.00    -0.010 C 
ATOM     15  C   UNL     1      -2.362   9.792   9.341  0.00  0.00    +0.007 C 
ATOM     16  C   UNL     1      -2.386  10.856   8.242  0.00  0.00    -0.010 C 
ATOM     17  C   UNL     1      -1.143  10.710   7.363  0.00  0.00    +0.012 C 
ATOM     18  C   UNL     1      -3.641  10.676   7.385  0.00  0.00    +0.007 C 
ATOM     19  C   UNL     1      -3.627   9.285   6.747  0.00  0.00    -0.010 C 
ATOM     20  C   UNL     1      -3.603   8.221   7.846  0.00  0.00    +0.007 C 
ATOM     21  C   UNL     1      -2.384   9.139   5.868  0.00  0.00    +0.012 C 
ENDBRANCH  11  12
ENDBRANCH   9  11
ENDBRANCH   4   7
BRANCH   1  22
ATOM     22  S   UNL     1       1.146   3.847   0.011  0.00  0.00    +0.061 S 
ATOM     23  O   UNL     1       2.380   4.274  -0.549  0.00  0.00    -0.153 OA
ATOM     24  O   UNL     1      -0.110   4.239  -0.526  0.00  0.00    -0.153 OA
BRANCH  22  30
ATOM     25  C   UNL     1      -0.017   1.378   0.010  0.00  0.00    +0.030 A 
ATOM     26  C   UNL     1       0.002  -0.004   0.002  0.00  0.00    +0.022 A 
ATOM     27  C   UNL     1       1.210  -0.679  -0.013  0.00  0.00    +0.041 A 
ATOM     28  C   UNL     1       2.398   0.030  -0.021  0.00  0.00    +0.022 A 
ATOM     29  C   UNL     1       2.378   1.412  -0.013  0.00  0.00    +0.030 A 
ATOM     30  C   UNL     1       1.171   2.086   0.002  0.00  0.00    +0.106 A 
ATOM     31 CL   UNL     1       1.234  -2.415  -0.022  0.00  0.00    -0.084 Cl
ENDBRANCH  22  30
ENDBRANCH   1  22
TORSDOF 5
