REMARK  Name = ZINC21353590
REMARK  6 active torsions:
REMARK  status: ('A' for Active; 'I' for Inactive)
REMARK    1  A    between atoms: C_1  and  C_2
REMARK    2  A    between atoms: C_2  and  C_3
REMARK    3  A    between atoms: C_3  and  N_4
REMARK    4  A    between atoms: C_5  and  C_7
REMARK    5  A    between atoms: C_7  and  N_8
REMARK    6  A    between atoms: C_10  and  C_23
REMARK                            x       y       z     vdW  Elec       q    Type
REMARK                         _______ _______ _______ _____ _____    ______ ____
ROOT
ATOM      1  N   UNL     1       0.426  -0.971  -2.597  0.00  0.00    -0.284 N 
ATOM      2  C   UNL     1       1.350   0.041  -2.281  0.00  0.00    +0.137 A 
ATOM      3  C   UNL     1       2.657  -0.237  -1.946  0.00  0.00    +0.063 A 
ATOM      4  S   UNL     1       3.333   1.382  -1.656  0.00  0.00    -0.059 S 
ATOM      5  C   UNL     1       1.910   2.307  -1.979  0.00  0.00    +0.132 A 
ATOM      6  S   UNL     1       1.717   4.007  -1.919  0.00  0.00    -0.024 S 
ATOM      7  N   UNL     1       0.975   1.359  -2.295  0.00  0.00    -0.282 N 
ATOM      8  C   UNL     1      -0.353   1.699  -2.630  0.00  0.00    +0.062 A 
ATOM      9  C   UNL     1      -0.736   3.033  -2.645  0.00  0.00    +0.027 A 
ATOM     10  C   UNL     1      -2.035   3.368  -2.973  0.00  0.00    +0.002 A 
ATOM     11  C   UNL     1      -2.959   2.384  -3.288  0.00  0.00    +0.001 A 
ATOM     12  C   UNL     1      -2.594   1.053  -3.271  0.00  0.00    +0.015 A 
ATOM     13  C   UNL     1      -1.283   0.707  -2.947  0.00  0.00    +0.063 A 
ATOM     14  C   UNL     1      -0.847  -0.702  -2.922  0.00  0.00    +0.262 A 
ATOM     15  O   UNL     1      -1.624  -1.598  -3.191  0.00  0.00    -0.267 OA
ENDROOT
BRANCH   3  16
ATOM     16  C   UNL     1       3.327  -1.548  -1.853  0.00  0.00    -0.006 A 
ATOM     17  C   UNL     1       3.407  -2.210  -0.624  0.00  0.00    +0.009 A 
ATOM     18  C   UNL     1       4.031  -3.437  -0.544  0.00  0.00    +0.002 A 
ATOM     19  C   UNL     1       4.586  -4.010  -1.674  0.00  0.00    +0.020 A 
ATOM     20  C   UNL     1       4.516  -3.358  -2.894  0.00  0.00    +0.042 A 
ATOM     21  C   UNL     1       3.890  -2.132  -2.990  0.00  0.00    +0.029 A 
ATOM     22 CL   UNL     1       5.217  -4.086  -4.306  0.00  0.00    -0.084 Cl
ENDBRANCH   3  16
BRANCH   1  23
ATOM     23  C   UNL     1       0.869  -2.367  -2.569  0.00  0.00    +0.222 C 
BRANCH  23  25
ATOM     24  N   UNL     1       1.416  -4.028  -4.319  0.00  0.00    -0.314 N 
ATOM     25  C   UNL     1       1.432  -2.742  -3.916  0.00  0.00    +0.233 C 
ATOM     26  O   UNL     1       1.899  -1.886  -4.638  0.00  0.00    -0.274 OA
ATOM     27  H   UNL     1       1.075  -4.816  -3.631  0.00  0.00    +0.149 HD
BRANCH  24  28
ATOM     28  C   UNL     1       1.853  -4.377  -5.673  0.00  0.00    +0.104 C 
BRANCH  28  30
ATOM     29  C   UNL     1       2.194  -6.254  -7.286  0.00  0.00    +0.005 C 
ATOM     30  C   UNL     1       1.737  -5.890  -5.872  0.00  0.00    +0.015 C 
ENDBRANCH  28  30
ENDBRANCH  24  28
ENDBRANCH  23  25
ENDBRANCH   1  23
TORSDOF 5
