REMARK  Name = ZINC60275500
REMARK  9 active torsions:
REMARK  status: ('A' for Active; 'I' for Inactive)
REMARK    1  A    between atoms: C_1  and  C_2
REMARK    2  A    between atoms: N_5  and  C_8
REMARK    3  A    between atoms: C_8  and  C_9
REMARK    4  A    between atoms: C_16  and  C_18
REMARK    5  A    between atoms: C_18  and  C_19
REMARK    6  A    between atoms: C_19  and  C_20
REMARK    7  A    between atoms: C_22  and  C_25
REMARK    8  A    between atoms: C_25  and  N_32
REMARK    9  A    between atoms: C_33  and  C_35
REMARK                            x       y       z     vdW  Elec       q    Type
REMARK                         _______ _______ _______ _____ _____    ______ ____
ROOT
ATOM      1  C   UNL     1       3.569  -4.233   5.807  0.00  0.00    +0.105 C 
ENDROOT
BRANCH   1   8
ATOM      2  C   UNL     1      -0.023  -4.394   2.690  0.00  0.00    -0.010 C 
ATOM      3  C   UNL     1      -0.066  -5.920   2.798  0.00  0.00    +0.005 C 
ATOM      4  C   UNL     1       0.632  -6.362   4.086  0.00  0.00    +0.019 C 
ATOM      5  C   UNL     1       2.099  -5.922   4.044  0.00  0.00    +0.108 C 
ATOM      6  N   UNL     1       2.151  -4.475   3.795  0.00  0.00    -0.301 N 
ATOM      7  C   UNL     1       1.436  -3.931   2.633  0.00  0.00    +0.109 C 
ATOM      8  C   UNL     1       2.841  -3.661   4.618  0.00  0.00    +0.216 C 
ATOM      9  O   UNL     1       2.877  -2.468   4.402  0.00  0.00    -0.276 OA
BRANCH   2  10
ATOM     10  C   UNL     1      -0.750  -3.952   1.419  0.00  0.00    -0.074 C 
BRANCH  10  15
ATOM     11  C   UNL     1      -2.155   1.567   1.121  0.00  0.00    +0.007 C 
ATOM     12  C   UNL     1      -2.220   0.039   1.147  0.00  0.00    -0.018 C 
ATOM     13  C   UNL     1      -1.675  -0.474   2.484  0.00  0.00    -0.016 C 
ATOM     14  C   UNL     1      -1.668  -2.004   2.472  0.00  0.00    -0.079 C 
ATOM     15  N   UNL     1      -0.816  -2.485   1.378  0.00  0.00    +0.380 N 
ATOM     16  C   UNL     1      -1.372  -2.057   0.089  0.00  0.00    -0.079 C 
ATOM     17  C   UNL     1      -1.368  -0.529   0.009  0.00  0.00    -0.016 C 
ATOM     18  H   UNL     1       0.113  -2.106   1.484  0.00  0.00    -0.082 HD
ENDBRANCH  10  15
ENDBRANCH   2  10
ENDBRANCH   1   8
BRANCH   1  19
ATOM     19  C   UNL     1       4.266  -3.105   6.570  0.00  0.00    +0.108 C 
BRANCH  19  20
ATOM     20  C   UNL     1       4.995  -3.677   7.759  0.00  0.00    +0.228 A 
ATOM     21  N   UNL     1       6.230  -4.095   7.770  0.00  0.00    -0.194 NA
ATOM     22  C   UNL     1       6.553  -4.540   8.989  0.00  0.00    +0.195 A 
ATOM     23  N   UNL     1       5.522  -4.409   9.773  0.00  0.00    -0.059 NA
ATOM     24  O   UNL     1       4.486  -3.838   8.987  0.00  0.00    -0.338 OA
BRANCH  22  25
ATOM     25  C   UNL     1       7.893  -5.101   9.390  0.00  0.00    +0.097 C 
ATOM     26  C   UNL     1       8.226  -6.299   8.477  0.00  0.00    +0.034 C 
ATOM     27  C   UNL     1       9.713  -6.528   8.514  0.00  0.00    +0.003 C 
ATOM     28  C   UNL     1      10.121  -7.582   9.562  0.00  0.00    +0.000 C 
ATOM     29  C   UNL     1       9.350  -7.434  10.888  0.00  0.00    +0.000 C 
ATOM     30  C   UNL     1       9.202  -5.998  11.311  0.00  0.00    +0.003 C 
ATOM     31  C   UNL     1       7.846  -5.473  10.797  0.00  0.00    +0.034 C 
BRANCH  25  32
ATOM     32  N   UNL     1       8.914  -4.068   9.206  0.00  0.00    -0.303 N 
ATOM     33  C   UNL     1       9.126  -3.539   7.985  0.00  0.00    +0.211 C 
ATOM     34  O   UNL     1       8.470  -3.919   7.038  0.00  0.00    -0.276 OA
ATOM     35  C   UNL     1      10.177  -2.476   7.795  0.00  0.00    +0.109 C 
ATOM     36  H   UNL     1       9.439  -3.764   9.964  0.00  0.00    +0.150 HD
ENDBRANCH  25  32
ENDBRANCH  22  25
ENDBRANCH  19  20
ENDBRANCH   1  19
TORSDOF 7
