REMARK  Name = ZINC63372275
REMARK  9 active torsions:
REMARK  status: ('A' for Active; 'I' for Inactive)
REMARK    1  A    between atoms: C_1  and  C_2
REMARK    2  A    between atoms: C_2  and  O_3
REMARK    3  A    between atoms: O_3  and  C_4
REMARK    4  A    between atoms: C_5  and  C_12
REMARK    5  A    between atoms: C_9  and  O_10
REMARK    6  A    between atoms: O_10  and  C_11
REMARK    7  A    between atoms: N_19  and  C_34
REMARK    8  A    between atoms: C_22  and  C_33
REMARK    9  A    between atoms: C_34  and  C_35
REMARK                            x       y       z     vdW  Elec       q    Type
REMARK                         _______ _______ _______ _____ _____    ______ ____
ROOT
ATOM      1  C   UNL     1      -1.561  -1.782  -2.502  0.00  0.00    +0.069 C 
ATOM      2  C   UNL     1      -2.808  -2.033  -3.354  0.00  0.00    +0.121 C 
ATOM      3  N   UNL     1      -2.606  -1.776  -4.769  0.00  0.00    -0.283 N 
ATOM      4  C   UNL     1      -3.731  -1.675  -5.552  0.00  0.00    +0.234 C 
ATOM      5  O   UNL     1      -4.843  -1.657  -5.067  0.00  0.00    -0.274 OA
ATOM      6  C   UNL     1      -3.517  -1.586  -7.048  0.00  0.00    +0.204 C 
ATOM      7  N   UNL     1      -2.491  -2.572  -7.434  0.00  0.00    -0.287 N 
ATOM      8  C   UNL     1      -1.362  -2.613  -6.664  0.00  0.00    +0.242 C 
ATOM      9  O   UNL     1      -0.436  -3.356  -6.908  0.00  0.00    -0.273 OA
ATOM     10  C   UNL     1      -1.350  -1.668  -5.490  0.00  0.00    +0.135 C 
ATOM     11  C   UNL     1      -0.090  -1.715  -4.683  0.00  0.00    +0.139 C 
ATOM     12  C   UNL     1      -0.393  -2.291  -3.308  0.00  0.00    -0.027 C 
ATOM     13  C   UNL     1       0.512  -3.231  -3.086  0.00  0.00    -0.000 A 
ATOM     14  C   UNL     1       0.797  -4.065  -1.907  0.00  0.00    +0.010 A 
ATOM     15  C   UNL     1       1.808  -4.964  -2.038  0.00  0.00    +0.001 A 
ATOM     16  C   UNL     1       2.556  -5.117  -3.210  0.00  0.00    +0.002 A 
ATOM     17  C   UNL     1       2.369  -4.387  -4.338  0.00  0.00    +0.026 A 
ATOM     18  C   UNL     1       1.340  -3.402  -4.321  0.00  0.00    +0.043 A 
ATOM     19  N   UNL     1       0.957  -2.575  -5.233  0.00  0.00    -0.375 N 
ATOM     20  C   UNL     1      -1.361  -0.268  -6.107  0.00  0.00    +0.044 C 
ATOM     21  H   UNL     1       1.315  -2.530  -6.133  0.00  0.00    +0.160 HD
ENDROOT
BRANCH   1  23
ATOM     22  C   UNL     1      -1.603  -1.852   0.003  0.00  0.00    +0.166 A 
ATOM     23  C   UNL     1      -1.661  -2.536  -1.201  0.00  0.00    +0.007 A 
ATOM     24  C   UNL     1      -1.812  -3.910  -1.208  0.00  0.00    +0.008 A 
ATOM     25  C   UNL     1      -1.904  -4.605  -0.017  0.00  0.00    +0.004 A 
ATOM     26  C   UNL     1      -1.847  -3.928   1.188  0.00  0.00    +0.049 A 
ATOM     27  C   UNL     1      -1.691  -2.552   1.202  0.00  0.00    +0.162 A 
BRANCH  27  28
ATOM     28  O   UNL     1      -1.629  -1.885   2.386  0.00  0.00    -0.491 OA
ATOM     29  C   UNL     1      -1.726  -2.668   3.577  0.00  0.00    +0.277 C 
ENDBRANCH  27  28
BRANCH  22  30
ATOM     30  O   UNL     1      -1.455  -0.500   0.011  0.00  0.00    -0.488 OA
BRANCH  30  32
ATOM     31  C   UNL     1      -0.153   1.536   0.035  0.00  0.00    +0.048 C 
ATOM     32  C   UNL     1      -0.119   0.006   0.027  0.00  0.00    +0.226 C 
ENDBRANCH  30  32
ENDBRANCH  22  30
ENDBRANCH   1  23
BRANCH   7  33
ATOM     33  C   UNL     1      -2.672  -3.463  -8.584  0.00  0.00    +0.143 C 
BRANCH  33  34
ATOM     34  C   UNL     1      -2.123  -2.802  -9.822  0.00  0.00    -0.030 A 
ATOM     35  C   UNL     1      -2.941  -2.003 -10.599  0.00  0.00    +0.008 A 
ATOM     36  C   UNL     1      -2.439  -1.397 -11.735  0.00  0.00    +0.038 A 
ATOM     37  C   UNL     1      -1.116  -1.589 -12.094  0.00  0.00    +0.123 A 
ATOM     38  C   UNL     1      -0.297  -2.390 -11.316  0.00  0.00    +0.038 A 
ATOM     39  C   UNL     1      -0.800  -2.991 -10.178  0.00  0.00    +0.008 A 
ATOM     40  F   UNL     1      -0.624  -0.997 -13.204  0.00  0.00    -0.205 F 
ENDBRANCH  33  34
ENDBRANCH   7  33
TORSDOF 6
