REMARK  Name = ZINC02111757
REMARK  11 active torsions:
REMARK  status: ('A' for Active; 'I' for Inactive)
REMARK    1  A    between atoms: C_1  and  C_2
REMARK    2  A    between atoms: C_2  and  C_3
REMARK    3  A    between atoms: C_3  and  C_4
REMARK    4  A    between atoms: C_4  and  C_5
REMARK    5  A    between atoms: C_5  and  C_7
REMARK    6  A    between atoms: C_5  and  C_9
REMARK    7  A    between atoms: C_7  and  C_8
REMARK    8  A    between atoms: C_9  and  N_10
REMARK    9  A    between atoms: C_11  and  C_13
REMARK   10  A    between atoms: C_18  and  N_19
REMARK   11  A    between atoms: C_22  and  C_38
REMARK                            x       y       z     vdW  Elec       q    Type
REMARK                         _______ _______ _______ _____ _____    ______ ____
ROOT
ATOM      1  N   UNL     1       7.220   3.269   2.408  0.00  0.00    -0.191 N 
ATOM      2  C   UNL     1       6.684   2.317   1.612  0.00  0.00    +0.257 C 
ATOM      3  O   UNL     1       6.612   1.128   1.836  0.00  0.00    -0.272 OA
ATOM      4  C   UNL     1       6.194   3.047   0.385  0.00  0.00    +0.153 C 
ATOM      5  C   UNL     1       4.721   2.814   0.151  0.00  0.00    +0.053 A 
ATOM      6  C   UNL     1       3.825   3.822   0.041  0.00  0.00    -0.015 A 
ATOM      7  C   UNL     1       2.537   3.203  -0.215  0.00  0.00    +0.003 A 
ATOM      8  C   UNL     1       1.260   3.735  -0.424  0.00  0.00    +0.010 A 
ATOM      9  C   UNL     1       0.243   2.838  -0.639  0.00  0.00    +0.001 A 
ATOM     10  C   UNL     1       0.460   1.470  -0.656  0.00  0.00    +0.002 A 
ATOM     11  C   UNL     1       1.712   0.917  -0.448  0.00  0.00    +0.026 A 
ATOM     12  C   UNL     1       2.764   1.804  -0.228  0.00  0.00    +0.047 A 
ATOM     13  N   UNL     1       4.095   1.607   0.000  0.00  0.00    -0.356 N 
ATOM     14  H   UNL     1       4.531   0.742   0.048  0.00  0.00    +0.166 HD
ATOM     15  C   UNL     1       4.118   5.295   0.167  0.00  0.00    +0.056 C 
ATOM     16  C   UNL     1       5.630   5.548   0.067  0.00  0.00    +0.115 C 
ATOM     17  N   UNL     1       6.311   4.471   0.785  0.00  0.00    -0.265 N 
ATOM     18  C   UNL     1       7.068   4.495   1.882  0.00  0.00    +0.317 C 
ATOM     19  O   UNL     1       7.561   5.503   2.348  0.00  0.00    -0.252 OA
ATOM     20  C   UNL     1       7.027   2.727  -0.858  0.00  0.00    +0.048 C 
ENDROOT
BRANCH   1  26
ATOM     21  C   UNL     1       7.113   3.000   4.816  0.00  0.00    +0.059 A 
ATOM     22  C   UNL     1       7.757   2.734   6.027  0.00  0.00    +0.015 A 
ATOM     23  C   UNL     1       9.114   2.494   6.045  0.00  0.00    +0.001 A 
ATOM     24  C   UNL     1       9.843   2.510   4.868  0.00  0.00    +0.002 A 
ATOM     25  C   UNL     1       9.219   2.766   3.663  0.00  0.00    +0.025 A 
ATOM     26  C   UNL     1       7.853   3.010   3.626  0.00  0.00    +0.058 A 
BRANCH  21  28
ATOM     27  N   UNL     1       4.953   3.253   5.937  0.00  0.00    -0.311 N 
ATOM     28  C   UNL     1       5.661   3.263   4.790  0.00  0.00    +0.246 C 
ATOM     29  O   UNL     1       5.104   3.490   3.733  0.00  0.00    -0.270 OA
ATOM     30  H   UNL     1       5.398   3.072   6.779  0.00  0.00    +0.149 HD
BRANCH  27  31
ATOM     31  C   UNL     1       3.512   3.514   5.910  0.00  0.00    +0.108 C 
BRANCH  31  32
ATOM     32  C   UNL     1       2.941   3.367   7.322  0.00  0.00    +0.006 C 
BRANCH  32  33
ATOM     33  C   UNL     1       3.084   1.915   7.781  0.00  0.00    +0.002 C 
ATOM     34  C   UNL     1       2.213   1.014   6.903  0.00  0.00    +0.004 C 
ENDBRANCH  32  33
BRANCH  32  35
ATOM     35  C   UNL     1       1.462   3.757   7.318  0.00  0.00    +0.005 C 
BRANCH  35  36
ATOM     36  C   UNL     1       0.923   3.731   8.749  0.00  0.00    +0.000 C 
BRANCH  36  38
ATOM     37  C   UNL     1      -1.096   4.094  10.176  0.00  0.00    +0.004 C 
ATOM     38  C   UNL     1      -0.556   4.121   8.744  0.00  0.00    -0.003 C 
ENDBRANCH  36  38
ENDBRANCH  35  36
ENDBRANCH  32  35
ENDBRANCH  31  32
ENDBRANCH  27  31
ENDBRANCH  21  28
ENDBRANCH   1  26
TORSDOF 8
