REMARK  Name = ZINC39884894
REMARK  8 active torsions:
REMARK  status: ('A' for Active; 'I' for Inactive)
REMARK    1  A    between atoms: C_3  and  N_33
REMARK    2  A    between atoms: C_6  and  C_7
REMARK    3  A    between atoms: C_10  and  C_12
REMARK    4  A    between atoms: C_13  and  C_14
REMARK    5  A    between atoms: C_13  and  C_16
REMARK    6  A    between atoms: N_18  and  C_19
REMARK    7  A    between atoms: C_21  and  C_29
REMARK    8  A    between atoms: C_23  and  C_25
REMARK                            x       y       z     vdW  Elec       q    Type
REMARK                         _______ _______ _______ _____ _____    ______ ____
ROOT
ATOM      1  C   UNL     1      -4.808  -1.053   0.039  0.00  0.00    +0.070 C 
ATOM      2  C   UNL     1      -5.354   0.223   0.046  0.00  0.00    +0.117 C 
ENDROOT
BRANCH   1   6
ATOM      3  C   UNL     1      -1.263  -0.762   0.038  0.00  0.00    +0.136 A 
ATOM      4  C   UNL     1      -1.377  -2.136   0.030  0.00  0.00    +0.050 A 
ATOM      5  C   UNL     1      -2.739  -2.433   0.030  0.00  0.00    +0.050 A 
ATOM      6  C   UNL     1      -3.414  -1.220   0.037  0.00  0.00    +0.130 A 
ATOM      7  O   UNL     1      -2.497  -0.229   0.048  0.00  0.00    -0.455 OA
BRANCH   3  13
ATOM      8  C   UNL     1      -0.017   1.394   0.055  0.00  0.00    +0.014 A 
ATOM      9  C   UNL     1       1.170   2.096   0.057  0.00  0.00    +0.033 A 
ATOM     10  C   UNL     1       2.378   1.421   0.047  0.00  0.00    +0.126 A 
ATOM     11  C   UNL     1       2.405   0.037   0.033  0.00  0.00    +0.033 A 
ATOM     12  C   UNL     1       1.226  -0.678   0.030  0.00  0.00    +0.014 A 
ATOM     13  C   UNL     1       0.002  -0.003   0.041  0.00  0.00    +0.017 A 
BRANCH  10  14
ATOM     14  N   UNL     1       3.648   2.182   0.050  0.00  0.00    +0.056 N 
ATOM     15  O   UNL     1       3.628   3.391   0.062  0.00  0.00    -0.126 OA
ATOM     16  O   UNL     1       4.704   1.595   0.041  0.00  0.00    -0.126 OA
ENDBRANCH  10  14
ENDBRANCH   3  13
ENDBRANCH   1   6
BRANCH   2  17
ATOM     17  C   UNL     1      -6.811   0.398   0.048  0.00  0.00    +0.259 C 
ATOM     18  O   UNL     1      -7.541  -0.576   0.044  0.00  0.00    -0.269 OA
ATOM     19  N   UNL     1      -7.341   1.637   0.055  0.00  0.00    -0.281 N 
ATOM     20  H   UNL     1      -6.762   2.412   0.127  0.00  0.00    +0.155 HD
BRANCH  19  21
ATOM     21  C   UNL     1      -8.726   1.806  -0.040  0.00  0.00    +0.035 A 
ATOM     22  C   UNL     1      -9.249   2.888  -0.737  0.00  0.00    +0.035 A 
ATOM     23  C   UNL     1     -10.617   3.051  -0.829  0.00  0.00    +0.057 A 
ATOM     24  C   UNL     1     -11.466   2.139  -0.229  0.00  0.00    +0.024 A 
ATOM     25  C   UNL     1     -10.949   1.061   0.466  0.00  0.00    +0.057 A 
ATOM     26  C   UNL     1      -9.582   0.888   0.556  0.00  0.00    +0.035 A 
BRANCH  25  27
ATOM     27  C   UNL     1     -11.878   0.070   1.118  0.00  0.00    +0.417 C 
ATOM     28  F   UNL     1     -12.177  -0.954   0.214  0.00  0.00    -0.166 F 
ATOM     29  F   UNL     1     -11.260  -0.472   2.250  0.00  0.00    -0.166 F 
ATOM     30  F   UNL     1     -13.059   0.718   1.497  0.00  0.00    -0.166 F 
ENDBRANCH  25  27
BRANCH  23  31
ATOM     31  C   UNL     1     -11.185   4.225  -1.584  0.00  0.00    +0.417 C 
ATOM     32  F   UNL     1     -10.140   5.000  -2.097  0.00  0.00    -0.166 F 
ATOM     33  F   UNL     1     -11.982   3.761  -2.637  0.00  0.00    -0.166 F 
ATOM     34  F   UNL     1     -11.963   5.003  -0.720  0.00  0.00    -0.166 F 
ENDBRANCH  23  31
ENDBRANCH  19  21
ENDBRANCH   2  17
BRANCH   2  35
ATOM     35  C   UNL     1      -4.495   1.369   0.052  0.00  0.00    +0.104 C 
ATOM     36  N   UNL     1      -3.814   2.278   0.056  0.00  0.00    -0.191 NA
ENDBRANCH   2  35
TORSDOF 8
