REMARK  Name = ZINC09765332
REMARK  8 active torsions:
REMARK  status: ('A' for Active; 'I' for Inactive)
REMARK    1  A    between atoms: C_1  and  C_2
REMARK    2  A    between atoms: C_3  and  C_30
REMARK    3  A    between atoms: C_7  and  S_11
REMARK    4  A    between atoms: S_11  and  C_12
REMARK    5  A    between atoms: C_12  and  C_13
REMARK    6  A    between atoms: N_15  and  C_16
REMARK    7  A    between atoms: C_20  and  S_22
REMARK    8  A    between atoms: S_22  and  N_25
REMARK                            x       y       z     vdW  Elec       q    Type
REMARK                         _______ _______ _______ _____ _____    ______ ____
ROOT
ATOM      1  C   UNL     1      -0.965   1.300   0.633  0.00  0.00    +0.227 C 
ATOM      2  O   UNL     1      -0.920   2.431   1.069  0.00  0.00    -0.275 OA
ATOM      3  N   UNL     1       0.127   0.754   0.062  0.00  0.00    -0.285 N 
ATOM      4  H   UNL     1       0.072  -0.124  -0.346  0.00  0.00    +0.155 HD
ENDROOT
BRANCH   3   5
ATOM      5  C   UNL     1       1.337   1.456   0.052  0.00  0.00    +0.035 A 
ATOM      6  C   UNL     1       1.338   2.838  -0.086  0.00  0.00    +0.023 A 
ATOM      7  C   UNL     1       2.534   3.529  -0.089  0.00  0.00    +0.004 A 
ATOM      8  C   UNL     1       3.730   2.845   0.033  0.00  0.00    +0.029 A 
ATOM      9  C   UNL     1       3.732   1.469   0.165  0.00  0.00    +0.110 A 
ATOM     10  C   UNL     1       2.539   0.773   0.175  0.00  0.00    +0.052 A 
BRANCH   9  11
ATOM     11  S   UNL     1       5.258   0.602   0.321  0.00  0.00    +0.073 S 
ATOM     12  O   UNL     1       6.203   1.532   0.831  0.00  0.00    -0.150 OA
ATOM     13  O   UNL     1       4.964  -0.623   0.978  0.00  0.00    -0.150 OA
BRANCH  11  14
ATOM     14  N   UNL     1       5.757   0.211  -1.209  0.00  0.00    -0.205 N 
ATOM     15  C   UNL     1       6.091   1.201  -2.095  0.00  0.00    +0.088 C 
ATOM     16  C   UNL     1       6.464   3.283  -2.972  0.00  0.00    +0.114 C 
ATOM     17  C   UNL     1       6.399   2.340  -4.196  0.00  0.00    +0.028 C 
ATOM     18  C   UNL     1       6.564   0.960  -3.511  0.00  0.00    +0.072 C 
ATOM     19  H   UNL     1       5.813  -0.720  -1.477  0.00  0.00    +0.175 HD
ATOM     20  N   UNL     1       6.043   2.466  -1.814  0.00  0.00    -0.375 N 
ATOM     21  H   UNL     1       5.752   2.850  -0.907  0.00  0.00    +0.161 HD
ENDBRANCH  11  14
ENDBRANCH   9  11
ENDBRANCH   3   5
BRANCH   1  22
ATOM     22  C   UNL     1      -2.242   0.506   0.729  0.00  0.00    +0.171 C 
BRANCH  22  23
ATOM     23  S   UNL     1      -3.515   1.506   1.540  0.00  0.00    -0.096 S 
BRANCH  23  30
ATOM     24  C   UNL     1      -5.566   3.115   2.844  0.00  0.00    +0.045 C 
ATOM     25  C   UNL     1      -6.535   1.970   2.700  0.00  0.00    -0.029 A 
ATOM     26  C   UNL     1      -7.793   2.085   3.152  0.00  0.00    -0.008 A 
ATOM     27  S   UNL     1      -8.523   0.507   2.759  0.00  0.00    -0.074 S 
ATOM     28  C   UNL     1      -7.119  -0.265   1.998  0.00  0.00    +0.113 A 
ATOM     29  C   UNL     1      -6.117   0.727   2.077  0.00  0.00    +0.043 A 
ATOM     30  C   UNL     1      -4.859   0.366   1.520  0.00  0.00    +0.109 A 
ATOM     31  N   UNL     1      -4.708  -0.838   0.991  0.00  0.00    -0.229 NA
ATOM     32  C   UNL     1      -5.691  -1.719   0.957  0.00  0.00    +0.223 A 
ATOM     33  N   UNL     1      -6.882  -1.441   1.452  0.00  0.00    -0.228 NA
ATOM     34  C   UNL     1      -8.436   3.268   3.830  0.00  0.00    +0.052 C 
ENDBRANCH  23  30
ENDBRANCH  22  23
ENDBRANCH   1  22
TORSDOF 6
