REMARK  Name = ZINC54105728
REMARK  9 active torsions:
REMARK  status: ('A' for Active; 'I' for Inactive)
REMARK    1  A    between atoms: C_1  and  C_2
REMARK    2  A    between atoms: C_2  and  C_3
REMARK    3  A    between atoms: C_3  and  C_4
REMARK    4  A    between atoms: C_4  and  N_5
REMARK    5  A    between atoms: C_9  and  C_23
REMARK    6  A    between atoms: C_10  and  C_22
REMARK    7  A    between atoms: C_23  and  O_25
REMARK    8  A    between atoms: O_25  and  C_26
REMARK    9  A    between atoms: C_26  and  C_27
REMARK                            x       y       z     vdW  Elec       q    Type
REMARK                         _______ _______ _______ _____ _____    ______ ____
ROOT
ATOM      1  N   UNL     1       1.427  -2.501  -2.474  0.00  0.00    -0.266 NA
ATOM      2  C   UNL     1       1.649  -3.952  -2.418  0.00  0.00    +0.127 C 
ATOM      3  C   UNL     1       2.187  -4.438  -3.742  0.00  0.00    +0.021 A 
ATOM      4  C   UNL     1       2.817  -5.695  -3.800  0.00  0.00    +0.043 A 
ATOM      5  C   UNL     1       3.100  -6.732  -2.788  0.00  0.00    +0.108 A 
ATOM      6  C   UNL     1       3.740  -7.733  -3.455  0.00  0.00    +0.117 A 
ATOM      7  O   UNL     1       3.866  -7.403  -4.745  0.00  0.00    -0.458 OA
ATOM      8  C   UNL     1       3.328  -6.192  -4.995  0.00  0.00    +0.144 A 
ATOM      9  C   UNL     1       3.208  -5.414  -6.166  0.00  0.00    +0.029 A 
ATOM     10  C   UNL     1       3.707  -5.871  -7.396  0.00  0.00    +0.012 A 
ATOM     11  C   UNL     1       3.575  -5.094  -8.508  0.00  0.00    +0.001 A 
ATOM     12  C   UNL     1       2.950  -3.852  -8.441  0.00  0.00    +0.001 A 
ATOM     13  C   UNL     1       2.455  -3.379  -7.263  0.00  0.00    +0.012 A 
ATOM     14  C   UNL     1       2.574  -4.152  -6.098  0.00  0.00    +0.028 A 
ATOM     15  C   UNL     1       2.067  -3.678  -4.863  0.00  0.00    +0.135 A 
ATOM     16  O   UNL     1       1.470  -2.457  -4.825  0.00  0.00    -0.476 OA
ATOM     17  C   UNL     1       0.664  -2.154  -3.685  0.00  0.00    +0.318 C 
ATOM     18  C   UNL     1       4.231  -9.016  -2.836  0.00  0.00    +0.087 C 
ENDROOT
BRANCH   5  19
ATOM     19  C   UNL     1       2.763  -6.693  -1.358  0.00  0.00    +0.343 C 
ATOM     20  O   UNL     1       1.696  -7.131  -0.973  0.00  0.00    -0.245 OA
BRANCH  19  21
ATOM     21  O   UNL     1       3.636  -6.171  -0.473  0.00  0.00    -0.461 OA
BRANCH  21  22
ATOM     22  C   UNL     1       3.243  -6.166   0.900  0.00  0.00    +0.229 C 
ATOM     23  C   UNL     1       4.354  -5.540   1.746  0.00  0.00    +0.048 C 
ENDBRANCH  21  22
ENDBRANCH  19  21
ENDBRANCH   5  19
BRANCH   1  24
ATOM     24  C   UNL     1       0.739  -2.027  -1.265  0.00  0.00    +0.088 C 
BRANCH  24  25
ATOM     25  C   UNL     1       0.718  -0.497  -1.257  0.00  0.00    +0.015 C 
BRANCH  25  27
ATOM     26  C   UNL     1      -0.019   1.526   0.010  0.00  0.00    +0.004 C 
ATOM     27  C   UNL     1       0.002  -0.004   0.002  0.00  0.00    -0.002 C 
ENDBRANCH  25  27
ENDBRANCH  24  25
ENDBRANCH   1  24
TORSDOF 6
