REMARK  Name = ZINC09264319
REMARK  5 active torsions:
REMARK  status: ('A' for Active; 'I' for Inactive)
REMARK    1  A    between atoms: C_1  and  O_2
REMARK    2  A    between atoms: O_2  and  C_3
REMARK    3  A    between atoms: C_8  and  C_9
REMARK    4  A    between atoms: C_14  and  C_19
REMARK    5  A    between atoms: C_32  and  C_34
REMARK                            x       y       z     vdW  Elec       q    Type
REMARK                         _______ _______ _______ _____ _____    ______ ____
ROOT
ATOM      1  C   UNL     1      -2.258   5.418  -3.872  0.00  0.00    +0.150 C 
ATOM      2  C   UNL     1      -1.473   6.041  -5.003  0.00  0.00    +0.037 C 
ATOM      3  C   UNL     1      -0.203   6.471  -4.936  0.00  0.00    +0.017 C 
ATOM      4  C   UNL     1       0.469   7.082  -6.156  0.00  0.00    +0.063 C 
ATOM      5  C   UNL     1      -0.566   7.803  -7.017  0.00  0.00    +0.068 C 
ATOM      6  C   UNL     1      -1.618   6.771  -7.444  0.00  0.00    +0.091 C 
ATOM      7  C   UNL     1      -2.203   6.153  -6.209  0.00  0.00    +0.163 C 
ATOM      8  O   UNL     1      -3.344   5.735  -6.247  0.00  0.00    -0.292 OA
ATOM      9  N   UNL     1       0.592   6.394  -3.837  0.00  0.00    -0.316 N 
ATOM     10  C   UNL     1       0.210   6.765  -2.552  0.00  0.00    +0.053 A 
ATOM     11  C   UNL     1       0.819   7.801  -1.867  0.00  0.00    +0.025 A 
ATOM     12  C   UNL     1       0.431   8.074  -0.566  0.00  0.00    +0.002 A 
ATOM     13  C   UNL     1      -0.554   7.315   0.040  0.00  0.00    +0.002 A 
ATOM     14  C   UNL     1      -1.180   6.295  -0.653  0.00  0.00    +0.025 A 
ATOM     15  C   UNL     1      -0.817   6.034  -1.962  0.00  0.00    +0.058 A 
ATOM     16  N   UNL     1      -1.460   5.058  -2.719  0.00  0.00    -0.258 N 
ATOM     17  C   UNL     1      -1.343   3.761  -2.370  0.00  0.00    +0.224 C 
ATOM     18  O   UNL     1      -0.727   3.455  -1.371  0.00  0.00    -0.275 OA
ATOM     19  H   UNL     1       1.492   6.054  -3.957  0.00  0.00    +0.152 HD
ENDROOT
BRANCH   1  25
ATOM     20  C   UNL     1      -4.435   5.945  -2.745  0.00  0.00    +0.125 A 
ATOM     21  C   UNL     1      -5.407   6.848  -2.340  0.00  0.00    +0.046 A 
ATOM     22  C   UNL     1      -5.266   8.191  -2.631  0.00  0.00    +0.004 A 
ATOM     23  C   UNL     1      -4.153   8.636  -3.322  0.00  0.00    +0.001 A 
ATOM     24  C   UNL     1      -3.181   7.739  -3.723  0.00  0.00    +0.009 A 
ATOM     25  C   UNL     1      -3.318   6.395  -3.434  0.00  0.00    +0.020 A 
BRANCH  20  27
ATOM     26  C   UNL     1      -5.751   4.231  -1.753  0.00  0.00    +0.277 C 
ATOM     27  O   UNL     1      -4.575   4.623  -2.465  0.00  0.00    -0.495 OA
ENDBRANCH  20  27
ENDBRANCH   1  25
BRANCH  17  28
ATOM     28  C   UNL     1      -1.978   2.692  -3.222  0.00  0.00    +0.076 C 
ATOM     29  C   UNL     1      -1.870   1.342  -2.509  0.00  0.00    +0.013 C 
ATOM     30  C   UNL     1      -2.514   0.256  -3.373  0.00  0.00    +0.001 C 
ATOM     31  C   UNL     1      -1.792   0.181  -4.720  0.00  0.00    +0.000 C 
ATOM     32  C   UNL     1      -1.899   1.530  -5.432  0.00  0.00    +0.001 C 
ATOM     33  C   UNL     1      -1.255   2.616  -4.568  0.00  0.00    +0.013 C 
ENDBRANCH  17  28
BRANCH   5  34
ATOM     34  C   UNL     1       0.100   8.388  -8.236  0.00  0.00    +0.109 A 
ATOM     35  C   UNL     1       0.103   9.687  -8.583  0.00  0.00    +0.045 A 
ATOM     36  C   UNL     1       0.839   9.788  -9.786  0.00  0.00    +0.041 A 
ATOM     37  C   UNL     1       1.241   8.544 -10.102  0.00  0.00    +0.195 A 
ATOM     38  O   UNL     1       0.795   7.701  -9.156  0.00  0.00    -0.468 OA
ENDBRANCH   5  34
TORSDOF 4
