REMARK  Name = ZINC14751467
REMARK  7 active torsions:
REMARK  status: ('A' for Active; 'I' for Inactive)
REMARK    1  A    between atoms: C_1  and  C_2
REMARK    2  A    between atoms: C_2  and  N_3
REMARK    3  A    between atoms: C_6  and  C_8
REMARK    4  A    between atoms: C_17  and  N_67
REMARK    5  A    between atoms: C_21  and  C_22
REMARK    6  A    between atoms: C_21  and  N_67
REMARK    7  A    between atoms: C_22  and  C_27
REMARK                            x       y       z     vdW  Elec       q    Type
REMARK                         _______ _______ _______ _____ _____    ______ ____
ROOT
ATOM      1  N   UNL     1      -2.606   1.892  -2.117  0.00  0.00    -0.268 N 
ATOM      2  C   UNL     1      -2.081   1.871  -0.881  0.00  0.00    +0.043 A 
ATOM      3  C   UNL     1      -1.269   0.787  -0.808  0.00  0.00    +0.004 A 
ATOM      4  C   UNL     1      -1.339   0.168  -2.067  0.00  0.00    +0.151 A 
ATOM      5  N   UNL     1      -2.165   0.893  -2.801  0.00  0.00    -0.166 NA
ATOM      6  C   UNL     1      -0.484   0.388   0.411  0.00  0.00    +0.023 C 
ATOM      7  C   UNL     1      -1.058   1.137   1.621  0.00  0.00    -0.067 C 
ATOM      8  C   UNL     1      -1.183   2.627   1.287  0.00  0.00    -0.009 C 
ATOM      9  C   UNL     1      -2.301   2.833   0.258  0.00  0.00    +0.054 C 
ENDROOT
BRANCH   4  10
ATOM     10  C   UNL     1      -0.626  -1.056  -2.489  0.00  0.00    +0.267 C 
ATOM     11  O   UNL     1       0.190  -1.570  -1.749  0.00  0.00    -0.268 OA
ATOM     12  N   UNL     1      -0.881  -1.602  -3.694  0.00  0.00    -0.292 N 
ATOM     13  C   UNL     1      -0.244  -2.864  -4.104  0.00  0.00    +0.136 C 
ATOM     14  C   UNL     1      -1.343  -3.814  -4.606  0.00  0.00    +0.179 C 
ATOM     15  O   UNL     1      -2.124  -3.146  -5.600  0.00  0.00    -0.377 OA
ATOM     16  C   UNL     1      -2.818  -1.992  -5.120  0.00  0.00    +0.179 C 
ATOM     17  C   UNL     1      -1.799  -0.951  -4.642  0.00  0.00    +0.136 C 
ENDBRANCH   4  10
BRANCH   7  18
ATOM     18  N   UNL     1      -0.151   0.965   2.772  0.00  0.00    +0.382 N 
ATOM     19  H   UNL     1       0.594   1.669   2.725  0.00  0.00    -0.085 HD
ATOM     20  H   UNL     1       0.263   0.026   2.738  0.00  0.00    -0.085 HD
BRANCH  18  21
ATOM     21  C   UNL     1      -0.893   1.124   4.037  0.00  0.00    -0.071 C 
BRANCH  21  22
ATOM     22  C   UNL     1       0.071   0.940   5.210  0.00  0.00    -0.019 C 
ATOM     23  C   UNL     1       0.645  -0.488   5.201  0.00  0.00    +0.010 C 
ATOM     24  C   UNL     1       0.218  -1.143   6.531  0.00  0.00    +0.001 C 
ATOM     25  C   UNL     1      -1.039  -0.347   6.960  0.00  0.00    +0.001 C 
ATOM     26  C   UNL     1      -0.685   1.103   6.545  0.00  0.00    +0.010 C 
BRANCH  22  27
ATOM     27  C   UNL     1       1.188   1.947   5.123  0.00  0.00    -0.043 A 
ATOM     28  C   UNL     1       1.155   2.934   4.156  0.00  0.00    +0.004 A 
ATOM     29  C   UNL     1       2.178   3.861   4.078  0.00  0.00    +0.000 A 
ATOM     30  C   UNL     1       3.238   3.795   4.963  0.00  0.00    +0.000 A 
ATOM     31  C   UNL     1       3.274   2.805   5.927  0.00  0.00    +0.000 A 
ATOM     32  C   UNL     1       2.249   1.881   6.007  0.00  0.00    +0.004 A 
ENDBRANCH  22  27
ENDBRANCH  21  22
ENDBRANCH  18  21
ENDBRANCH   7  18
BRANCH   1  34
ATOM     33  C   UNL     1      -2.761   4.057  -3.244  0.00  0.00    +0.029 C 
ATOM     34  C   UNL     1      -3.543   2.902  -2.614  0.00  0.00    +0.140 C 
ENDBRANCH   1  34
TORSDOF 6
