REMARK  Name = ZINC12832874
REMARK  8 active torsions:
REMARK  status: ('A' for Active; 'I' for Inactive)
REMARK    1  A    between atoms: C_1  and  C_2
REMARK    2  A    between atoms: C_12  and  C_14
REMARK    3  A    between atoms: C_14  and  N_63
REMARK    4  A    between atoms: C_15  and  C_16
REMARK    5  A    between atoms: C_15  and  N_63
REMARK    6  A    between atoms: C_22  and  C_23
REMARK    7  A    between atoms: C_22  and  N_63
REMARK    8  A    between atoms: N_27  and  C_28
REMARK                            x       y       z     vdW  Elec       q    Type
REMARK                         _______ _______ _______ _____ _____    ______ ____
ROOT
ATOM      1  N   UNL     1      -2.871   3.826  -1.519  0.00  0.00    +0.390 N 
ATOM      2  H   UNL     1      -2.103   4.043  -2.165  0.00  0.00    -0.080 HD
ENDROOT
BRANCH   1   3
ATOM      3  C   UNL     1      -2.340   3.773  -0.141  0.00  0.00    -0.036 C 
BRANCH   3  15
ATOM      4  C   UNL     1       1.825  -1.302   0.169  0.00  0.00    +0.046 C 
ATOM      5  C   UNL     1       2.067   0.173  -0.019  0.00  0.00    -0.026 A 
ATOM      6  C   UNL     1       3.352   0.651  -0.162  0.00  0.00    +0.005 A 
ATOM      7  C   UNL     1       3.588   2.008  -0.336  0.00  0.00    +0.001 A 
ATOM      8  C   UNL     1       2.549   2.896  -0.370  0.00  0.00    +0.010 A 
ATOM      9  C   UNL     1       1.237   2.433  -0.227  0.00  0.00    -0.001 A 
ATOM     10  C   UNL     1       0.994   1.058  -0.050  0.00  0.00    +0.052 A 
ATOM     11  N   UNL     1      -0.301   0.607   0.090  0.00  0.00    -0.322 N 
ATOM     12  H   UNL     1      -0.467  -0.341   0.212  0.00  0.00    +0.169 HD
ATOM     13  C   UNL     1      -1.339   1.462   0.055  0.00  0.00    +0.251 A 
ATOM     14  O   UNL     1      -2.471   1.028   0.176  0.00  0.00    -0.268 OA
ATOM     15  C   UNL     1      -1.149   2.850  -0.114  0.00  0.00    +0.001 A 
ATOM     16  C   UNL     1       0.101   3.356  -0.258  0.00  0.00    +0.017 A 
ENDBRANCH   3  15
ENDBRANCH   1   3
BRANCH   1  17
ATOM     17  C   UNL     1      -3.451   2.517  -1.887  0.00  0.00    -0.042 C 
BRANCH  17  18
ATOM     18  C   UNL     1      -3.863   2.556  -3.336  0.00  0.00    -0.064 A 
ATOM     19  C   UNL     1      -5.178   2.812  -3.674  0.00  0.00    +0.002 A 
ATOM     20  C   UNL     1      -5.555   2.853  -5.004  0.00  0.00    +0.000 A 
ATOM     21  C   UNL     1      -4.618   2.627  -5.995  0.00  0.00    +0.000 A 
ATOM     22  C   UNL     1      -3.304   2.365  -5.656  0.00  0.00    +0.000 A 
ATOM     23  C   UNL     1      -2.926   2.329  -4.327  0.00  0.00    +0.002 A 
ENDBRANCH  17  18
ENDBRANCH   1  17
BRANCH   1  24
ATOM     24  C   UNL     1      -3.900   4.881  -1.624  0.00  0.00    +0.001 C 
BRANCH  24  25
ATOM     25  C   UNL     1      -3.222   6.226  -1.568  0.00  0.00    +0.135 A 
ATOM     26  N   UNL     1      -3.076   6.986  -0.510  0.00  0.00    -0.115 NA
ATOM     27  N   UNL     1      -2.444   8.050  -0.868  0.00  0.00    -0.023 NA
ATOM     28  N   UNL     1      -2.190   7.992  -2.129  0.00  0.00    -0.044 NA
ATOM     29  N   UNL     1      -2.654   6.883  -2.596  0.00  0.00    -0.228 N 
BRANCH  29  30
ATOM     30  C   UNL     1      -2.578   6.425  -3.986  0.00  0.00    +0.111 C 
ATOM     31  C   UNL     1      -1.114   6.202  -4.370  0.00  0.00    +0.027 C 
ATOM     32  C   UNL     1      -1.034   5.723  -5.821  0.00  0.00    +0.002 C 
ATOM     33  C   UNL     1      -1.647   6.781  -6.741  0.00  0.00    +0.000 C 
ATOM     34  C   UNL     1      -3.111   7.004  -6.357  0.00  0.00    +0.002 C 
ATOM     35  C   UNL     1      -3.191   7.482  -4.906  0.00  0.00    +0.027 C 
ENDBRANCH  29  30
ENDBRANCH  24  25
ENDBRANCH   1  24
TORSDOF 7
