REMARK  Name = ZINC39665894
REMARK  8 active torsions:
REMARK  status: ('A' for Active; 'I' for Inactive)
REMARK    1  A    between atoms: C_1  and  C_2
REMARK    2  A    between atoms: C_5  and  O_8
REMARK    3  A    between atoms: O_8  and  C_9
REMARK    4  A    between atoms: C_9  and  C_11
REMARK    5  A    between atoms: C_9  and  C_12
REMARK    6  A    between atoms: C_12  and  N_13
REMARK    7  A    between atoms: C_14  and  C_16
REMARK    8  A    between atoms: C_27  and  C_29
REMARK                            x       y       z     vdW  Elec       q    Type
REMARK                         _______ _______ _______ _____ _____    ______ ____
ROOT
ATOM      1  C   UNL     1       4.430  -6.843   0.121  0.00  0.00    +0.100 C 
ATOM      2  C   UNL     1       5.419  -6.170   1.099  0.00  0.00    +0.121 C 
ATOM      3  N   UNL     1       6.072  -7.296   1.806  0.00  0.00    -0.296 N 
ATOM      4  C   UNL     1       6.275  -8.323   0.756  0.00  0.00    +0.115 C 
ATOM      5  C   UNL     1       4.998  -8.254  -0.105  0.00  0.00    -0.004 C 
ATOM      6  C   UNL     1       3.995  -9.307   0.357  0.00  0.00    -0.010 C 
ATOM      7  C   UNL     1       4.558 -10.702   0.071  0.00  0.00    -0.082 C 
ATOM      8  N   UNL     1       4.816 -10.841  -1.367  0.00  0.00    +0.379 N 
ATOM      9  C   UNL     1       5.849  -9.887  -1.786  0.00  0.00    -0.082 C 
ATOM     10  C   UNL     1       5.341  -8.457  -1.577  0.00  0.00    -0.010 C 
ATOM     11  C   UNL     1       6.406  -7.371   3.110  0.00  0.00    +0.248 C 
ATOM     12  O   UNL     1       6.254  -6.406   3.833  0.00  0.00    -0.270 OA
ATOM     13  H   UNL     1       5.129 -11.781  -1.562  0.00  0.00    -0.086 HD
ATOM     14  H   UNL     1       3.966 -10.660  -1.879  0.00  0.00    -0.086 HD
ENDROOT
BRANCH  11  15
ATOM     15  C   UNL     1       6.956  -8.627   3.660  0.00  0.00    +0.055 A 
ATOM     16  C   UNL     1       7.913  -9.347   2.942  0.00  0.00    +0.016 A 
ATOM     17  C   UNL     1       8.423 -10.518   3.461  0.00  0.00    +0.021 A 
ATOM     18  C   UNL     1       7.988 -10.982   4.692  0.00  0.00    +0.042 A 
ATOM     19  C   UNL     1       7.040 -10.273   5.410  0.00  0.00    +0.040 A 
ATOM     20  C   UNL     1       6.526  -9.095   4.904  0.00  0.00    +0.054 A 
ATOM     21 CL   UNL     1       5.342  -8.204   5.808  0.00  0.00    -0.083 Cl
ATOM     22 CL   UNL     1       8.636 -12.457   5.338  0.00  0.00    -0.083 Cl
ENDBRANCH  11  15
BRANCH   1  24
ATOM     23  N   UNL     1       1.970  -7.032  -0.056  0.00  0.00    -0.312 N 
ATOM     24  C   UNL     1       3.056  -6.921   0.734  0.00  0.00    +0.218 C 
ATOM     25  O   UNL     1       2.928  -6.885   1.940  0.00  0.00    -0.275 OA
ATOM     26  H   UNL     1       2.073  -7.061  -1.020  0.00  0.00    +0.149 HD
BRANCH  23  27
ATOM     27  C   UNL     1       0.635  -7.109   0.540  0.00  0.00    +0.148 C 
BRANCH  27  28
ATOM     28  C   UNL     1      -0.413  -7.229  -0.568  0.00  0.00    +0.187 C 
ATOM     29  C   UNL     1      -1.813  -7.183   0.046  0.00  0.00    +0.053 C 
BRANCH  28  30
ATOM     30  O   UNL     1      -0.236  -8.467  -1.259  0.00  0.00    -0.488 OA
BRANCH  30  35
ATOM     31  C   UNL     1      -1.874  -8.649  -6.645  0.00  0.00    +0.044 C 
ATOM     32  C   UNL     1      -1.436  -8.601  -5.204  0.00  0.00    -0.050 A 
ATOM     33  C   UNL     1      -1.671  -7.466  -4.449  0.00  0.00    +0.007 A 
ATOM     34  C   UNL     1      -1.270  -7.419  -3.127  0.00  0.00    +0.046 A 
ATOM     35  C   UNL     1      -0.632  -8.511  -2.558  0.00  0.00    +0.121 A 
ATOM     36  C   UNL     1      -0.398  -9.649  -3.318  0.00  0.00    +0.046 A 
ATOM     37  C   UNL     1      -0.805  -9.693  -4.637  0.00  0.00    +0.007 A 
ENDBRANCH  30  35
ENDBRANCH  28  30
ENDBRANCH  27  28
ENDBRANCH  23  27
ENDBRANCH   1  24
TORSDOF 6
