REMARK  Name = ZINC33783889
REMARK  18 active torsions:
REMARK  status: ('A' for Active; 'I' for Inactive)
REMARK    1  A    between atoms: C_1  and  C_2
REMARK    2  A    between atoms: C_2  and  C_3
REMARK    3  A    between atoms: C_3  and  C_4
REMARK    4  A    between atoms: C_4  and  N_5
REMARK    5  A    between atoms: N_5  and  C_6
REMARK    6  A    between atoms: N_5  and  S_10
REMARK    7  A    between atoms: C_6  and  C_7
REMARK    8  A    between atoms: C_7  and  C_8
REMARK    9  A    between atoms: C_8  and  C_9
REMARK   10  A    between atoms: S_10  and  C_13
REMARK   11  A    between atoms: C_16  and  C_19
REMARK   12  A    between atoms: C_19  and  N_21
REMARK   13  A    between atoms: N_23  and  C_32
REMARK   14  A    between atoms: C_27  and  C_31
REMARK   15  A    between atoms: C_32  and  C_33
REMARK   16  A    between atoms: C_33  and  O_34
REMARK   17  A    between atoms: O_34  and  C_35
REMARK   18  A    between atoms: C_35  and  C_36
REMARK                            x       y       z     vdW  Elec       q    Type
REMARK                         _______ _______ _______ _____ _____    ______ ____
ROOT
ATOM      1  C   UNL     1      -5.838  10.521  -0.090  0.00  0.00    +0.106 A 
ATOM      2  C   UNL     1      -4.503  10.886  -0.081  0.00  0.00    +0.029 A 
ATOM      3  C   UNL     1      -3.521   9.917  -0.053  0.00  0.00    +0.015 A 
ATOM      4  C   UNL     1      -3.876   8.568  -0.034  0.00  0.00    +0.039 A 
ATOM      5  C   UNL     1      -5.223   8.207  -0.049  0.00  0.00    +0.015 A 
ATOM      6  C   UNL     1      -6.196   9.185  -0.072  0.00  0.00    +0.029 A 
ENDROOT
BRANCH   1   7
ATOM      7  S   UNL     1      -7.086  11.764  -0.125  0.00  0.00    +0.061 S 
ATOM      8  O   UNL     1      -8.259  11.177   0.422  0.00  0.00    -0.153 OA
ATOM      9  O   UNL     1      -6.502  12.943   0.413  0.00  0.00    -0.153 OA
BRANCH   7  10
ATOM     10  N   UNL     1      -7.415  12.083  -1.716  0.00  0.00    -0.177 NA
BRANCH  10  11
ATOM     11  C   UNL     1      -8.456  11.325  -2.416  0.00  0.00    +0.109 C 
BRANCH  11  12
ATOM     12  C   UNL     1      -9.773  12.102  -2.366  0.00  0.00    +0.017 C 
BRANCH  12  14
ATOM     13  C   UNL     1     -12.177  12.087  -3.047  0.00  0.00    +0.004 C 
ATOM     14  C   UNL     1     -10.860  11.310  -3.096  0.00  0.00    -0.002 C 
ENDBRANCH  12  14
ENDBRANCH  11  12
ENDBRANCH  10  11
BRANCH  10  15
ATOM     15  C   UNL     1      -6.666  13.123  -2.425  0.00  0.00    +0.109 C 
BRANCH  15  16
ATOM     16  C   UNL     1      -5.493  12.486  -3.174  0.00  0.00    +0.017 C 
BRANCH  16  17
ATOM     17  C   UNL     1      -4.710  13.572  -3.914  0.00  0.00    -0.002 C 
ATOM     18  C   UNL     1      -3.537  12.935  -4.662  0.00  0.00    +0.004 C 
ENDBRANCH  16  17
ENDBRANCH  15  16
ENDBRANCH  10  15
ENDBRANCH   7  10
ENDBRANCH   1   7
BRANCH   4  19
ATOM     19  C   UNL     1      -2.826   7.524  -0.005  0.00  0.00    +0.269 C 
ATOM     20  O   UNL     1      -1.650   7.842   0.003  0.00  0.00    -0.268 OA
BRANCH  19  21
ATOM     21  N   UNL     1      -3.169   6.232   0.013  0.00  0.00    -0.152 NA
ATOM     22  C   UNL     1      -2.228   5.295   0.039  0.00  0.00    +0.167 A 
ATOM     23  N   UNL     1      -2.383   3.943   0.060  0.00  0.00    -0.319 N 
ATOM     24  C   UNL     1      -1.274   3.119   0.086  0.00  0.00    +0.058 A 
ATOM     25  C   UNL     1      -1.232   1.716   0.105  0.00  0.00    +0.027 A 
ATOM     26  C   UNL     1      -0.030   1.049   0.135  0.00  0.00    +0.005 A 
ATOM     27  C   UNL     1       1.173   1.736   0.138  0.00  0.00    -0.049 A 
ATOM     28  C   UNL     1       1.161   3.119   0.114  0.00  0.00    +0.020 A 
ATOM     29  C   UNL     1      -0.041   3.787   0.089  0.00  0.00    +0.039 A 
ATOM     30  S   UNL     1      -0.506   5.500   0.055  0.00  0.00    -0.052 S 
ATOM     31  C   UNL     1       2.479   0.986   0.165  0.00  0.00    +0.044 C 
BRANCH  23  32
ATOM     32  C   UNL     1      -3.727   3.361   0.055  0.00  0.00    +0.152 C 
BRANCH  32  33
ATOM     33  C   UNL     1      -4.663   4.231   0.896  0.00  0.00    +0.181 C 
BRANCH  33  34
ATOM     34  O   UNL     1      -5.938   3.595   1.002  0.00  0.00    -0.378 OA
BRANCH  34  35
ATOM     35  C   UNL     1      -6.892   4.329   1.772  0.00  0.00    +0.156 C 
ATOM     36  C   UNL     1      -8.213   3.558   1.818  0.00  0.00    +0.034 C 
ENDBRANCH  34  35
ENDBRANCH  33  34
ENDBRANCH  32  33
ENDBRANCH  23  32
ENDBRANCH  19  21
ENDBRANCH   4  19
TORSDOF 14
