REMARK  Name = ZINC31106085
REMARK  11 active torsions:
REMARK  status: ('A' for Active; 'I' for Inactive)
REMARK    1  A    between atoms: C_1  and  C_2
REMARK    2  A    between atoms: C_2  and  N_3
REMARK    3  A    between atoms: N_3  and  C_4
REMARK    4  A    between atoms: N_3  and  C_6
REMARK    5  A    between atoms: C_4  and  C_5
REMARK    6  A    between atoms: C_6  and  C_7
REMARK    7  A    between atoms: C_12  and  C_13
REMARK    8  A    between atoms: C_13  and  N_14
REMARK    9  A    between atoms: N_17  and  C_18
REMARK   10  A    between atoms: C_18  and  C_20
REMARK   11  A    between atoms: C_18  and  C_21
REMARK                            x       y       z     vdW  Elec       q    Type
REMARK                         _______ _______ _______ _____ _____    ______ ____
ROOT
ATOM      1  N   UNL     1       4.236  -2.412   1.984  0.00  0.00    -0.295 N 
ATOM      2  C   UNL     1       4.808  -2.174   3.181  0.00  0.00    +0.300 C 
ATOM      3  O   UNL     1       5.114  -1.039   3.493  0.00  0.00    -0.253 OA
ATOM      4  N   UNL     1       5.039  -3.193   4.032  0.00  0.00    -0.293 N 
ATOM      5  H   UNL     1       3.992  -3.317   1.735  0.00  0.00    +0.151 HD
ATOM      6  H   UNL     1       4.794  -4.098   3.783  0.00  0.00    +0.151 HD
ENDROOT
BRANCH   4   7
ATOM      7  C   UNL     1       5.660  -2.933   5.334  0.00  0.00    +0.102 C 
ATOM      8  C   UNL     1       4.582  -2.529   6.341  0.00  0.00    +0.033 C 
BRANCH   7   9
ATOM      9  C   UNL     1       6.356  -4.180   5.815  0.00  0.00    -0.024 A 
ATOM     10  C   UNL     1       5.768  -5.416   5.623  0.00  0.00    +0.009 A 
ATOM     11  C   UNL     1       6.403  -6.563   6.063  0.00  0.00    +0.050 A 
ATOM     12  C   UNL     1       7.631  -6.475   6.698  0.00  0.00    +0.166 A 
ATOM     13  C   UNL     1       8.223  -5.229   6.892  0.00  0.00    +0.167 A 
ATOM     14  C   UNL     1       7.583  -4.085   6.444  0.00  0.00    +0.055 A 
ATOM     15  O   UNL     1       9.414  -5.408   7.534  0.00  0.00    -0.453 OA
ATOM     16  C   UNL     1       9.355  -6.733   8.094  0.00  0.00    +0.466 C 
ATOM     17  O   UNL     1       8.451  -7.434   7.218  0.00  0.00    -0.453 OA
ENDBRANCH   7   9
ENDBRANCH   4   7
BRANCH   1  18
ATOM     18  C   UNL     1       3.985  -1.305   1.058  0.00  0.00    +0.141 C 
BRANCH  18  24
ATOM     19  C   UNL     1       1.991  -2.115  -0.219  0.00  0.00    -0.059 A 
ATOM     20  C   UNL     1       1.402  -2.596  -1.374  0.00  0.00    +0.002 A 
ATOM     21  C   UNL     1       2.168  -2.804  -2.505  0.00  0.00    +0.000 A 
ATOM     22  C   UNL     1       3.523  -2.529  -2.483  0.00  0.00    +0.000 A 
ATOM     23  C   UNL     1       4.111  -2.047  -1.329  0.00  0.00    +0.005 A 
ATOM     24  C   UNL     1       3.344  -1.835  -0.198  0.00  0.00    -0.029 A 
BRANCH  19  25
ATOM     25  C   UNL     1       1.156  -1.888   1.015  0.00  0.00    -0.043 C 
BRANCH  25  26
ATOM     26  N   UNL     1       0.822  -0.462   1.126  0.00  0.00    +0.382 N 
ATOM     27  H   UNL     1       1.671   0.084   1.108  0.00  0.00    -0.081 HD
BRANCH  26  29
ATOM     28  C   UNL     1      -0.262   1.442   0.032  0.00  0.00    -0.017 C 
ATOM     29  C   UNL     1      -0.035  -0.070  -0.001  0.00  0.00    -0.082 C 
ENDBRANCH  26  29
BRANCH  26  30
ATOM     30  C   UNL     1       0.111  -0.222   2.389  0.00  0.00    -0.082 C 
ATOM     31  C   UNL     1       1.053  -0.495   3.563  0.00  0.00    -0.017 C 
ENDBRANCH  26  30
ENDBRANCH  25  26
ENDBRANCH  19  25
ENDBRANCH  18  24
ENDBRANCH   1  18
TORSDOF 8
