REMARK  Name = ZINC40175839
REMARK  3 active torsions:
REMARK  status: ('A' for Active; 'I' for Inactive)
REMARK    1  A    between atoms: C_3  and  N_20
REMARK    2  A    between atoms: C_6  and  C_7
REMARK    3  A    between atoms: C_9  and  C_13
REMARK                            x       y       z     vdW  Elec       q    Type
REMARK                         _______ _______ _______ _____ _____    ______ ____
ROOT
ATOM      1  C   UNL     1      -1.272  -0.764   0.011  0.00  0.00    +0.182 A 
ATOM      2  N   UNL     1      -1.382  -2.098   0.010  0.00  0.00    -0.207 NA
ATOM      3  C   UNL     1      -2.653  -2.438   0.019  0.00  0.00    +0.157 A 
ATOM      4  N   UNL     1      -3.390  -1.303   0.026  0.00  0.00    -0.258 N 
ATOM      5  H   UNL     1      -4.358  -1.239   0.033  0.00  0.00    +0.191 HD
ATOM      6  N   UNL     1      -2.477  -0.236   0.026  0.00  0.00    -0.152 NA
ENDROOT
BRANCH   3   7
ATOM      7  C   UNL     1      -3.183  -3.819   0.021  0.00  0.00    +0.019 A 
ATOM      8  C   UNL     1      -4.561  -4.040   0.025  0.00  0.00    +0.014 A 
ATOM      9  C   UNL     1      -5.050  -5.330   0.026  0.00  0.00    +0.039 A 
ATOM     10  C   UNL     1      -4.176  -6.405   0.025  0.00  0.00    +0.123 A 
ATOM     11  C   UNL     1      -2.807  -6.191   0.022  0.00  0.00    +0.039 A 
ATOM     12  C   UNL     1      -2.308  -4.905   0.013  0.00  0.00    +0.014 A 
ATOM     13  F   UNL     1      -4.660  -7.667   0.027  0.00  0.00    -0.205 F 
ENDBRANCH   3   7
BRANCH   1  19
ATOM     14  C   UNL     1      -0.017   1.390   0.010  0.00  0.00    +0.013 A 
ATOM     15  C   UNL     1       1.168   2.094   0.002  0.00  0.00    +0.023 A 
ATOM     16  C   UNL     1       2.381   1.416  -0.013  0.00  0.00    +0.025 A 
ATOM     17  C   UNL     1       2.402   0.026  -0.021  0.00  0.00    +0.023 A 
ATOM     18  C   UNL     1       1.220  -0.683  -0.014  0.00  0.00    +0.013 A 
ATOM     19  C   UNL     1       0.002  -0.004   0.002  0.00  0.00    +0.021 A 
BRANCH  16  20
ATOM     20  N   UNL     1       3.580   2.131  -0.021  0.00  0.00    -0.358 N 
ATOM     21  H   UNL     1       3.566   3.101  -0.015  0.00  0.00    +0.142 HD
ATOM     22  H   UNL     1       4.427   1.658  -0.031  0.00  0.00    +0.142 HD
ENDBRANCH  16  20
ENDBRANCH   1  19
TORSDOF 3
