REMARK  Name = ZINC35483455
REMARK  17 active torsions:
REMARK  status: ('A' for Active; 'I' for Inactive)
REMARK    1  A    between atoms: C_1  and  C_2
REMARK    2  A    between atoms: C_2  and  C_3
REMARK    3  A    between atoms: C_3  and  C_4
REMARK    4  A    between atoms: C_4  and  N_5
REMARK    5  A    between atoms: N_5  and  C_6
REMARK    6  A    between atoms: N_5  and  C_10
REMARK    7  A    between atoms: C_6  and  C_7
REMARK    8  A    between atoms: C_7  and  C_8
REMARK    9  A    between atoms: C_8  and  C_9
REMARK   10  A    between atoms: C_10  and  C_11
REMARK   11  A    between atoms: C_11  and  C_12
REMARK   12  A    between atoms: C_12  and  N_13
REMARK   13  A    between atoms: C_14  and  C_29
REMARK   14  A    between atoms: C_32  and  C_35
REMARK   15  A    between atoms: C_35  and  C_36
REMARK   16  A    between atoms: C_35  and  C_37
REMARK   17  A    between atoms: C_35  and  C_38
REMARK                            x       y       z     vdW  Elec       q    Type
REMARK                         _______ _______ _______ _____ _____    ______ ____
ROOT
ATOM      1  N   UNL     1      -5.530  -6.901  -0.024  0.00  0.00    -0.284 N 
ATOM      2  C   UNL     1      -6.312  -7.295   1.159  0.00  0.00    +0.144 C 
ATOM      3  C   UNL     1      -7.617  -7.799   0.635  0.00  0.00    +0.072 A 
ATOM      4  C   UNL     1      -8.793  -8.335   1.327  0.00  0.00    +0.199 A 
ATOM      5  O   UNL     1      -8.935  -8.289   2.537  0.00  0.00    -0.287 OA
ATOM      6  C   UNL     1      -9.796  -8.941   0.414  0.00  0.00    +0.064 A 
ATOM      7  C   UNL     1     -10.870  -9.668   0.926  0.00  0.00    +0.015 A 
ATOM      8  C   UNL     1     -11.781 -10.223   0.072  0.00  0.00    +0.001 A 
ATOM      9  C   UNL     1     -11.639 -10.066  -1.300  0.00  0.00    +0.004 A 
ATOM     10  C   UNL     1     -10.586  -9.350  -1.822  0.00  0.00    +0.047 A 
ATOM     11  C   UNL     1      -9.644  -8.771  -0.972  0.00  0.00    +0.139 A 
ATOM     12  O   UNL     1      -8.622  -8.064  -1.506  0.00  0.00    -0.450 OA
ATOM     13  C   UNL     1      -7.587  -7.696  -0.726  0.00  0.00    +0.199 A 
ATOM     14  C   UNL     1      -6.283  -7.133  -1.119  0.00  0.00    +0.283 C 
ATOM     15  O   UNL     1      -5.936  -6.913  -2.262  0.00  0.00    -0.267 OA
ENDROOT
BRANCH   2  16
ATOM     16  C   UNL     1      -6.534  -6.105   2.056  0.00  0.00    -0.022 A 
ATOM     17  C   UNL     1      -6.824  -4.870   1.507  0.00  0.00    +0.006 A 
ATOM     18  C   UNL     1      -7.028  -3.778   2.329  0.00  0.00    +0.004 A 
ATOM     19  C   UNL     1      -6.942  -3.921   3.702  0.00  0.00    -0.042 A 
ATOM     20  C   UNL     1      -6.654  -5.157   4.251  0.00  0.00    +0.004 A 
ATOM     21  C   UNL     1      -6.454  -6.250   3.429  0.00  0.00    +0.006 A 
BRANCH  19  22
ATOM     22  C   UNL     1      -7.164  -2.731   4.599  0.00  0.00    -0.013 C 
ATOM     23  C   UNL     1      -8.572  -2.176   4.372  0.00  0.00    +0.015 C 
ATOM     24  C   UNL     1      -7.014  -3.159   6.060  0.00  0.00    +0.015 C 
ATOM     25  C   UNL     1      -6.131  -1.649   4.275  0.00  0.00    +0.015 C 
ENDBRANCH  19  22
ENDBRANCH   2  16
BRANCH   1  26
ATOM     26  C   UNL     1      -4.174  -6.346  -0.014  0.00  0.00    +0.107 C 
BRANCH  26  27
ATOM     27  C   UNL     1      -4.247  -4.821   0.081  0.00  0.00    +0.000 C 
BRANCH  27  28
ATOM     28  C   UNL     1      -2.831  -4.242   0.091  0.00  0.00    -0.077 C 
BRANCH  28  29
ATOM     29  N   UNL     1      -2.896  -2.792   0.320  0.00  0.00    +0.380 N 
ATOM     30  H   UNL     1      -3.416  -2.608   1.165  0.00  0.00    -0.082 HD
BRANCH  29  31
ATOM     31  C   UNL     1      -1.535  -2.256   0.455  0.00  0.00    -0.079 C 
BRANCH  31  32
ATOM     32  C   UNL     1      -1.606  -0.771   0.816  0.00  0.00    -0.019 C 
BRANCH  32  34
ATOM     33  C   UNL     1      -0.259   1.272   1.319  0.00  0.00    +0.004 C 
ATOM     34  C   UNL     1      -0.188  -0.213   0.957  0.00  0.00    -0.005 C 
ENDBRANCH  32  34
ENDBRANCH  31  32
ENDBRANCH  29  31
BRANCH  29  35
ATOM     35  C   UNL     1      -3.566  -2.147  -0.818  0.00  0.00    -0.079 C 
BRANCH  35  36
ATOM     36  C   UNL     1      -2.764  -2.405  -2.095  0.00  0.00    -0.019 C 
BRANCH  36  37
ATOM     37  C   UNL     1      -3.475  -1.756  -3.284  0.00  0.00    -0.005 C 
ATOM     38  C   UNL     1      -2.673  -2.014  -4.561  0.00  0.00    +0.004 C 
ENDBRANCH  36  37
ENDBRANCH  35  36
ENDBRANCH  29  35
ENDBRANCH  28  29
ENDBRANCH  27  28
ENDBRANCH  26  27
ENDBRANCH   1  26
TORSDOF 12
