REMARK  Name = ZINC62926339
REMARK  10 active torsions:
REMARK  status: ('A' for Active; 'I' for Inactive)
REMARK    1  A    between atoms: C_1  and  C_2
REMARK    2  A    between atoms: C_2  and  N_3
REMARK    3  A    between atoms: N_3  and  C_4
REMARK    4  A    between atoms: N_3  and  C_6
REMARK    5  A    between atoms: C_4  and  C_5
REMARK    6  A    between atoms: C_9  and  C_12
REMARK    7  A    between atoms: C_17  and  C_35
REMARK    8  A    between atoms: C_19  and  O_23
REMARK    9  A    between atoms: O_23  and  C_24
REMARK   10  A    between atoms: C_24  and  C_26
REMARK                            x       y       z     vdW  Elec       q    Type
REMARK                         _______ _______ _______ _____ _____    ______ ____
ROOT
ATOM      1  C   UNL     1       1.190  -6.102   0.917  0.00  0.00    +0.058 C 
ATOM      2  C   UNL     1       2.416  -6.675   0.818  0.00  0.00    +0.176 C 
ATOM      3  C   UNL     1       2.695  -8.109   0.641  0.00  0.00    +0.232 C 
ATOM      4  O   UNL     1       1.890  -9.020   0.552  0.00  0.00    -0.283 OA
ATOM      5  C   UNL     1       4.166  -8.196   0.593  0.00  0.00    +0.071 A 
ATOM      6  C   UNL     1       5.054  -9.262   0.444  0.00  0.00    -0.033 A 
ATOM      7  C   UNL     1       6.400  -9.030   0.438  0.00  0.00    +0.050 A 
ATOM      8  C   UNL     1       6.888  -7.734   0.580  0.00  0.00    +0.136 A 
ATOM      9  C   UNL     1       6.017  -6.666   0.729  0.00  0.00    +0.093 A 
ATOM     10  C   UNL     1       4.645  -6.885   0.737  0.00  0.00    +0.143 A 
ATOM     11  O   UNL     1       3.606  -6.030   0.859  0.00  0.00    -0.451 OA
ATOM     12  C   UNL     1       4.529 -10.666   0.291  0.00  0.00    +0.045 C 
ENDROOT
BRANCH   1  16
ATOM     13  C   UNL     1       0.829  -1.881   1.072  0.00  0.00    +0.013 A 
ATOM     14  C   UNL     1       2.083  -2.465   1.101  0.00  0.00    +0.022 A 
ATOM     15  C   UNL     1       2.209  -3.837   1.051  0.00  0.00    +0.010 A 
ATOM     16  C   UNL     1       1.065  -4.639   0.971  0.00  0.00    -0.021 A 
ATOM     17  C   UNL     1      -0.199  -4.040   0.943  0.00  0.00    +0.010 A 
ATOM     18  C   UNL     1      -0.309  -2.667   0.999  0.00  0.00    +0.022 A 
BRANCH  13  19
ATOM     19  N   UNL     1       0.709  -0.488   1.123  0.00  0.00    -0.394 NA
ATOM     20  H   UNL     1      -0.267  -0.233   1.097  0.00  0.00    +0.126 HD
BRANCH  19  22
ATOM     21  C   UNL     1       1.073   1.516   2.482  0.00  0.00    +0.022 C 
ATOM     22  C   UNL     1       1.313   0.009   2.366  0.00  0.00    +0.081 C 
ENDBRANCH  19  22
BRANCH  19  23
ATOM     23  C   UNL     1       1.401   0.105  -0.029  0.00  0.00    +0.081 C 
ATOM     24  C   UNL     1       0.695  -0.315  -1.319  0.00  0.00    +0.022 C 
ENDBRANCH  19  23
ENDBRANCH  13  19
ENDBRANCH   1  16
BRANCH   8  25
ATOM     25  O   UNL     1       8.227  -7.514   0.574  0.00  0.00    -0.420 OA
BRANCH  25  26
ATOM     26  C   UNL     1       8.872  -7.571  -0.610  0.00  0.00    +0.380 C 
ATOM     27  O   UNL     1       8.272  -7.902  -1.614  0.00  0.00    -0.241 OA
BRANCH  26  28
ATOM     28  C   UNL     1      10.299  -7.233  -0.685  0.00  0.00    +0.213 A 
ATOM     29  C   UNL     1      11.048  -7.249  -1.819  0.00  0.00    +0.065 A 
ATOM     30  C   UNL     1      12.396  -6.847  -1.419  0.00  0.00    +0.021 A 
ATOM     31  C   UNL     1      13.602  -6.671  -2.102  0.00  0.00    +0.011 A 
ATOM     32  C   UNL     1      14.716  -6.275  -1.417  0.00  0.00    +0.001 A 
ATOM     33  C   UNL     1      14.657  -6.048  -0.049  0.00  0.00    +0.004 A 
ATOM     34  C   UNL     1      13.477  -6.216   0.643  0.00  0.00    +0.047 A 
ATOM     35  C   UNL     1      12.330  -6.617  -0.032  0.00  0.00    +0.136 A 
ATOM     36  O   UNL     1      11.063  -6.853   0.361  0.00  0.00    -0.448 OA
ENDBRANCH  26  28
ENDBRANCH  25  26
ENDBRANCH   8  25
TORSDOF 7
