REMARK  Name = ZINC37624897
REMARK  20 active torsions:
REMARK  status: ('A' for Active; 'I' for Inactive)
REMARK    1  A    between atoms: C_1  and  C_2
REMARK    2  A    between atoms: C_2  and  O_3
REMARK    3  A    between atoms: O_3  and  C_4
REMARK    4  A    between atoms: C_4  and  C_6
REMARK    5  A    between atoms: C_7  and  C_40
REMARK    6  A    between atoms: C_8  and  C_35
REMARK    7  A    between atoms: C_11  and  C_12
REMARK    8  A    between atoms: C_12  and  C_13
REMARK    9  A    between atoms: C_12  and  C_24
REMARK   10  A    between atoms: C_14  and  C_23
REMARK   11  A    between atoms: C_15  and  C_20
REMARK   12  A    between atoms: C_16  and  C_19
REMARK   13  A    between atoms: C_20  and  C_22
REMARK   14  A    between atoms: C_25  and  C_34
REMARK   15  A    between atoms: C_26  and  C_31
REMARK   16  A    between atoms: C_27  and  C_30
REMARK   17  A    between atoms: C_31  and  C_33
REMARK   18  A    between atoms: C_35  and  O_37
REMARK   19  A    between atoms: O_37  and  C_38
REMARK   20  A    between atoms: C_38  and  C_39
REMARK                            x       y       z     vdW  Elec       q    Type
REMARK                         _______ _______ _______ _____ _____    ______ ____
ROOT
ATOM      1  C   UNL     1      -3.599  -3.944   2.590  0.00  0.00    +0.130 C 
ENDROOT
BRANCH   1   2
ATOM      2  C   UNL     1      -4.310  -2.688   3.020  0.00  0.00    +0.035 A 
ATOM      3  C   UNL     1      -3.724  -1.499   3.243  0.00  0.00    -0.018 A 
ATOM      4  C   UNL     1      -4.798  -0.577   3.638  0.00  0.00    +0.041 A 
ATOM      5  C   UNL     1      -5.962  -1.321   3.616  0.00  0.00    +0.024 A 
ATOM      6  N   UNL     1      -5.652  -2.574   3.240  0.00  0.00    -0.360 N 
ATOM      7  H   UNL     1      -6.292  -3.297   3.142  0.00  0.00    +0.165 HD
ATOM      8  C   UNL     1      -7.342  -0.813   3.948  0.00  0.00    +0.064 C 
ATOM      9  C   UNL     1      -2.258  -1.176   3.113  0.00  0.00    +0.046 C 
BRANCH   4  10
ATOM     10  C   UNL     1      -4.661   0.840   3.985  0.00  0.00    +0.162 C 
ATOM     11  O   UNL     1      -4.406   1.163   5.127  0.00  0.00    -0.292 OA
ATOM     12  C   UNL     1      -4.838   1.895   2.925  0.00  0.00    +0.091 C 
ENDBRANCH   4  10
ENDBRANCH   1   2
BRANCH   1  13
ATOM     13  C   UNL     1      -3.812  -5.021   3.622  0.00  0.00    +0.035 A 
ATOM     14  C   UNL     1      -2.842  -5.635   4.319  0.00  0.00    -0.018 A 
ATOM     15  C   UNL     1      -3.513  -6.601   5.199  0.00  0.00    +0.041 A 
ATOM     16  C   UNL     1      -4.865  -6.473   4.941  0.00  0.00    +0.024 A 
ATOM     17  N   UNL     1      -5.024  -5.524   4.002  0.00  0.00    -0.360 N 
ATOM     18  H   UNL     1      -5.878  -5.237   3.643  0.00  0.00    +0.165 HD
ATOM     19  C   UNL     1      -5.969  -7.258   5.600  0.00  0.00    +0.064 C 
ATOM     20  C   UNL     1      -1.360  -5.384   4.218  0.00  0.00    +0.046 C 
BRANCH  15  21
ATOM     21  C   UNL     1      -2.880  -7.513   6.155  0.00  0.00    +0.162 C 
ATOM     22  O   UNL     1      -2.478  -8.597   5.785  0.00  0.00    -0.292 OA
ATOM     23  C   UNL     1      -2.727  -7.106   7.597  0.00  0.00    +0.091 C 
ENDBRANCH  15  21
ENDBRANCH   1  13
BRANCH   1  29
ATOM     24  C   UNL     1      -3.423  -4.551   0.095  0.00  0.00    +0.084 A 
ATOM     25  C   UNL     1      -4.322  -5.004  -0.896  0.00  0.00    -0.004 A 
ATOM     26  C   UNL     1      -5.547  -5.111  -0.305  0.00  0.00    +0.128 A 
ATOM     27  N   UNL     1      -5.424  -4.736   1.016  0.00  0.00    -0.351 N 
ATOM     28  H   UNL     1      -6.145  -4.720   1.664  0.00  0.00    +0.166 HD
ATOM     29  C   UNL     1      -4.148  -4.404   1.264  0.00  0.00    +0.046 A 
ATOM     30  C   UNL     1      -3.990  -5.312  -2.334  0.00  0.00    +0.047 C 
BRANCH  24  31
ATOM     31  C   UNL     1      -1.984  -4.290  -0.082  0.00  0.00    +0.341 C 
ATOM     32  O   UNL     1      -1.178  -5.180   0.103  0.00  0.00    -0.245 OA
BRANCH  31  33
ATOM     33  O   UNL     1      -1.562  -3.063  -0.448  0.00  0.00    -0.461 OA
BRANCH  33  35
ATOM     34  C   UNL     1       0.133  -1.437  -1.016  0.00  0.00    +0.048 C 
ATOM     35  C   UNL     1      -0.153  -2.881  -0.600  0.00  0.00    +0.229 C 
ENDBRANCH  33  35
ENDBRANCH  31  33
ENDBRANCH  24  31
BRANCH  26  36
ATOM     36  C   UNL     1      -6.782  -5.549  -0.963  0.00  0.00    +0.356 C 
ATOM     37  O   UNL     1      -6.769  -5.856  -2.139  0.00  0.00    -0.243 OA
BRANCH  36  38
ATOM     38  O   UNL     1      -7.933  -5.611  -0.262  0.00  0.00    -0.460 OA
BRANCH  38  39
ATOM     39  C   UNL     1      -9.098  -6.046  -0.966  0.00  0.00    +0.229 C 
ATOM     40  C   UNL     1     -10.296  -6.051  -0.015  0.00  0.00    +0.048 C 
ENDBRANCH  38  39
ENDBRANCH  36  38
ENDBRANCH  26  36
ENDBRANCH   1  29
TORSDOF 11
