REMARK  Name = ZINC12559222
REMARK  12 active torsions:
REMARK  status: ('A' for Active; 'I' for Inactive)
REMARK    1  A    between atoms: C_1  and  C_2
REMARK    2  A    between atoms: C_2  and  C_3
REMARK    3  A    between atoms: C_2  and  C_4
REMARK    4  A    between atoms: C_2  and  N_5
REMARK    5  A    between atoms: N_5  and  S_6
REMARK    6  A    between atoms: S_6  and  C_9
REMARK    7  A    between atoms: C_12  and  N_18
REMARK    8  A    between atoms: C_13  and  N_15
REMARK    9  A    between atoms: N_18  and  C_19
REMARK   10  A    between atoms: C_19  and  C_21
REMARK   11  A    between atoms: C_19  and  C_28
REMARK   12  A    between atoms: N_32  and  C_33
REMARK                            x       y       z     vdW  Elec       q    Type
REMARK                         _______ _______ _______ _____ _____    ______ ____
ROOT
ATOM      1  C   UNL     1       3.139  -0.007  -0.069  0.00  0.00    +0.108 A 
ATOM      2  C   UNL     1       2.872   0.504   1.188  0.00  0.00    +0.030 A 
ATOM      3  C   UNL     1       3.475  -0.047   2.301  0.00  0.00    +0.027 A 
ATOM      4  C   UNL     1       4.351  -1.116   2.158  0.00  0.00    +0.059 A 
ATOM      5  C   UNL     1       4.617  -1.627   0.894  0.00  0.00    +0.149 A 
ATOM      6  C   UNL     1       4.006  -1.074  -0.215  0.00  0.00    +0.063 A 
ENDROOT
BRANCH   1   7
ATOM      7  S   UNL     1       2.367   0.698  -1.487  0.00  0.00    +0.059 S 
ATOM      8  O   UNL     1       3.065   0.200  -2.620  0.00  0.00    -0.153 OA
ATOM      9  O   UNL     1       2.232   2.089  -1.227  0.00  0.00    -0.153 OA
BRANCH   7  10
ATOM     10  N   UNL     1       0.833   0.081  -1.567  0.00  0.00    -0.185 NA
ATOM     11  H   UNL     1       0.069   0.658  -1.412  0.00  0.00    +0.149 HD
BRANCH  10  13
ATOM     12  C   UNL     1       1.494  -2.189  -0.943  0.00  0.00    +0.029 C 
ATOM     13  C   UNL     1       0.629  -1.337  -1.874  0.00  0.00    +0.032 C 
ATOM     14  C   UNL     1       1.023  -1.607  -3.327  0.00  0.00    +0.029 C 
ATOM     15  C   UNL     1      -0.845  -1.696  -1.670  0.00  0.00    +0.029 C 
ENDBRANCH  10  13
ENDBRANCH   7  10
ENDBRANCH   1   7
BRANCH   5  16
ATOM     16  N   UNL     1       5.550  -2.765   0.736  0.00  0.00    +0.058 N 
ATOM     17  O   UNL     1       6.543  -2.832   1.421  0.00  0.00    -0.126 OA
ATOM     18  O   UNL     1       5.318  -3.628  -0.079  0.00  0.00    -0.126 OA
ENDBRANCH   5  16
BRANCH   4  19
ATOM     19  N   UNL     1       4.963  -1.675   3.282  0.00  0.00    -0.329 N 
ATOM     20  H   UNL     1       5.618  -2.382   3.176  0.00  0.00    +0.147 HD
BRANCH  19  21
ATOM     21  C   UNL     1       4.614  -1.194   4.621  0.00  0.00    +0.165 C 
BRANCH  21  22
ATOM     22  C   UNL     1       4.886  -2.279   5.631  0.00  0.00    -0.020 A 
ATOM     23  C   UNL     1       6.020  -3.061   5.516  0.00  0.00    +0.007 A 
ATOM     24  C   UNL     1       6.270  -4.057   6.442  0.00  0.00    +0.020 A 
ATOM     25  C   UNL     1       5.385  -4.270   7.484  0.00  0.00    +0.041 A 
ATOM     26  C   UNL     1       4.250  -3.487   7.598  0.00  0.00    +0.020 A 
ATOM     27  C   UNL     1       4.004  -2.489   6.675  0.00  0.00    +0.007 A 
ATOM     28 CL   UNL     1       5.697  -5.520   8.647  0.00  0.00    -0.084 Cl
ENDBRANCH  21  22
BRANCH  21  29
ATOM     29  C   UNL     1       5.446   0.019   4.951  0.00  0.00    +0.112 A 
ATOM     30  N   UNL     1       6.680   0.219   4.578  0.00  0.00    -0.348 N 
ATOM     31  C   UNL     1       7.099   1.402   5.052  0.00  0.00    +0.102 A 
ATOM     32  C   UNL     1       6.085   1.956   5.745  0.00  0.00    +0.104 A 
ATOM     33  N   UNL     1       5.035   1.081   5.676  0.00  0.00    -0.337 N 
ATOM     34  C   UNL     1       3.712   1.262   6.280  0.00  0.00    +0.150 C 
ATOM     35  H   UNL     1       7.211  -0.391   4.043  0.00  0.00    +0.167 HD
ENDBRANCH  21  29
ENDBRANCH  19  21
ENDBRANCH   4  19
TORSDOF 8
