REMARK  Name = ZINC08748897
REMARK  10 active torsions:
REMARK  status: ('A' for Active; 'I' for Inactive)
REMARK    1  A    between atoms: C_1  and  C_2
REMARK    2  A    between atoms: C_4  and  C_49
REMARK    3  A    between atoms: C_5  and  N_9
REMARK    4  A    between atoms: C_6  and  C_8
REMARK    5  A    between atoms: C_10  and  C_12
REMARK    6  A    between atoms: C_12  and  N_28
REMARK    7  A    between atoms: N_28  and  C_29
REMARK    8  A    between atoms: C_29  and  C_30
REMARK    9  A    between atoms: C_35  and  C_37
REMARK   10  A    between atoms: C_37  and  N_38
REMARK                            x       y       z     vdW  Elec       q    Type
REMARK                         _______ _______ _______ _____ _____    ______ ____
ROOT
ATOM      1  C   UNL     1       3.384   3.955   0.378  0.00  0.00    +0.114 C 
ATOM      2  C   UNL     1       4.295   2.804   0.814  0.00  0.00    +0.036 C 
ATOM      3  C   UNL     1       3.750   1.499   0.238  0.00  0.00    +0.007 C 
ATOM      4  C   UNL     1       2.337   1.235   0.766  0.00  0.00    -0.003 C 
ATOM      5  C   UNL     1       1.812  -0.034   0.086  0.00  0.00    +0.039 C 
ATOM      6  C   UNL     1       0.347  -0.232   0.359  0.00  0.00    -0.044 A 
ATOM      7  C   UNL     1      -0.190  -1.495   0.142  0.00  0.00    +0.004 A 
ATOM      8  C   UNL     1      -1.531  -1.733   0.358  0.00  0.00    +0.000 A 
ATOM      9  C   UNL     1      -2.349  -0.707   0.794  0.00  0.00    +0.000 A 
ATOM     10  C   UNL     1      -1.817   0.547   1.014  0.00  0.00    +0.004 A 
ATOM     11  C   UNL     1      -0.465   0.787   0.801  0.00  0.00    -0.044 A 
ATOM     12  C   UNL     1       0.053   2.172   1.070  0.00  0.00    +0.039 C 
ATOM     13  C   UNL     1       1.412   2.400   0.400  0.00  0.00    -0.001 C 
ATOM     14  C   UNL     1       1.984   3.715   0.940  0.00  0.00    +0.039 C 
ENDROOT
BRANCH   1  16
ATOM     15  N   UNL     1       4.811   5.966   0.182  0.00  0.00    -0.283 N 
ATOM     16  C   UNL     1       3.925   5.257   0.910  0.00  0.00    +0.241 C 
ATOM     17  O   UNL     1       3.563   5.667   1.993  0.00  0.00    -0.273 OA
ATOM     18  H   UNL     1       5.042   5.679  -0.715  0.00  0.00    +0.155 HD
BRANCH  15  23
ATOM     19  C   UNL     1       7.191  10.628   2.369  0.00  0.00    +0.044 C 
ATOM     20  C   UNL     1       6.559   9.389   1.789  0.00  0.00    -0.050 A 
ATOM     21  C   UNL     1       5.184   9.244   1.806  0.00  0.00    +0.008 A 
ATOM     22  C   UNL     1       4.601   8.110   1.274  0.00  0.00    -0.029 A 
ATOM     23  C   UNL     1       5.398   7.116   0.722  0.00  0.00    +0.039 A 
ATOM     24  C   UNL     1       6.779   7.262   0.711  0.00  0.00    -0.029 A 
ATOM     25  C   UNL     1       7.355   8.401   1.240  0.00  0.00    +0.008 A 
ATOM     26  C   UNL     1       7.648   6.183   0.118  0.00  0.00    +0.045 C 
ATOM     27  C   UNL     1       3.103   7.952   1.293  0.00  0.00    +0.045 C 
ENDBRANCH  15  23
ENDBRANCH   1  16
BRANCH   1  28
ATOM     28  N   UNL     1       3.323   4.006  -1.085  0.00  0.00    -0.279 N 
ATOM     29  C   UNL     1       4.427   3.750  -1.815  0.00  0.00    +0.235 C 
ATOM     30  O   UNL     1       5.450   3.402  -1.264  0.00  0.00    -0.274 OA
BRANCH  28  31
ATOM     31  C   UNL     1       2.062   4.336  -1.754  0.00  0.00    +0.183 C 
BRANCH  31  32
ATOM     32  C   UNL     1       1.964   5.829  -1.932  0.00  0.00    +0.122 A 
ATOM     33  C   UNL     1       2.410   6.526  -2.993  0.00  0.00    +0.046 A 
ATOM     34  C   UNL     1       2.111   7.886  -2.745  0.00  0.00    +0.041 A 
ATOM     35  C   UNL     1       1.506   7.939  -1.544  0.00  0.00    +0.195 A 
ATOM     36  O   UNL     1       1.420   6.690  -1.057  0.00  0.00    -0.466 OA
ENDBRANCH  31  32
ENDBRANCH  28  31
BRANCH  29  37
ATOM     37  C   UNL     1       4.390   3.897  -3.314  0.00  0.00    +0.212 C 
BRANCH  37  38
ATOM     38  N   UNL     1       5.704   3.564  -3.870  0.00  0.00    -0.225 N 
ATOM     39  C   UNL     1       6.694   4.453  -4.068  0.00  0.00    +0.254 C 
ATOM     40  O   UNL     1       6.641   5.640  -3.818  0.00  0.00    -0.270 OA
ATOM     41  C   UNL     1       7.857   3.742  -4.639  0.00  0.00    +0.049 A 
ATOM     42  C   UNL     1       9.127   4.128  -5.037  0.00  0.00    +0.014 A 
ATOM     43  C   UNL     1      10.003   3.185  -5.551  0.00  0.00    +0.001 A 
ATOM     44  C   UNL     1       9.618   1.863  -5.670  0.00  0.00    +0.001 A 
ATOM     45  C   UNL     1       8.351   1.462  -5.276  0.00  0.00    +0.014 A 
ATOM     46  C   UNL     1       7.465   2.394  -4.760  0.00  0.00    +0.049 A 
ATOM     47  C   UNL     1       6.077   2.330  -4.254  0.00  0.00    +0.254 C 
ATOM     48  O   UNL     1       5.389   1.331  -4.196  0.00  0.00    -0.270 OA
ENDBRANCH  37  38
ENDBRANCH  29  37
ENDBRANCH   1  28
TORSDOF 7
