REMARK  Name = ZINC36310214
REMARK  16 active torsions:
REMARK  status: ('A' for Active; 'I' for Inactive)
REMARK    1  A    between atoms: C_1  and  C_2
REMARK    2  A    between atoms: C_2  and  N_3
REMARK    3  A    between atoms: N_3  and  C_4
REMARK    4  A    between atoms: N_3  and  C_28
REMARK    5  A    between atoms: C_4  and  C_5
REMARK    6  A    between atoms: C_15  and  C_17
REMARK    7  A    between atoms: C_17  and  O_18
REMARK    8  A    between atoms: O_18  and  C_19
REMARK    9  A    between atoms: C_22  and  C_25
REMARK   10  A    between atoms: C_25  and  C_26
REMARK   11  A    between atoms: C_25  and  C_27
REMARK   12  A    between atoms: C_28  and  C_30
REMARK   13  A    between atoms: C_28  and  C_31
REMARK   14  A    between atoms: C_31  and  C_32
REMARK   15  A    between atoms: C_31  and  C_33
REMARK   16  A    between atoms: C_31  and  O_34
REMARK                            x       y       z     vdW  Elec       q    Type
REMARK                         _______ _______ _______ _____ _____    ______ ____
ROOT
ATOM      1  C   UNL     1      -2.273   1.450  -1.300  0.00  0.00    +0.200 C 
ATOM      2  O   UNL     1      -1.462   1.904  -0.522  0.00  0.00    -0.278 OA
ATOM      3  N   UNL     1      -2.919   2.269  -2.155  0.00  0.00    -0.292 N 
ATOM      4  C   UNL     1      -3.909   1.730  -3.099  0.00  0.00    +0.113 C 
ATOM      5  C   UNL     1      -5.286   2.308  -2.736  0.00  0.00    +0.061 C 
ATOM      6  C   UNL     1      -5.130   3.764  -2.437  0.00  0.00    -0.004 A 
ATOM      7  C   UNL     1      -3.983   4.444  -2.166  0.00  0.00    -0.014 A 
ATOM      8  C   UNL     1      -4.110   5.808  -1.911  0.00  0.00    +0.013 A 
ATOM      9  C   UNL     1      -5.330   6.392  -1.946  0.00  0.00    +0.046 A 
ATOM     10  S   UNL     1      -6.388   5.011  -2.351  0.00  0.00    -0.101 S 
ATOM     11  C   UNL     1      -2.647   3.712  -2.152  0.00  0.00    +0.144 C 
ENDROOT
BRANCH   1  12
ATOM     12  C   UNL     1      -2.560  -0.029  -1.312  0.00  0.00    +0.019 C 
BRANCH  12  13
ATOM     13  N   UNL     1      -1.839  -0.677  -0.208  0.00  0.00    +0.389 N 
ATOM     14  H   UNL     1      -0.861  -0.435  -0.258  0.00  0.00    -0.081 HD
BRANCH  13  16
ATOM     15  C   UNL     1      -1.275  -2.632  -1.570  0.00  0.00    -0.017 C 
ATOM     16  C   UNL     1      -1.990  -2.134  -0.312  0.00  0.00    -0.081 C 
ENDBRANCH  13  16
BRANCH  13  17
ATOM     17  C   UNL     1      -2.391  -0.218   1.074  0.00  0.00    -0.039 C 
ATOM     18  C   UNL     1      -3.680  -0.984   1.377  0.00  0.00    -0.010 C 
BRANCH  17  19
ATOM     19  C   UNL     1      -1.373  -0.471   2.187  0.00  0.00    +0.049 C 
ATOM     20  C   UNL     1      -0.115   0.360   1.927  0.00  0.00    +0.039 C 
ATOM     21  C   UNL     1      -1.980  -0.069   3.534  0.00  0.00    +0.039 C 
BRANCH  19  22
ATOM     22  O   UNL     1      -1.031  -1.858   2.214  0.00  0.00    -0.391 OA
ATOM     23  H   UNL     1      -0.441  -2.131   1.498  0.00  0.00    +0.210 HD
ENDBRANCH  19  22
ENDBRANCH  17  19
ENDBRANCH  13  17
ENDBRANCH  12  13
ENDBRANCH   1  12
BRANCH  11  24
ATOM     24  C   UNL     1      -1.842   4.090  -3.397  0.00  0.00    +0.256 C 
BRANCH  24  25
ATOM     25  O   UNL     1      -2.633   3.861  -4.564  0.00  0.00    -0.490 OA
BRANCH  25  26
ATOM     26  C   UNL     1      -2.062   4.147  -5.763  0.00  0.00    +0.121 A 
ATOM     27  C   UNL     1      -0.764   4.635  -5.816  0.00  0.00    +0.046 A 
ATOM     28  C   UNL     1      -0.185   4.925  -7.036  0.00  0.00    +0.007 A 
ATOM     29  C   UNL     1      -0.898   4.731  -8.204  0.00  0.00    -0.045 A 
ATOM     30  C   UNL     1      -2.192   4.246  -8.155  0.00  0.00    +0.007 A 
ATOM     31  C   UNL     1      -2.773   3.948  -6.937  0.00  0.00    +0.046 A 
BRANCH  29  32
ATOM     32  C   UNL     1      -0.264   5.049  -9.534  0.00  0.00    +0.013 C 
ATOM     33  C   UNL     1      -0.218   3.784 -10.393  0.00  0.00    +0.012 C 
ATOM     34  C   UNL     1      -1.090   6.121 -10.249  0.00  0.00    +0.012 C 
ENDBRANCH  29  32
ENDBRANCH  25  26
ENDBRANCH  24  25
ENDBRANCH  11  24
TORSDOF 10
