REMARK  Name = ZINC08749242
REMARK  8 active torsions:
REMARK  status: ('A' for Active; 'I' for Inactive)
REMARK    1  A    between atoms: C_1  and  C_2
REMARK    2  A    between atoms: C_7  and  C_9
REMARK    3  A    between atoms: C_7  and  C_30
REMARK    4  A    between atoms: C_7  and  N_65
REMARK    5  A    between atoms: C_9  and  N_10
REMARK    6  A    between atoms: C_11  and  C_13
REMARK    7  A    between atoms: N_18  and  S_20
REMARK    8  A    between atoms: S_20  and  C_23
REMARK                            x       y       z     vdW  Elec       q    Type
REMARK                         _______ _______ _______ _____ _____    ______ ____
ROOT
ATOM      1  N   UNL     1      -1.213   2.108  -0.267  0.00  0.00    -0.316 N 
ATOM      2  C   UNL     1      -0.020   1.580  -0.603  0.00  0.00    +0.217 C 
ATOM      3  O   UNL     1       0.091   0.383  -0.760  0.00  0.00    -0.275 OA
ATOM      4  H   UNL     1      -1.302   3.066  -0.141  0.00  0.00    +0.149 HD
ENDROOT
BRANCH   2   5
ATOM      5  C   UNL     1       1.176   2.478  -0.788  0.00  0.00    +0.091 C 
ATOM      6  C   UNL     1       0.888   3.489  -1.901  0.00  0.00    +0.015 C 
ATOM      7  C   UNL     1       2.089   4.423  -2.068  0.00  0.00    +0.018 C 
ATOM      8  C   UNL     1       3.318   3.600  -2.469  0.00  0.00    +0.109 C 
ATOM      9  N   UNL     1       3.516   2.533  -1.478  0.00  0.00    -0.176 NA
ATOM     10  C   UNL     1       2.394   1.634  -1.175  0.00  0.00    +0.122 C 
BRANCH   9  11
ATOM     11  S   UNL     1       4.976   2.348  -0.719  0.00  0.00    +0.061 S 
ATOM     12  O   UNL     1       5.044   0.993  -0.295  0.00  0.00    -0.153 OA
ATOM     13  O   UNL     1       5.953   2.930  -1.570  0.00  0.00    -0.153 OA
BRANCH  11  14
ATOM     14  C   UNL     1       4.931   3.330   0.743  0.00  0.00    +0.106 A 
ATOM     15  C   UNL     1       5.356   4.645   0.705  0.00  0.00    +0.031 A 
ATOM     16  C   UNL     1       5.316   5.418   1.850  0.00  0.00    +0.040 A 
ATOM     17  C   UNL     1       4.861   4.872   3.038  0.00  0.00    +0.124 A 
ATOM     18  C   UNL     1       4.441   3.554   3.076  0.00  0.00    +0.040 A 
ATOM     19  C   UNL     1       4.476   2.784   1.929  0.00  0.00    +0.031 A 
ATOM     20  F   UNL     1       4.826   5.626   4.159  0.00  0.00    -0.205 F 
ENDBRANCH  11  14
ENDBRANCH   9  11
ENDBRANCH   2   5
BRANCH   1  21
ATOM     21  C   UNL     1      -2.377   1.236  -0.092  0.00  0.00    +0.094 C 
BRANCH  21  22
ATOM     22  C   UNL     1      -3.622   2.090   0.156  0.00  0.00    -0.013 C 
BRANCH  22  29
ATOM     23  C   UNL     1      -3.400   5.188   4.955  0.00  0.00    +0.007 C 
ATOM     24  C   UNL     1      -3.804   4.167   3.889  0.00  0.00    -0.018 C 
ATOM     25  C   UNL     1      -4.188   4.899   2.600  0.00  0.00    -0.015 C 
ATOM     26  C   UNL     1      -4.533   3.871   1.519  0.00  0.00    -0.078 C 
ATOM     27  C   UNL     1      -3.018   2.251   2.495  0.00  0.00    -0.078 C 
ATOM     28  C   UNL     1      -2.627   3.230   3.604  0.00  0.00    -0.015 C 
ATOM     29  N   UNL     1      -3.352   3.016   1.275  0.00  0.00    +0.386 N 
ATOM     30  H   UNL     1      -2.554   3.614   1.028  0.00  0.00    -0.081 HD
ENDBRANCH  22  29
BRANCH  22  31
ATOM     31  C   UNL     1      -3.934   2.894  -1.079  0.00  0.00    -0.022 A 
ATOM     32  C   UNL     1      -4.854   2.653  -2.045  0.00  0.00    +0.009 A 
ATOM     33  C   UNL     1      -4.966   3.539  -3.100  0.00  0.00    +0.008 A 
ATOM     34  C   UNL     1      -4.154   4.623  -3.138  0.00  0.00    +0.045 A 
ATOM     35  S   UNL     1      -3.194   4.416  -1.647  0.00  0.00    -0.103 S 
ENDBRANCH  22  31
ENDBRANCH  21  22
ENDBRANCH   1  21
TORSDOF 7
