REMARK  Name = ZINC36243636
REMARK  6 active torsions:
REMARK  status: ('A' for Active; 'I' for Inactive)
REMARK    1  A    between atoms: C_1  and  C_2
REMARK    2  A    between atoms: C_10  and  O_38
REMARK    3  A    between atoms: N_22  and  N_23
REMARK    4  A    between atoms: C_24  and  C_26
REMARK    5  A    between atoms: C_28  and  N_35
REMARK    6  A    between atoms: C_30  and  N_32
REMARK                            x       y       z     vdW  Elec       q    Type
REMARK                         _______ _______ _______ _____ _____    ______ ____
ROOT
ATOM      1  C   UNL     1      -0.019   1.526   0.010  0.00  0.00    +0.018 C 
ATOM      2  C   UNL     1       0.002  -0.004   0.002  0.00  0.00    +0.011 C 
ATOM      3  C   UNL     1       0.600  -0.550  -1.296  0.00  0.00    +0.013 C 
ATOM      4  C   UNL     1       2.115  -0.357  -1.338  0.00  0.00    +0.009 C 
ATOM      5  C   UNL     1       2.724  -1.133  -0.168  0.00  0.00    +0.023 C 
ATOM      6  C   UNL     1       4.226  -1.080  -0.212  0.00  0.00    -0.041 A 
ATOM      7  C   UNL     1       4.850  -1.189  -1.447  0.00  0.00    +0.008 A 
ATOM      8  C   UNL     1       6.225  -1.155  -1.545  0.00  0.00    +0.046 A 
ATOM      9  C   UNL     1       6.991  -1.012  -0.397  0.00  0.00    +0.117 A 
ATOM     10  C   UNL     1       6.368  -0.901   0.834  0.00  0.00    +0.049 A 
ATOM     11  C   UNL     1       4.984  -0.930   0.930  0.00  0.00    -0.040 A 
ATOM     12  C   UNL     1       4.376  -0.780   2.300  0.00  0.00    +0.036 C 
ATOM     13  C   UNL     1       2.907  -1.204   2.303  0.00  0.00    +0.009 C 
ATOM     14  C   UNL     1       2.221  -0.507   1.129  0.00  0.00    +0.001 C 
ATOM     15  C   UNL     1       0.738  -0.568   1.233  0.00  0.00    +0.005 C 
ATOM     16  C   UNL     1       0.223  -2.018   1.309  0.00  0.00    +0.010 C 
ATOM     17  C   UNL     1      -1.270  -1.877   0.931  0.00  0.00    +0.053 C 
ATOM     18  C   UNL     1      -1.403  -0.589   0.142  0.00  0.00    +0.043 C 
ATOM     19  N   UNL     1      -2.486  -0.087  -0.319  0.00  0.00    -0.188 NA
ENDROOT
BRANCH  19  20
ATOM     20  N   UNL     1      -3.707  -0.742  -0.109  0.00  0.00    -0.203 N 
ATOM     21  C   UNL     1      -4.848  -0.214  -0.595  0.00  0.00    +0.263 C 
ATOM     22  O   UNL     1      -4.818   0.832  -1.214  0.00  0.00    -0.268 OA
ATOM     23  H   UNL     1      -3.731  -1.577   0.385  0.00  0.00    +0.178 HD
BRANCH  21  24
ATOM     24  C   UNL     1      -6.135  -0.905  -0.374  0.00  0.00    +0.043 A 
ATOM     25  C   UNL     1      -6.174  -2.103   0.342  0.00  0.00    +0.046 A 
ATOM     26  C   UNL     1      -7.379  -2.743   0.545  0.00  0.00    +0.129 A 
ATOM     27  C   UNL     1      -8.548  -2.200   0.041  0.00  0.00    +0.065 A 
ATOM     28  C   UNL     1      -8.516  -1.013  -0.670  0.00  0.00    +0.129 A 
ATOM     29  C   UNL     1      -7.319  -0.360  -0.875  0.00  0.00    +0.046 A 
BRANCH  28  30
ATOM     30  N   UNL     1      -9.771  -0.440  -1.206  0.00  0.00    +0.057 N 
ATOM     31  O   UNL     1     -10.822  -1.009  -1.023  0.00  0.00    -0.126 OA
ATOM     32  O   UNL     1      -9.745   0.596  -1.827  0.00  0.00    -0.126 OA
ENDBRANCH  28  30
BRANCH  26  33
ATOM     33  N   UNL     1      -7.422  -4.013   1.304  0.00  0.00    +0.057 N 
ATOM     34  O   UNL     1      -6.402  -4.489   1.745  0.00  0.00    -0.126 OA
ATOM     35  O   UNL     1      -8.477  -4.575   1.483  0.00  0.00    -0.126 OA
ENDBRANCH  26  33
ENDBRANCH  21  24
ENDBRANCH  19  20
BRANCH   9  36
ATOM     36  O   UNL     1       8.347  -0.982  -0.481  0.00  0.00    -0.507 OA
ATOM     37  H   UNL     1       8.715  -0.096  -0.598  0.00  0.00    +0.292 HD
ENDBRANCH   9  36
TORSDOF 5
