REMARK  Name = ZINC67464667
REMARK  6 active torsions:
REMARK  status: ('A' for Active; 'I' for Inactive)
REMARK    1  A    between atoms: C_1  and  C_2
REMARK    2  A    between atoms: C_7  and  N_8
REMARK    3  A    between atoms: N_11  and  N_12
REMARK    4  A    between atoms: C_13  and  C_15
REMARK    5  A    between atoms: C_16  and  C_17
REMARK    6  A    between atoms: C_16  and  C_18
REMARK                            x       y       z     vdW  Elec       q    Type
REMARK                         _______ _______ _______ _____ _____    ______ ____
ROOT
ATOM      1  N   UNL     1      -0.173   1.375   4.750  0.00  0.00    -0.230 N 
ATOM      2  C   UNL     1      -0.272   2.043   5.917  0.00  0.00    +0.253 C 
ATOM      3  O   UNL     1      -0.346   1.429   6.965  0.00  0.00    -0.269 OA
ATOM      4  H   UNL     1      -0.115   1.864   3.915  0.00  0.00    +0.173 HD
ENDROOT
BRANCH   1   8
ATOM      5  N   UNL     1       0.026  -0.015   2.417  0.00  0.00    -0.268 N 
ATOM      6  C   UNL     1      -0.056  -0.694   3.578  0.00  0.00    +0.320 C 
ATOM      7  O   UNL     1      -0.040  -1.910   3.573  0.00  0.00    -0.251 OA
ATOM      8  N   UNL     1      -0.155  -0.026   4.745  0.00  0.00    -0.218 N 
ATOM      9  H   UNL     1       0.079   0.954   2.425  0.00  0.00    +0.156 HD
ATOM     10  H   UNL     1      -0.214  -0.515   5.580  0.00  0.00    +0.174 HD
BRANCH   5  17
ATOM     11  C   UNL     1      -1.265   1.184   0.182  0.00  0.00    +0.045 C 
ATOM     12  C   UNL     1      -0.585  -0.158   0.085  0.00  0.00    -0.029 A 
ATOM     13  C   UNL     1      -0.570  -0.840  -1.116  0.00  0.00    +0.005 A 
ATOM     14  C   UNL     1       0.054  -2.070  -1.206  0.00  0.00    +0.000 A 
ATOM     15  C   UNL     1       0.665  -2.622  -0.095  0.00  0.00    +0.002 A 
ATOM     16  C   UNL     1       0.654  -1.945   1.108  0.00  0.00    +0.023 A 
ATOM     17  C   UNL     1       0.033  -0.706   1.200  0.00  0.00    +0.038 A 
ENDBRANCH   5  17
ENDBRANCH   1   8
BRANCH   2  18
ATOM     18  C   UNL     1      -0.291   3.506   5.923  0.00  0.00    +0.072 C 
ATOM     19  C   UNL     1      -0.391   4.174   7.090  0.00  0.00    -0.036 C 
ATOM     20  C   UNL     1      -0.410   5.681   7.096  0.00  0.00    +0.044 C 
BRANCH  19  21
ATOM     21  C   UNL     1      -0.480   3.433   8.357  0.00  0.00    +0.013 A 
ATOM     22  C   UNL     1       0.659   2.827   8.899  0.00  0.00    +0.011 A 
ATOM     23  C   UNL     1       0.568   2.135  10.087  0.00  0.00    +0.001 A 
ATOM     24  C   UNL     1      -0.647   2.035  10.745  0.00  0.00    +0.003 A 
ATOM     25  C   UNL     1      -1.778   2.629  10.218  0.00  0.00    +0.039 A 
ATOM     26  C   UNL     1      -1.704   3.333   9.030  0.00  0.00    +0.131 A 
ATOM     27  F   UNL     1      -2.809   3.918   8.518  0.00  0.00    -0.205 F 
ENDBRANCH  19  21
ENDBRANCH   2  18
TORSDOF 4
