REMARK  Name = ZINC12497892
REMARK  7 active torsions:
REMARK  status: ('A' for Active; 'I' for Inactive)
REMARK    1  A    between atoms: C_1  and  O_2
REMARK    2  A    between atoms: O_2  and  C_3
REMARK    3  A    between atoms: C_3  and  C_5
REMARK    4  A    between atoms: C_5  and  C_32
REMARK    5  A    between atoms: C_10  and  C_12
REMARK    6  A    between atoms: N_19  and  C_22
REMARK    7  A    between atoms: C_32  and  C_33
REMARK                            x       y       z     vdW  Elec       q    Type
REMARK                         _______ _______ _______ _____ _____    ______ ____
ROOT
ATOM      1  C   UNL     1      -1.427   8.965   0.128  0.00  0.00    +0.048 C 
ATOM      2  C   UNL     1      -0.883   7.615   0.424  0.00  0.00    +0.086 C 
ATOM      3  C   UNL     1       0.504   7.675  -0.330  0.00  0.00    +0.078 C 
ATOM      4  C   UNL     1       0.991   8.988   0.236  0.00  0.00    -0.020 C 
ATOM      5  C   UNL     1       0.985   6.325   0.039  0.00  0.00    +0.229 C 
ATOM      6  O   UNL     1       2.125   5.992   0.285  0.00  0.00    -0.275 OA
ATOM      7  N   UNL     1      -0.132   5.532   0.044  0.00  0.00    -0.210 N 
ATOM      8  C   UNL     1      -1.295   6.261   0.057  0.00  0.00    +0.229 C 
ATOM      9  O   UNL     1      -2.417   5.867  -0.182  0.00  0.00    -0.275 OA
ATOM     10  N   UNL     1      -0.225   9.848   0.116  0.00  0.00    +0.396 N 
ATOM     11  H   UNL     1      -0.267  10.502   0.906  0.00  0.00    -0.083 HD
ATOM     12  H   UNL     1      -0.191  10.376  -0.764  0.00  0.00    -0.083 HD
ENDROOT
BRANCH   7  13
ATOM     13  C   UNL     1      -0.092   4.130   0.032  0.00  0.00    +0.048 A 
ATOM     14  C   UNL     1      -1.274   3.401   0.037  0.00  0.00    +0.028 A 
ATOM     15  C   UNL     1      -1.235   2.020   0.030  0.00  0.00    +0.051 A 
ATOM     16  C   UNL     1      -0.016   1.358   0.009  0.00  0.00    +0.162 A 
ATOM     17  C   UNL     1       1.168   2.085   0.002  0.00  0.00    +0.164 A 
ATOM     18  C   UNL     1       1.129   3.470   0.015  0.00  0.00    +0.073 A 
ATOM     19  O   UNL     1       2.373   1.452  -0.019  0.00  0.00    -0.485 OA
ATOM     20  C   UNL     1       2.381   0.068   0.347  0.00  0.00    +0.270 C 
ATOM     21  C   UNL     1       1.229  -0.629  -0.390  0.00  0.00    +0.270 C 
ATOM     22  O   UNL     1       0.002  -0.004   0.002  0.00  0.00    -0.485 OA
ENDBRANCH   7  13
BRANCH   4  23
ATOM     23  C   UNL     1       2.129   9.537  -0.586  0.00  0.00    -0.023 A 
ATOM     24  C   UNL     1       3.461   9.483  -0.342  0.00  0.00    +0.009 A 
ATOM     25  C   UNL     1       4.332  10.062  -1.247  0.00  0.00    +0.008 A 
ATOM     26  C   UNL     1       3.827  10.665  -2.351  0.00  0.00    +0.045 A 
ATOM     27  S   UNL     1       2.072  10.419  -2.137  0.00  0.00    -0.103 S 
ENDBRANCH   4  23
BRANCH   1  28
ATOM     28  C   UNL     1      -2.105   8.975  -1.218  0.00  0.00    +0.297 C 
ATOM     29  O   UNL     1      -2.602   7.963  -1.652  0.00  0.00    -0.252 OA
BRANCH  28  31
ATOM     30  C   UNL     1      -2.827  10.045  -3.222  0.00  0.00    +0.280 C 
ATOM     31  O   UNL     1      -2.158  10.109  -1.935  0.00  0.00    -0.469 OA
ENDBRANCH  28  31
ENDBRANCH   1  28
BRANCH   1  32
ATOM     32  C   UNL     1      -2.406   9.400   1.221  0.00  0.00    +0.034 C 
BRANCH  32  33
ATOM     33  C   UNL     1      -2.880  10.803   0.941  0.00  0.00    -0.048 A 
ATOM     34  C   UNL     1      -2.189  11.883   1.459  0.00  0.00    +0.003 A 
ATOM     35  C   UNL     1      -2.622  13.169   1.198  0.00  0.00    +0.000 A 
ATOM     36  C   UNL     1      -3.750  13.376   0.427  0.00  0.00    +0.000 A 
ATOM     37  C   UNL     1      -4.444  12.297  -0.087  0.00  0.00    +0.000 A 
ATOM     38  C   UNL     1      -4.009  11.010   0.170  0.00  0.00    +0.003 A 
ENDBRANCH  32  33
ENDBRANCH   1  32
TORSDOF 6
