REMARK  Name = ZINC34758478
REMARK  10 active torsions:
REMARK  status: ('A' for Active; 'I' for Inactive)
REMARK    1  A    between atoms: C_1  and  C_2
REMARK    2  A    between atoms: C_2  and  C_3
REMARK    3  A    between atoms: C_3  and  S_4
REMARK    4  A    between atoms: S_4  and  C_5
REMARK    5  A    between atoms: C_9  and  C_15
REMARK    6  A    between atoms: C_10  and  C_14
REMARK    7  A    between atoms: N_19  and  C_22
REMARK    8  A    between atoms: C_22  and  C_23
REMARK    9  A    between atoms: C_25  and  C_30
REMARK   10  A    between atoms: C_28  and  C_29
REMARK                            x       y       z     vdW  Elec       q    Type
REMARK                         _______ _______ _______ _____ _____    ______ ____
ROOT
ATOM      1  C   UNL     1       3.047  -2.506  -2.802  0.00  0.00    +0.191 A 
ATOM      2  N   UNL     1       3.163  -3.803  -3.061  0.00  0.00    -0.206 NA
ATOM      3  C   UNL     1       2.235  -4.472  -3.725  0.00  0.00    +0.134 A 
ATOM      4  C   UNL     1       1.073  -3.788  -4.179  0.00  0.00    +0.051 A 
ATOM      5  C   UNL     1      -0.071  -4.294  -4.918  0.00  0.00    -0.028 A 
ATOM      6  C   UNL     1      -1.064  -3.454  -5.243  0.00  0.00    -0.008 A 
ATOM      7  S   UNL     1      -0.527  -1.893  -4.569  0.00  0.00    -0.073 S 
ATOM      8  C   UNL     1       1.018  -2.412  -3.869  0.00  0.00    +0.115 A 
ATOM      9  N   UNL     1       1.984  -1.818  -3.196  0.00  0.00    -0.215 NA
ATOM     10  C   UNL     1      -2.332  -3.756  -5.998  0.00  0.00    +0.052 C 
ATOM     11  C   UNL     1      -0.141  -5.746  -5.315  0.00  0.00    +0.045 C 
ATOM     12  N   UNL     1       2.393  -5.823  -3.975  0.00  0.00    -0.318 N 
ATOM     13  C   UNL     1       3.196  -6.293  -5.114  0.00  0.00    +0.088 C 
ATOM     14  C   UNL     1       4.194  -7.338  -4.607  0.00  0.00    -0.059 C 
ATOM     15  N   UNL     1       3.471  -8.401  -3.897  0.00  0.00    +0.384 N 
ATOM     16  C   UNL     1       2.829  -7.852  -2.696  0.00  0.00    -0.059 C 
ATOM     17  C   UNL     1       1.768  -6.832  -3.105  0.00  0.00    +0.088 C 
ATOM     18  H   UNL     1       2.766  -8.790  -4.505  0.00  0.00    -0.081 HD
ENDROOT
BRANCH   1  19
ATOM     19  S   UNL     1       4.327  -1.685  -1.912  0.00  0.00    -0.086 S 
BRANCH  19  20
ATOM     20  C   UNL     1       3.747   0.030  -1.790  0.00  0.00    +0.077 C 
BRANCH  20  22
ATOM     21  C   UNL     1       4.289   2.310  -0.926  0.00  0.00    +0.004 C 
ATOM     22  C   UNL     1       4.779   0.865  -1.029  0.00  0.00    +0.008 C 
ENDBRANCH  20  22
ENDBRANCH  19  20
ENDBRANCH   1  19
BRANCH  15  23
ATOM     23  C   UNL     1       4.415  -9.457  -3.506  0.00  0.00    -0.043 C 
BRANCH  23  24
ATOM     24  C   UNL     1       3.657 -10.603  -2.887  0.00  0.00    -0.061 A 
ATOM     25  C   UNL     1       3.601 -10.731  -1.512  0.00  0.00    +0.005 A 
ATOM     26  C   UNL     1       2.906 -11.783  -0.944  0.00  0.00    -0.050 A 
ATOM     27  C   UNL     1       2.268 -12.706  -1.751  0.00  0.00    +0.003 A 
ATOM     28  C   UNL     1       2.324 -12.577  -3.126  0.00  0.00    +0.004 A 
ATOM     29  C   UNL     1       3.015 -11.523  -3.694  0.00  0.00    -0.049 A 
ATOM     30  C   UNL     1       3.071 -11.380  -5.193  0.00  0.00    +0.044 C 
ATOM     31  C   UNL     1       2.845 -11.923   0.556  0.00  0.00    +0.044 C 
ENDBRANCH  23  24
ENDBRANCH  15  23
TORSDOF 5
