REMARK  Name = ZINC64160224
REMARK  8 active torsions:
REMARK  status: ('A' for Active; 'I' for Inactive)
REMARK    1  A    between atoms: C_4  and  C_7
REMARK    2  A    between atoms: C_7  and  N_8
REMARK    3  A    between atoms: N_11  and  C_12
REMARK    4  A    between atoms: C_12  and  C_13
REMARK    5  A    between atoms: N_15  and  C_16
REMARK    6  A    between atoms: C_16  and  C_17
REMARK    7  A    between atoms: C_17  and  C_19
REMARK    8  A    between atoms: C_17  and  C_25
REMARK                            x       y       z     vdW  Elec       q    Type
REMARK                         _______ _______ _______ _____ _____    ______ ____
ROOT
ATOM      1  C   UNL     1       7.196  -2.652   4.571  0.00  0.00    +0.230 C 
ATOM      2  O   UNL     1       6.381  -2.196   5.344  0.00  0.00    -0.274 OA
ATOM      3  N   UNL     1       8.299  -3.269   5.041  0.00  0.00    -0.313 N 
ATOM      4  H   UNL     1       8.951  -3.634   4.422  0.00  0.00    +0.149 HD
ENDROOT
BRANCH   1   5
ATOM      5  C   UNL     1       6.976  -2.531   3.085  0.00  0.00    +0.201 C 
BRANCH   5   9
ATOM      6  N   UNL     1       4.152  -0.952   1.338  0.00  0.00    -0.295 N 
ATOM      7  C   UNL     1       5.311  -1.601   1.569  0.00  0.00    +0.300 C 
ATOM      8  O   UNL     1       5.991  -1.982   0.636  0.00  0.00    -0.253 OA
ATOM      9  N   UNL     1       5.716  -1.826   2.834  0.00  0.00    -0.291 N 
ATOM     10  H   UNL     1       3.610  -0.648   2.082  0.00  0.00    +0.151 HD
ATOM     11  H   UNL     1       5.174  -1.522   3.579  0.00  0.00    +0.151 HD
BRANCH   6  12
ATOM     12  C   UNL     1       3.711  -0.707  -0.038  0.00  0.00    +0.141 C 
BRANCH  12  16
ATOM     13  C   UNL     1      -0.017   1.378   0.010  0.00  0.00    +0.000 A 
ATOM     14  C   UNL     1       1.171   2.086   0.002  0.00  0.00    +0.000 A 
ATOM     15  C   UNL     1       2.377   1.411  -0.013  0.00  0.00    +0.005 A 
ATOM     16  C   UNL     1       2.396   0.029  -0.020  0.00  0.00    -0.030 A 
ATOM     17  C   UNL     1       1.208  -0.679  -0.012  0.00  0.00    +0.005 A 
ATOM     18  C   UNL     1       0.002  -0.004   0.002  0.00  0.00    +0.000 A 
ENDBRANCH  12  16
ENDBRANCH   6  12
ENDBRANCH   5   9
ENDBRANCH   1   5
BRANCH   3  19
ATOM     19  C   UNL     1       8.512  -3.387   6.485  0.00  0.00    +0.116 C 
BRANCH  19  20
ATOM     20  C   UNL     1       9.828  -4.123   6.747  0.00  0.00    +0.064 C 
BRANCH  20  21
ATOM     21  C   UNL     1       9.989  -4.353   8.228  0.00  0.00    -0.033 C 
ATOM     22  C   UNL     1      10.110  -5.544   8.857  0.00  0.00    -0.000 A 
ATOM     23  C   UNL     1      10.127  -6.929   8.370  0.00  0.00    +0.010 A 
ATOM     24  C   UNL     1      10.266  -7.936   9.262  0.00  0.00    +0.001 A 
ATOM     25  C   UNL     1      10.392  -7.692  10.636  0.00  0.00    +0.002 A 
ATOM     26  C   UNL     1      10.385  -6.447  11.159  0.00  0.00    +0.026 A 
ATOM     27  C   UNL     1      10.246  -5.313  10.313  0.00  0.00    +0.043 A 
ATOM     28  N   UNL     1      10.210  -4.028  10.574  0.00  0.00    -0.380 N 
ATOM     29  C   UNL     1      10.053  -3.299   9.310  0.00  0.00    +0.145 C 
ATOM     30  H   UNL     1      10.279  -3.627  11.454  0.00  0.00    +0.160 HD
ENDBRANCH  20  21
BRANCH  20  31
ATOM     31  C   UNL     1      10.978  -3.291   6.241  0.00  0.00    -0.039 A 
ATOM     32  C   UNL     1      11.198  -2.028   6.758  0.00  0.00    +0.004 A 
ATOM     33  C   UNL     1      12.254  -1.265   6.293  0.00  0.00    +0.000 A 
ATOM     34  C   UNL     1      13.089  -1.766   5.312  0.00  0.00    +0.000 A 
ATOM     35  C   UNL     1      12.869  -3.029   4.795  0.00  0.00    +0.000 A 
ATOM     36  C   UNL     1      11.816  -3.793   5.263  0.00  0.00    +0.004 A 
ENDBRANCH  20  31
ENDBRANCH  19  20
ENDBRANCH   3  19
TORSDOF 8
