REMARK  Name = ZINC60142994
REMARK  14 active torsions:
REMARK  status: ('A' for Active; 'I' for Inactive)
REMARK    1  A    between atoms: C_1  and  C_2
REMARK    2  A    between atoms: N_5  and  C_8
REMARK    3  A    between atoms: C_8  and  C_10
REMARK    4  A    between atoms: C_8  and  C_25
REMARK    5  A    between atoms: C_10  and  N_11
REMARK    6  A    between atoms: C_12  and  C_14
REMARK    7  A    between atoms: C_14  and  C_15
REMARK    8  A    between atoms: C_14  and  C_16
REMARK    9  A    between atoms: C_14  and  N_17
REMARK   10  A    between atoms: C_18  and  O_20
REMARK   11  A    between atoms: O_20  and  C_21
REMARK   12  A    between atoms: C_21  and  C_22
REMARK   13  A    between atoms: C_21  and  C_23
REMARK   14  A    between atoms: C_21  and  C_24
REMARK                            x       y       z     vdW  Elec       q    Type
REMARK                         _______ _______ _______ _____ _____    ______ ____
ROOT
ATOM      1  N   UNL     1      -2.866  -4.098   0.201  0.00  0.00    -0.315 N 
ATOM      2  C   UNL     1      -4.169  -4.399   0.030  0.00  0.00    +0.236 C 
ATOM      3  O   UNL     1      -4.765  -5.020   0.884  0.00  0.00    -0.273 OA
ATOM      4  H   UNL     1      -2.389  -3.602  -0.482  0.00  0.00    +0.149 HD
ENDROOT
BRANCH   2   5
ATOM      5  C   UNL     1      -4.885  -3.963  -1.222  0.00  0.00    +0.108 C 
ATOM      6  C   UNL     1      -4.653  -4.995  -2.328  0.00  0.00    +0.041 C 
ATOM      7  C   UNL     1      -6.384  -3.847  -0.939  0.00  0.00    +0.041 C 
BRANCH   5   8
ATOM      8  N   UNL     1      -4.367  -2.662  -1.653  0.00  0.00    -0.268 N 
ATOM      9  C   UNL     1      -4.864  -2.072  -2.758  0.00  0.00    +0.402 C 
ATOM     10  O   UNL     1      -5.740  -2.619  -3.398  0.00  0.00    -0.226 OA
ATOM     11  H   UNL     1      -3.668  -2.225  -1.142  0.00  0.00    +0.153 HD
BRANCH   9  12
ATOM     12  O   UNL     1      -4.388  -0.876  -3.154  0.00  0.00    -0.445 OA
BRANCH  12  13
ATOM     13  C   UNL     1      -4.960  -0.309  -4.335  0.00  0.00    +0.107 C 
ATOM     14  C   UNL     1      -6.462  -0.106  -4.127  0.00  0.00    +0.055 C 
ATOM     15  C   UNL     1      -4.298   1.040  -4.624  0.00  0.00    +0.055 C 
ATOM     16  C   UNL     1      -4.731  -1.253  -5.516  0.00  0.00    +0.055 C 
ENDBRANCH  12  13
ENDBRANCH   9  12
ENDBRANCH   5   8
ENDBRANCH   2   5
BRANCH   1  17
ATOM     17  C   UNL     1      -2.170  -4.522   1.418  0.00  0.00    +0.094 C 
BRANCH  17  18
ATOM     18  C   UNL     1      -0.745  -3.965   1.411  0.00  0.00    -0.013 C 
BRANCH  18  23
ATOM     19  C   UNL     1       1.997  -4.155   6.408  0.00  0.00    +0.007 C 
ATOM     20  C   UNL     1       1.328  -3.665   5.122  0.00  0.00    -0.018 C 
ATOM     21  C   UNL     1      -0.141  -4.097   5.113  0.00  0.00    -0.015 C 
ATOM     22  C   UNL     1      -0.784  -3.674   3.790  0.00  0.00    -0.078 C 
ATOM     23  N   UNL     1      -0.077  -4.312   2.673  0.00  0.00    +0.386 N 
ATOM     24  C   UNL     1       1.314  -3.846   2.632  0.00  0.00    -0.078 C 
ATOM     25  C   UNL     1       2.037  -4.276   3.911  0.00  0.00    -0.015 C 
ATOM     26  H   UNL     1      -0.093  -5.313   2.795  0.00  0.00    -0.081 HD
ENDBRANCH  18  23
BRANCH  18  27
ATOM     27  C   UNL     1       0.021  -4.558   0.258  0.00  0.00    -0.022 A 
ATOM     28  C   UNL     1       0.299  -4.014  -0.953  0.00  0.00    +0.009 A 
ATOM     29  C   UNL     1       1.027  -4.751  -1.867  0.00  0.00    +0.008 A 
ATOM     30  C   UNL     1       1.442  -5.996  -1.527  0.00  0.00    +0.045 A 
ATOM     31  S   UNL     1       0.805  -6.157   0.133  0.00  0.00    -0.103 S 
ENDBRANCH  18  27
ENDBRANCH  17  18
ENDBRANCH   1  17
TORSDOF 8
