REMARK  Name = ZINC39012567
REMARK  8 active torsions:
REMARK  status: ('A' for Active; 'I' for Inactive)
REMARK    1  A    between atoms: C_1  and  C_2
REMARK    2  A    between atoms: C_2  and  C_3
REMARK    3  A    between atoms: C_2  and  C_4
REMARK    4  A    between atoms: C_2  and  C_5
REMARK    5  A    between atoms: C_8  and  C_11
REMARK    6  A    between atoms: N_17  and  N_18
REMARK    7  A    between atoms: C_19  and  C_20
REMARK    8  A    between atoms: C_23  and  C_26
REMARK                            x       y       z     vdW  Elec       q    Type
REMARK                         _______ _______ _______ _____ _____    ______ ____
ROOT
ATOM      1  C   UNL     1       2.717  -1.881  -4.759  0.00  0.00    +0.264 C 
ATOM      2  N   UNL     1       1.771  -1.972  -5.882  0.00  0.00    -0.189 NA
ATOM      3  N   UNL     1       2.143  -1.192  -6.762  0.00  0.00    -0.219 N 
ATOM      4  C   UNL     1       3.275  -0.510  -6.435  0.00  0.00    +0.174 C 
ATOM      5  S   UNL     1       4.047   0.644  -7.436  0.00  0.00    -0.015 S 
ATOM      6  N   UNL     1       3.703  -0.878  -5.204  0.00  0.00    -0.172 N 
ATOM      7  H   UNL     1       1.676  -1.076  -7.604  0.00  0.00    +0.176 HD
ENDROOT
BRANCH   1  11
ATOM      8  C   UNL     1       0.723  -0.556  -1.221  0.00  0.00    -0.042 A 
ATOM      9  C   UNL     1       0.053  -1.345  -2.138  0.00  0.00    +0.004 A 
ATOM     10  C   UNL     1       0.698  -1.774  -3.283  0.00  0.00    +0.008 A 
ATOM     11  C   UNL     1       2.013  -1.413  -3.511  0.00  0.00    -0.002 A 
ATOM     12  C   UNL     1       2.682  -0.623  -2.595  0.00  0.00    +0.008 A 
ATOM     13  C   UNL     1       2.035  -0.191  -1.452  0.00  0.00    +0.004 A 
BRANCH   8  15
ATOM     14  C   UNL     1      -0.013   1.441   0.052  0.00  0.00    +0.015 C 
ATOM     15  C   UNL     1       0.019  -0.089   0.027  0.00  0.00    -0.013 C 
ATOM     16  C   UNL     1       0.768  -0.604   1.258  0.00  0.00    +0.015 C 
ATOM     17  C   UNL     1      -1.412  -0.629   0.038  0.00  0.00    +0.015 C 
ENDBRANCH   8  15
ENDBRANCH   1  11
BRANCH   6  18
ATOM     18  N   UNL     1       4.826  -0.413  -4.509  0.00  0.00    -0.183 NA
ATOM     19  C   UNL     1       5.661   0.394  -5.090  0.00  0.00    +0.138 C 
BRANCH  19  20
ATOM     20  C   UNL     1       6.900   0.796  -4.399  0.00  0.00    -0.005 A 
ATOM     21  C   UNL     1       7.182   0.306  -3.121  0.00  0.00    +0.010 A 
ATOM     22  C   UNL     1       8.343   0.686  -2.481  0.00  0.00    +0.013 A 
ATOM     23  C   UNL     1       9.227   1.551  -3.101  0.00  0.00    +0.055 A 
ATOM     24  C   UNL     1       8.955   2.041  -4.366  0.00  0.00    +0.013 A 
ATOM     25  C   UNL     1       7.801   1.664  -5.021  0.00  0.00    +0.010 A 
BRANCH  23  26
ATOM     26  C   UNL     1      10.493   1.962  -2.395  0.00  0.00    +0.417 C 
ATOM     27  F   UNL     1      11.517   1.061  -2.710  0.00  0.00    -0.166 F 
ATOM     28  F   UNL     1      10.861   3.248  -2.807  0.00  0.00    -0.166 F 
ATOM     29  F   UNL     1      10.278   1.959  -1.012  0.00  0.00    -0.166 F 
ENDBRANCH  23  26
ENDBRANCH  19  20
ENDBRANCH   6  18
TORSDOF 5
