REMARK  Name = ZINC08592707
REMARK  7 active torsions:
REMARK  status: ('A' for Active; 'I' for Inactive)
REMARK    1  A    between atoms: C_1  and  O_2
REMARK    2  A    between atoms: O_2  and  C_3
REMARK    3  A    between atoms: C_6  and  C_11
REMARK    4  A    between atoms: C_8  and  O_9
REMARK    5  A    between atoms: O_9  and  C_10
REMARK    6  A    between atoms: C_17  and  C_22
REMARK    7  A    between atoms: C_24  and  C_27
REMARK                            x       y       z     vdW  Elec       q    Type
REMARK                         _______ _______ _______ _____ _____    ______ ____
ROOT
ATOM      1  C   UNL     1       2.507  -2.501  -4.386  0.00  0.00    +0.032 C 
ATOM      2  C   UNL     1       3.970  -2.073  -4.448  0.00  0.00    +0.062 C 
ATOM      3  C   UNL     1       4.649  -2.611  -5.681  0.00  0.00    +0.030 A 
ATOM      4  C   UNL     1       3.926  -2.966  -6.805  0.00  0.00    +0.037 A 
ATOM      5  C   UNL     1       4.581  -3.458  -7.958  0.00  0.00    +0.029 A 
ATOM      6  C   UNL     1       5.958  -3.587  -7.941  0.00  0.00    +0.072 A 
ATOM      7  C   UNL     1       6.676  -3.205  -6.723  0.00  0.00    +0.259 A 
ATOM      8  O   UNL     1       7.888  -3.308  -6.670  0.00  0.00    -0.267 OA
ATOM      9  N   UNL     1       5.993  -2.741  -5.663  0.00  0.00    -0.325 N 
ATOM     10  H   UNL     1       6.479  -2.491  -4.862  0.00  0.00    +0.169 HD
ATOM     11  C   UNL     1       2.459  -2.843  -6.816  0.00  0.00    +0.165 C 
ATOM     12  O   UNL     1       1.796  -3.337  -7.705  0.00  0.00    -0.292 OA
ATOM     13  C   UNL     1       1.803  -2.082  -5.684  0.00  0.00    +0.088 C 
ENDROOT
BRANCH   1  17
ATOM     14  C   UNL     1       0.606  -0.608  -1.056  0.00  0.00    +0.161 A 
ATOM     15  C   UNL     1       1.173   0.159  -2.062  0.00  0.00    +0.049 A 
ATOM     16  C   UNL     1       1.787  -0.456  -3.137  0.00  0.00    +0.008 A 
ATOM     17  C   UNL     1       1.837  -1.836  -3.212  0.00  0.00    -0.040 A 
ATOM     18  C   UNL     1       1.273  -2.606  -2.212  0.00  0.00    +0.053 A 
ATOM     19  C   UNL     1       0.662  -1.996  -1.129  0.00  0.00    +0.162 A 
BRANCH  14  21
ATOM     20  C   UNL     1      -0.017   1.425   0.010  0.00  0.00    +0.277 C 
ATOM     21  O   UNL     1       0.002  -0.004   0.002  0.00  0.00    -0.491 OA
ENDBRANCH  14  21
BRANCH  19  22
ATOM     22  O   UNL     1       0.112  -2.753  -0.142  0.00  0.00    -0.491 OA
ATOM     23  C   UNL     1       0.206  -4.171  -0.283  0.00  0.00    +0.277 C 
ENDBRANCH  19  22
ENDBRANCH   1  17
BRANCH   6  24
ATOM     24  C   UNL     1       6.686  -4.096  -9.121  0.00  0.00    +0.114 A 
ATOM     25  N   UNL     1       7.986  -4.289  -9.284  0.00  0.00    -0.239 NA
ATOM     26  C   UNL     1       8.472  -4.757 -10.419  0.00  0.00    +0.079 A 
ATOM     27  C   UNL     1       7.615  -5.048 -11.448  0.00  0.00    +0.075 A 
ATOM     28  S   UNL     1       6.046  -4.621 -10.705  0.00  0.00    -0.075 S 
BRANCH  26  29
ATOM     29  C   UNL     1       9.932  -4.965 -10.579  0.00  0.00    +0.001 A 
ATOM     30  C   UNL     1      10.441  -5.454 -11.781  0.00  0.00    +0.011 A 
ATOM     31  C   UNL     1      11.800  -5.645 -11.925  0.00  0.00    +0.020 A 
ATOM     32  C   UNL     1      12.657  -5.354 -10.878  0.00  0.00    +0.041 A 
ATOM     33  C   UNL     1      12.156  -4.869  -9.682  0.00  0.00    +0.020 A 
ATOM     34  C   UNL     1      10.800  -4.668  -9.530  0.00  0.00    +0.011 A 
ATOM     35 CL   UNL     1      14.366  -5.597 -11.065  0.00  0.00    -0.084 Cl
ENDBRANCH  26  29
ENDBRANCH   6  24
TORSDOF 5
