REMARK  Name = ZINC02349871
REMARK  14 active torsions:
REMARK  status: ('A' for Active; 'I' for Inactive)
REMARK    1  A    between atoms: C_1  and  C_2
REMARK    2  A    between atoms: C_2  and  O_3
REMARK    3  A    between atoms: O_3  and  C_4
REMARK    4  A    between atoms: C_7  and  C_10
REMARK    5  A    between atoms: N_11  and  N_12
REMARK    6  A    between atoms: C_13  and  C_15
REMARK    7  A    between atoms: C_15  and  S_16
REMARK    8  A    between atoms: S_16  and  C_17
REMARK    9  A    between atoms: C_20  and  C_28
REMARK   10  A    between atoms: N_21  and  C_22
REMARK   11  A    between atoms: C_31  and  C_34
REMARK   12  A    between atoms: C_34  and  C_35
REMARK   13  A    between atoms: C_34  and  C_36
REMARK   14  A    between atoms: C_34  and  C_37
REMARK                            x       y       z     vdW  Elec       q    Type
REMARK                         _______ _______ _______ _____ _____    ______ ____
ROOT
ATOM      1  C   UNL     1      -4.622   0.491   0.069  0.00  0.00    +0.197 A 
ATOM      2  N   UNL     1      -3.890  -0.589   0.226  0.00  0.00    -0.122 NA
ATOM      3  N   UNL     1      -2.643  -0.300   0.108  0.00  0.00    -0.128 NA
ATOM      4  C   UNL     1      -2.501   0.983  -0.132  0.00  0.00    +0.169 A 
ATOM      5  N   UNL     1      -3.764   1.532  -0.159  0.00  0.00    -0.270 N 
ENDROOT
BRANCH   5   6
ATOM      6  C   UNL     1      -4.100   2.876  -0.377  0.00  0.00    +0.051 A 
ATOM      7  C   UNL     1      -3.775   3.837   0.571  0.00  0.00    +0.026 A 
ATOM      8  C   UNL     1      -4.103   5.160   0.350  0.00  0.00    +0.002 A 
ATOM      9  C   UNL     1      -4.763   5.527  -0.807  0.00  0.00    +0.000 A 
ATOM     10  C   UNL     1      -5.094   4.571  -1.751  0.00  0.00    +0.002 A 
ATOM     11  C   UNL     1      -4.764   3.247  -1.538  0.00  0.00    +0.026 A 
ENDBRANCH   5   6
BRANCH   4  12
ATOM     12  C   UNL     1      -1.225   1.704  -0.329  0.00  0.00    +0.020 A 
ATOM     13  C   UNL     1      -1.217   2.963  -0.931  0.00  0.00    +0.012 A 
ATOM     14  C   UNL     1      -0.024   3.632  -1.107  0.00  0.00    +0.005 A 
ATOM     15  C   UNL     1       1.164   3.056  -0.694  0.00  0.00    -0.042 A 
ATOM     16  C   UNL     1       1.163   1.806  -0.100  0.00  0.00    +0.005 A 
ATOM     17  C   UNL     1      -0.023   1.126   0.082  0.00  0.00    +0.012 A 
BRANCH  15  18
ATOM     18  C   UNL     1       2.464   3.793  -0.890  0.00  0.00    -0.013 C 
ATOM     19  C   UNL     1       2.414   5.124  -0.136  0.00  0.00    +0.015 C 
ATOM     20  C   UNL     1       3.617   2.945  -0.351  0.00  0.00    +0.015 C 
ATOM     21  C   UNL     1       2.679   4.059  -2.381  0.00  0.00    +0.015 C 
ENDBRANCH  15  18
ENDBRANCH   4  12
BRANCH   1  22
ATOM     22  S   UNL     1      -6.380   0.583   0.145  0.00  0.00    -0.076 S 
BRANCH  22  23
ATOM     23  C   UNL     1      -6.771  -1.152   0.480  0.00  0.00    +0.174 C 
BRANCH  23  25
ATOM     24  N   UNL     1      -8.791  -2.535   0.837  0.00  0.00    -0.206 N 
ATOM     25  C   UNL     1      -8.265  -1.319   0.589  0.00  0.00    +0.242 C 
ATOM     26  O   UNL     1      -8.994  -0.359   0.453  0.00  0.00    -0.273 OA
ATOM     27  H   UNL     1      -8.208  -3.303   0.945  0.00  0.00    +0.177 HD
BRANCH  24  29
ATOM     28  C   UNL     1     -10.687  -3.860   1.177  0.00  0.00    +0.138 C 
ATOM     29  N   UNL     1     -10.180  -2.689   0.938  0.00  0.00    -0.188 NA
BRANCH  28  33
ATOM     30  C   UNL     1     -14.895  -4.329   1.483  0.00  0.00    +0.121 A 
ATOM     31  C   UNL     1     -14.062  -5.430   1.638  0.00  0.00    +0.046 A 
ATOM     32  C   UNL     1     -12.696  -5.283   1.540  0.00  0.00    +0.013 A 
ATOM     33  C   UNL     1     -12.148  -4.023   1.283  0.00  0.00    -0.005 A 
ATOM     34  C   UNL     1     -12.989  -2.917   1.133  0.00  0.00    +0.013 A 
ATOM     35  C   UNL     1     -14.355  -3.075   1.228  0.00  0.00    +0.046 A 
BRANCH  30  36
ATOM     36  O   UNL     1     -16.242  -4.479   1.581  0.00  0.00    -0.492 OA
BRANCH  36  38
ATOM     37  C   UNL     1     -18.518  -3.670   1.553  0.00  0.00    +0.048 C 
ATOM     38  C   UNL     1     -17.039  -3.306   1.410  0.00  0.00    +0.225 C 
ENDBRANCH  36  38
ENDBRANCH  30  36
ENDBRANCH  28  33
ENDBRANCH  24  29
ENDBRANCH  23  25
ENDBRANCH  22  23
ENDBRANCH   1  22
TORSDOF 10
