REMARK  Name = ZINC15048398
REMARK  5 active torsions:
REMARK  status: ('A' for Active; 'I' for Inactive)
REMARK    1  A    between atoms: C_1  and  C_2
REMARK    2  A    between atoms: C_5  and  O_33
REMARK    3  A    between atoms: C_18  and  C_32
REMARK    4  A    between atoms: C_19  and  O_31
REMARK    5  A    between atoms: C_22  and  C_24
REMARK                            x       y       z     vdW  Elec       q    Type
REMARK                         _______ _______ _______ _____ _____    ______ ____
ROOT
ATOM      1  C   UNL     1       1.932   2.281  -2.748  0.00  0.00    +0.012 C 
ATOM      2  C   UNL     1       0.453   2.110  -3.099  0.00  0.00    -0.026 C 
ATOM      3  C   UNL     1       0.122   0.618  -3.185  0.00  0.00    +0.010 C 
ATOM      4  C   UNL     1       0.986  -0.034  -4.266  0.00  0.00    +0.032 C 
ATOM      5  C   UNL     1       0.705   0.630  -5.615  0.00  0.00    +0.115 C 
ATOM      6  C   UNL     1       1.035   2.121  -5.528  0.00  0.00    +0.035 C 
ATOM      7  C   UNL     1       0.169   2.773  -4.448  0.00  0.00    -0.002 C 
ATOM      8  C   UNL     1       0.502   4.264  -4.359  0.00  0.00    +0.004 C 
ATOM      9  C   UNL     1      -0.369   4.914  -3.283  0.00  0.00    +0.007 C 
ATOM     10  C   UNL     1      -0.111   4.255  -1.925  0.00  0.00    +0.025 C 
ATOM     11  C   UNL     1      -0.408   2.760  -2.013  0.00  0.00    +0.001 C 
ATOM     12  C   UNL     1      -0.074   2.114  -0.663  0.00  0.00    +0.005 C 
ATOM     13  C   UNL     1      -0.993   2.708   0.404  0.00  0.00    +0.010 C 
ATOM     14  C   UNL     1      -0.822   4.207   0.498  0.00  0.00    +0.004 C 
ATOM     15  C   UNL     1      -0.982   4.921  -0.857  0.00  0.00    +0.075 C 
ATOM     16  C   UNL     1      -0.334   6.306  -0.559  0.00  0.00    +0.036 C 
ATOM     17  C   UNL     1       0.887   5.962   0.322  0.00  0.00    +0.012 C 
ATOM     18  C   UNL     1       0.573   4.610   0.994  0.00  0.00    +0.031 C 
ATOM     19  C   UNL     1      -1.871   4.749   1.471  0.00  0.00    +0.014 C 
ENDROOT
BRANCH  18  20
ATOM     20  C   UNL     1       1.590   3.576   0.583  0.00  0.00    -0.009 A 
ATOM     21  C   UNL     1       1.701   2.373   1.301  0.00  0.00    +0.014 A 
ATOM     22  C   UNL     1       2.625   1.451   0.908  0.00  0.00    +0.092 A 
ATOM     23  C   UNL     1       3.447   1.737  -0.198  0.00  0.00    +0.337 A 
ATOM     24  O   UNL     1       4.282   0.927  -0.562  0.00  0.00    -0.245 OA
ATOM     25  O   UNL     1       3.311   2.902  -0.853  0.00  0.00    -0.430 OA
ATOM     26  C   UNL     1       2.400   3.808  -0.471  0.00  0.00    +0.203 A 
ENDBRANCH  18  20
BRANCH  15  27
ATOM     27  O   UNL     1      -2.346   5.034  -1.266  0.00  0.00    -0.388 OA
ATOM     28  H   UNL     1      -2.472   5.547  -2.076  0.00  0.00    +0.210 HD
ENDBRANCH  15  27
BRANCH   5  29
ATOM     29  O   UNL     1       1.513   0.021  -6.623  0.00  0.00    -0.392 OA
ATOM     30  H   UNL     1       1.357  -0.927  -6.734  0.00  0.00    +0.210 HD
ENDBRANCH   5  29
TORSDOF 3
