REMARK  Name = ZINC19354069
REMARK  1 active torsions:
REMARK  status: ('A' for Active; 'I' for Inactive)
REMARK    1  A    between atoms: C_10  and  C_11
REMARK                            x       y       z     vdW  Elec       q    Type
REMARK                         _______ _______ _______ _____ _____    ______ ____
ROOT
ATOM      1  C   UNL     1       1.330  -1.988   0.608  0.00  0.00    +0.218 C 
ATOM      2  N   UNL     1       1.304  -0.657  -0.027  0.00  0.00    -0.337 N 
ATOM      3  C   UNL     1       0.149   0.078  -0.026  0.00  0.00    +0.159 C 
ATOM      4  N   UNL     1      -1.039  -0.500  -0.015  0.00  0.00    -0.259 N 
ATOM      5  C   UNL     1      -1.097  -1.851   0.058  0.00  0.00    +0.205 A 
ATOM      6  N   UNL     1       0.026  -2.605   0.340  0.00  0.00    -0.286 N 
ATOM      7  C   UNL     1      -0.342  -3.930   0.315  0.00  0.00    +0.076 A 
ATOM      8  C   UNL     1       0.335  -5.127   0.509  0.00  0.00    +0.077 A 
ATOM      9  C   UNL     1      -0.345  -6.325   0.409  0.00  0.00    +0.164 A 
ATOM     10  C   UNL     1      -1.705  -6.343   0.116  0.00  0.00    +0.164 A 
ATOM     11  C   UNL     1      -2.394  -5.163  -0.075  0.00  0.00    +0.079 A 
ATOM     12  C   UNL     1      -1.718  -3.943   0.022  0.00  0.00    +0.095 A 
ATOM     13  N   UNL     1      -2.118  -2.649  -0.118  0.00  0.00    -0.214 NA
ATOM     14  O   UNL     1      -2.358  -7.539   0.017  0.00  0.00    -0.488 OA
ATOM     15  C   UNL     1      -2.504  -8.274   1.234  0.00  0.00    +0.232 C 
ATOM     16  C   UNL     1      -1.261  -9.103   1.516  0.00  0.00    +0.082 C 
ATOM     17  C   UNL     1      -0.034  -8.241   1.768  0.00  0.00    +0.232 C 
ATOM     18  O   UNL     1       0.319  -7.505   0.596  0.00  0.00    -0.488 OA
ATOM     19  N   UNL     1       0.227   1.445  -0.032  0.00  0.00    -0.332 N 
ATOM     20  H   UNL     1      -0.693   2.048  -0.032  0.00  0.00    +0.145 HD
ATOM     21  H   UNL     1      -1.950   0.114  -0.065  0.00  0.00    +0.158 HD
ATOM     22  H   UNL     1       1.209   1.940  -0.037  0.00  0.00    +0.145 HD
ATOM     23  H   UNL     1       2.212  -0.256  -0.500  0.00  0.00    +0.164 HD
ENDROOT
BRANCH   1  33
ATOM     24  C   UNL     1       5.305  -0.934   3.655  0.00  0.00    +0.001 A 
ATOM     25  C   UNL     1       5.132  -1.060   2.278  0.00  0.00    +0.001 A 
ATOM     26  C   UNL     1       3.913  -1.357   1.750  0.00  0.00    +0.009 A 
ATOM     27  C   UNL     1       2.812  -1.545   2.603  0.00  0.00    -0.011 A 
ATOM     28  C   UNL     1       2.988  -1.411   4.003  0.00  0.00    -0.017 A 
ATOM     29  C   UNL     1       4.261  -1.104   4.512  0.00  0.00    +0.008 A 
ATOM     30  C   UNL     1       1.886  -1.594   4.856  0.00  0.00    +0.008 A 
ATOM     31  C   UNL     1       0.667  -1.890   4.327  0.00  0.00    +0.001 A 
ATOM     32  C   UNL     1       0.494  -2.016   2.950  0.00  0.00    +0.008 A 
ATOM     33  C   UNL     1       1.538  -1.847   2.094  0.00  0.00    +0.003 A 
ENDBRANCH   1  33
TORSDOF 1
