REMARK  Name = ZINC29494072
REMARK  5 active torsions:
REMARK  status: ('A' for Active; 'I' for Inactive)
REMARK    1  A    between atoms: C_1  and  C_2
REMARK    2  A    between atoms: C_15  and  C_17
REMARK    3  A    between atoms: C_17  and  S_18
REMARK    4  A    between atoms: S_18  and  C_19
REMARK    5  A    between atoms: N_20  and  C_21
REMARK                            x       y       z     vdW  Elec       q    Type
REMARK                         _______ _______ _______ _____ _____    ______ ____
ROOT
ATOM      1  C   UNL     1      -2.095   1.028   4.126  0.00  0.00    +0.029 C 
ATOM      2  C   UNL     1      -1.251   2.132   3.486  0.00  0.00    +0.087 C 
ATOM      3  C   UNL     1      -0.294   2.701   4.528  0.00  0.00    +0.118 C 
ATOM      4  C   UNL     1       0.793   3.492   3.851  0.00  0.00    +0.219 C 
ATOM      5  O   UNL     1       0.762   4.705   3.878  0.00  0.00    -0.275 OA
ATOM      6  N   UNL     1       1.804   2.861   3.215  0.00  0.00    -0.284 N 
ATOM      7  C   UNL     1       1.805   1.467   3.092  0.00  0.00    +0.055 A 
ATOM      8  C   UNL     1       2.938   0.729   3.392  0.00  0.00    +0.025 A 
ATOM      9  C   UNL     1       2.933  -0.642   3.211  0.00  0.00    +0.002 A 
ATOM     10  C   UNL     1       1.802  -1.278   2.733  0.00  0.00    +0.002 A 
ATOM     11  C   UNL     1       0.663  -0.549   2.442  0.00  0.00    +0.025 A 
ATOM     12  C   UNL     1       0.657   0.823   2.629  0.00  0.00    +0.058 A 
ATOM     13  N   UNL     1      -0.495   1.576   2.362  0.00  0.00    -0.266 N 
ATOM     14  C   UNL     1      -0.897   1.789   1.093  0.00  0.00    +0.230 C 
ATOM     15  O   UNL     1      -1.895   2.442   0.874  0.00  0.00    -0.274 OA
ATOM     16  H   UNL     1       2.634   3.443   2.788  0.00  0.00    +0.155 HD
ENDROOT
BRANCH  14  17
ATOM     17  C   UNL     1      -0.105   1.215  -0.054  0.00  0.00    +0.173 C 
BRANCH  17  18
ATOM     18  S   UNL     1      -0.893   1.672  -1.619  0.00  0.00    -0.084 S 
BRANCH  18  19
ATOM     19  C   UNL     1       0.207   0.894  -2.754  0.00  0.00    +0.126 C 
ATOM     20  N   UNL     1       1.238   0.229  -2.311  0.00  0.00    -0.365 N 
ATOM     21  N   UNL     1      -0.021   0.988  -4.107  0.00  0.00    -0.339 N 
ATOM     22  H   UNL     1       0.666   0.502  -4.816  0.00  0.00    +0.144 HD
ATOM     23  H   UNL     1      -0.890   1.549  -4.481  0.00  0.00    +0.144 HD
ATOM     24  H   UNL     1       1.365   0.066  -1.231  0.00  0.00    +0.162 HD
BRANCH  20  25
ATOM     25  C   UNL     1       2.228  -0.301  -3.252  0.00  0.00    +0.081 C 
ATOM     26  C   UNL     1       2.184  -1.830  -3.232  0.00  0.00    +0.024 C 
ATOM     27  C   UNL     1       3.217  -2.383  -4.216  0.00  0.00    +0.002 C 
ATOM     28  C   UNL     1       4.614  -1.907  -3.809  0.00  0.00    +0.000 C 
ATOM     29  C   UNL     1       4.658  -0.378  -3.829  0.00  0.00    +0.002 C 
ATOM     30  C   UNL     1       3.624   0.175  -2.846  0.00  0.00    +0.024 C 
ENDBRANCH  20  25
ENDBRANCH  18  19
ENDBRANCH  17  18
ENDBRANCH  14  17
TORSDOF 4
