REMARK  Name = ZINC03256328
REMARK  10 active torsions:
REMARK  status: ('A' for Active; 'I' for Inactive)
REMARK    1  A    between atoms: C_1  and  C_2
REMARK    2  A    between atoms: C_2  and  C_3
REMARK    3  A    between atoms: C_2  and  C_4
REMARK    4  A    between atoms: C_4  and  C_5
REMARK    5  A    between atoms: C_5  and  C_7
REMARK    6  A    between atoms: C_5  and  N_24
REMARK    7  A    between atoms: C_7  and  O_9
REMARK    8  A    between atoms: O_9  and  C_10
REMARK    9  A    between atoms: C_10  and  C_11
REMARK   10  A    between atoms: C_11  and  C_13
REMARK                            x       y       z     vdW  Elec       q    Type
REMARK                         _______ _______ _______ _____ _____    ______ ____
ROOT
ATOM      1  C   UNL     1      -0.818   1.818   1.058  0.00  0.00    +0.329 C 
ATOM      2  O   UNL     1      -1.742   2.564   0.835  0.00  0.00    -0.249 OA
ENDROOT
BRANCH   1   3
ATOM      3  C   UNL     1      -0.054   1.202  -0.085  0.00  0.00    +0.193 C 
BRANCH   3   4
ATOM      4  N   UNL     1      -0.621   1.661  -1.355  0.00  0.00    -0.220 N 
ATOM      5  C   UNL     1      -0.603   2.937  -1.780  0.00  0.00    +0.255 C 
ATOM      6  O   UNL     1      -0.120   3.877  -1.181  0.00  0.00    -0.270 OA
ATOM      7  C   UNL     1      -1.266   3.004  -3.100  0.00  0.00    +0.049 A 
ATOM      8  C   UNL     1      -1.534   4.025  -3.997  0.00  0.00    +0.014 A 
ATOM      9  C   UNL     1      -2.199   3.742  -5.181  0.00  0.00    +0.001 A 
ATOM     10  C   UNL     1      -2.595   2.450  -5.471  0.00  0.00    +0.001 A 
ATOM     11  C   UNL     1      -2.333   1.419  -4.582  0.00  0.00    +0.014 A 
ATOM     12  C   UNL     1      -1.669   1.686  -3.396  0.00  0.00    +0.049 A 
ATOM     13  C   UNL     1      -1.234   0.862  -2.248  0.00  0.00    +0.255 C 
ATOM     14  O   UNL     1      -1.402  -0.335  -2.131  0.00  0.00    -0.270 OA
ENDBRANCH   3   4
BRANCH   3  15
ATOM     15  C   UNL     1       1.415   1.621  -0.002  0.00  0.00    +0.037 C 
BRANCH  15  17
ATOM     16  C   UNL     1       3.640   1.467  -1.128  0.00  0.00    +0.007 C 
ATOM     17  C   UNL     1       2.205   0.936  -1.119  0.00  0.00    -0.015 C 
ATOM     18  C   UNL     1       2.221  -0.575  -0.880  0.00  0.00    +0.007 C 
ENDBRANCH  15  17
ENDBRANCH   3  15
ENDBRANCH   1   3
BRANCH   1  19
ATOM     19  O   UNL     1      -0.472   1.538   2.325  0.00  0.00    -0.455 OA
BRANCH  19  20
ATOM     20  C   UNL     1      -1.252   2.167   3.375  0.00  0.00    +0.311 C 
BRANCH  20  21
ATOM     21  C   UNL     1      -0.723   1.739   4.719  0.00  0.00    +0.200 C 
ATOM     22  O   UNL     1       0.219   0.978   4.785  0.00  0.00    -0.288 OA
BRANCH  21  23
ATOM     23  C   UNL     1      -1.348   2.242   5.949  0.00  0.00    +0.023 A 
ATOM     24  C   UNL     1      -2.432   3.126   5.875  0.00  0.00    +0.015 A 
ATOM     25  C   UNL     1      -3.022   3.593   7.029  0.00  0.00    +0.048 A 
ATOM     26  C   UNL     1      -2.536   3.200   8.268  0.00  0.00    +0.142 A 
ATOM     27  C   UNL     1      -1.450   2.323   8.350  0.00  0.00    +0.076 A 
ATOM     28  C   UNL     1      -0.857   1.845   7.200  0.00  0.00    +0.038 A 
ATOM     29  N   UNL     1      -0.974   1.939   9.613  0.00  0.00    -0.280 N 
ATOM     30  C   UNL     1      -1.748   2.157  10.698  0.00  0.00    +0.255 C 
ATOM     31  O   UNL     1      -1.346   1.860  11.803  0.00  0.00    -0.272 OA
ATOM     32  C   UNL     1      -3.115   2.771  10.530  0.00  0.00    +0.325 C 
ATOM     33  O   UNL     1      -3.109   3.660   9.410  0.00  0.00    -0.481 OA
ATOM     34  H   UNL     1      -0.102   1.524   9.705  0.00  0.00    +0.155 HD
ENDBRANCH  21  23
ENDBRANCH  20  21
ENDBRANCH  19  20
ENDBRANCH   1  19
TORSDOF 8
