REMARK  Name = ZINC64202261
REMARK  7 active torsions:
REMARK  status: ('A' for Active; 'I' for Inactive)
REMARK    1  A    between atoms: C_1  and  C_2
REMARK    2  A    between atoms: C_4  and  C_9
REMARK    3  A    between atoms: C_5  and  C_8
REMARK    4  A    between atoms: C_9  and  O_10
REMARK    5  A    between atoms: O_10  and  C_11
REMARK    6  A    between atoms: C_16  and  C_17
REMARK    7  A    between atoms: C_22  and  C_25
REMARK                            x       y       z     vdW  Elec       q    Type
REMARK                         _______ _______ _______ _____ _____    ______ ____
ROOT
ATOM      1  C   UNL     1       3.091  -1.927  -4.801  0.00  0.00    +0.250 C 
ATOM      2  O   UNL     1       3.096  -2.198  -3.616  0.00  0.00    -0.270 OA
ATOM      3  N   UNL     1       4.124  -2.299  -5.582  0.00  0.00    -0.297 N 
ATOM      4  C   UNL     1       4.178  -1.895  -6.994  0.00  0.00    +0.108 C 
ATOM      5  C   UNL     1       4.370  -3.146  -7.857  0.00  0.00    +0.027 C 
ATOM      6  C   UNL     1       5.604  -3.910  -7.374  0.00  0.00    +0.020 C 
ATOM      7  C   UNL     1       5.398  -4.352  -5.924  0.00  0.00    +0.027 C 
ATOM      8  C   UNL     1       5.221  -3.110  -5.037  0.00  0.00    +0.108 C 
ENDROOT
BRANCH   6   9
ATOM      9  C   UNL     1       5.815  -5.124  -8.243  0.00  0.00    -0.038 C 
ATOM     10  C   UNL     1       6.905  -5.408  -8.992  0.00  0.00    -0.001 A 
ATOM     11  C   UNL     1       8.171  -4.699  -9.214  0.00  0.00    +0.010 A 
ATOM     12  C   UNL     1       9.093  -5.246 -10.039  0.00  0.00    +0.001 A 
ATOM     13  C   UNL     1       8.870  -6.469 -10.686  0.00  0.00    +0.002 A 
ATOM     14  C   UNL     1       7.732  -7.179 -10.532  0.00  0.00    +0.026 A 
ATOM     15  C   UNL     1       6.694  -6.698  -9.687  0.00  0.00    +0.043 A 
ATOM     16  N   UNL     1       5.519  -7.192  -9.379  0.00  0.00    -0.380 N 
ATOM     17  C   UNL     1       4.854  -6.273  -8.449  0.00  0.00    +0.145 C 
ATOM     18  H   UNL     1       5.153  -8.027  -9.709  0.00  0.00    +0.160 HD
ENDBRANCH   6   9
BRANCH   1  24
ATOM     19  C   UNL     1       0.647  -1.682  -5.238  0.00  0.00    +0.133 A 
ATOM     20  C   UNL     1      -0.416  -0.979  -5.786  0.00  0.00    +0.046 A 
ATOM     21  C   UNL     1      -0.188   0.194  -6.476  0.00  0.00    +0.004 A 
ATOM     22  C   UNL     1       1.101   0.678  -6.628  0.00  0.00    +0.001 A 
ATOM     23  C   UNL     1       2.169  -0.006  -6.091  0.00  0.00    +0.017 A 
ATOM     24  C   UNL     1       1.952  -1.192  -5.384  0.00  0.00    +0.078 A 
BRANCH  19  25
ATOM     25  O   UNL     1       0.425  -2.835  -4.560  0.00  0.00    -0.487 OA
BRANCH  25  26
ATOM     26  C   UNL     1      -0.938  -3.215  -4.355  0.00  0.00    +0.264 C 
BRANCH  26  29
ATOM     27  C   UNL     1      -0.971  -6.364  -5.081  0.00  0.00    +0.045 C 
ATOM     28  C   UNL     1      -0.369  -5.786  -3.799  0.00  0.00    +0.176 C 
ATOM     29  C   UNL     1      -0.991  -4.445  -3.486  0.00  0.00    +0.019 C 
ATOM     30  C   UNL     1      -1.588  -4.543  -2.316  0.00  0.00    +0.041 C 
ATOM     31  N   UNL     1      -1.443  -5.813  -1.788  0.00  0.00    -0.269 N 
ATOM     32  O   UNL     1      -0.690  -6.622  -2.677  0.00  0.00    -0.267 OA
ATOM     33  C   UNL     1      -2.331  -3.419  -1.641  0.00  0.00    +0.065 C 
ATOM     34  H   UNL     1      -1.803  -6.107  -0.936  0.00  0.00    +0.194 HD
ENDBRANCH  26  29
ENDBRANCH  25  26
ENDBRANCH  19  25
ENDBRANCH   1  24
TORSDOF 5
