REMARK  Name = ZINC33707088
REMARK  15 active torsions:
REMARK  status: ('A' for Active; 'I' for Inactive)
REMARK    1  A    between atoms: C_1  and  C_2
REMARK    2  A    between atoms: C_2  and  N_3
REMARK    3  A    between atoms: N_3  and  C_4
REMARK    4  A    between atoms: C_4  and  C_5
REMARK    5  A    between atoms: C_6  and  C_8
REMARK    6  A    between atoms: C_11  and  C_13
REMARK    7  A    between atoms: C_13  and  N_14
REMARK    8  A    between atoms: N_14  and  C_15
REMARK    9  A    between atoms: N_14  and  C_30
REMARK   10  A    between atoms: C_15  and  C_16
REMARK   11  A    between atoms: C_16  and  C_17
REMARK   12  A    between atoms: C_17  and  C_18
REMARK   13  A    between atoms: C_17  and  C_24
REMARK   14  A    between atoms: C_30  and  C_31
REMARK   15  A    between atoms: C_34  and  C_37
REMARK                            x       y       z     vdW  Elec       q    Type
REMARK                         _______ _______ _______ _____ _____    ______ ____
ROOT
ATOM      1  N   UNL     1       1.225   6.732  -2.358  0.00  0.00    +0.386 N 
ATOM      2  H   UNL     1       0.290   6.770  -2.935  0.00  0.00    -0.081 HD
ENDROOT
BRANCH   1   3
ATOM      3  C   UNL     1       0.939   7.216  -1.001  0.00  0.00    -0.014 C 
BRANCH   3   7
ATOM      4  C   UNL     1      -2.017   5.856   0.830  0.00  0.00    +0.133 A 
ATOM      5  C   UNL     1      -2.877   5.883  -0.238  0.00  0.00    +0.079 A 
ATOM      6  S   UNL     1      -1.856   6.518  -1.489  0.00  0.00    -0.082 S 
ATOM      7  C   UNL     1      -0.406   6.700  -0.557  0.00  0.00    +0.063 A 
ATOM      8  N   UNL     1      -0.770   6.285   0.628  0.00  0.00    -0.241 NA
BRANCH   4  10
ATOM      9  N   UNL     1      -1.640   5.501   3.218  0.00  0.00    -0.297 N 
ATOM     10  C   UNL     1      -2.454   5.376   2.151  0.00  0.00    +0.265 C 
ATOM     11  O   UNL     1      -3.551   4.866   2.281  0.00  0.00    -0.268 OA
BRANCH   9  13
ATOM     12  C   UNL     1      -2.813   5.948   5.317  0.00  0.00    +0.024 C 
ATOM     13  C   UNL     1      -2.025   4.918   4.506  0.00  0.00    +0.105 C 
ENDBRANCH   9  13
BRANCH   9  14
ATOM     14  C   UNL     1      -0.368   6.215   3.088  0.00  0.00    +0.105 C 
ATOM     15  C   UNL     1       0.703   5.258   2.559  0.00  0.00    +0.024 C 
ENDBRANCH   9  14
ENDBRANCH   4  10
ENDBRANCH   3   7
ENDBRANCH   1   3
BRANCH   1  16
ATOM     16  C   UNL     1       2.205   7.597  -3.029  0.00  0.00    -0.077 C 
BRANCH  16  17
ATOM     17  C   UNL     1       2.292   7.216  -4.508  0.00  0.00    -0.006 C 
BRANCH  17  18
ATOM     18  C   UNL     1       3.313   8.117  -5.207  0.00  0.00    +0.047 C 
BRANCH  18  19
ATOM     19  C   UNL     1       4.686   7.851  -4.646  0.00  0.00    -0.040 A 
ATOM     20  C   UNL     1       5.523   8.906  -4.338  0.00  0.00    +0.004 A 
ATOM     21  C   UNL     1       6.780   8.662  -3.818  0.00  0.00    +0.000 A 
ATOM     22  C   UNL     1       7.204   7.362  -3.616  0.00  0.00    +0.000 A 
ATOM     23  C   UNL     1       6.369   6.306  -3.929  0.00  0.00    +0.000 A 
ATOM     24  C   UNL     1       5.110   6.551  -4.444  0.00  0.00    +0.004 A 
ENDBRANCH  18  19
BRANCH  18  25
ATOM     25  C   UNL     1       3.310   7.826  -6.686  0.00  0.00    -0.040 A 
ATOM     26  C   UNL     1       3.511   6.535  -7.137  0.00  0.00    +0.004 A 
ATOM     27  C   UNL     1       3.504   6.267  -8.493  0.00  0.00    +0.000 A 
ATOM     28  C   UNL     1       3.305   7.292  -9.399  0.00  0.00    +0.000 A 
ATOM     29  C   UNL     1       3.109   8.584  -8.948  0.00  0.00    +0.000 A 
ATOM     30  C   UNL     1       3.111   8.851  -7.592  0.00  0.00    +0.004 A 
ENDBRANCH  18  25
ENDBRANCH  17  18
ENDBRANCH  16  17
ENDBRANCH   1  16
BRANCH   1  31
ATOM     31  C   UNL     1       1.684   5.337  -2.333  0.00  0.00    -0.042 C 
BRANCH  31  32
ATOM     32  C   UNL     1       0.498   4.421  -2.171  0.00  0.00    -0.064 A 
ATOM     33  C   UNL     1       0.156   3.949  -0.918  0.00  0.00    +0.002 A 
ATOM     34  C   UNL     1      -0.935   3.113  -0.769  0.00  0.00    +0.003 A 
ATOM     35  C   UNL     1      -1.676   2.740  -1.874  0.00  0.00    -0.050 A 
ATOM     36  C   UNL     1      -1.331   3.209  -3.128  0.00  0.00    +0.003 A 
ATOM     37  C   UNL     1      -0.243   4.049  -3.277  0.00  0.00    +0.002 A 
ATOM     38  C   UNL     1      -2.862   1.825  -1.712  0.00  0.00    +0.044 C 
ENDBRANCH  31  32
ENDBRANCH   1  31
TORSDOF 12
