REMARK  Name = ZINC20695760
REMARK  5 active torsions:
REMARK  status: ('A' for Active; 'I' for Inactive)
REMARK    1  A    between atoms: C_1  and  C_2
REMARK    2  A    between atoms: N_4  and  C_5
REMARK    3  A    between atoms: N_4  and  C_6
REMARK    4  A    between atoms: C_19  and  C_22
REMARK    5  A    between atoms: C_27  and  O_28
REMARK                            x       y       z     vdW  Elec       q    Type
REMARK                         _______ _______ _______ _____ _____    ______ ____
ROOT
ATOM      1  C   UNL     1       3.716  -0.928   0.242  0.00  0.00    +0.036 A 
ATOM      2  C   UNL     1       2.800   0.084  -0.015  0.00  0.00    +0.025 A 
ATOM      3  C   UNL     1       1.450  -0.203  -0.024  0.00  0.00    +0.025 A 
ATOM      4  C   UNL     1       1.012  -1.498   0.223  0.00  0.00    +0.031 A 
ATOM      5  C   UNL     1       1.920  -2.514   0.477  0.00  0.00    -0.018 A 
ATOM      6  C   UNL     1       3.276  -2.219   0.485  0.00  0.00    +0.029 A 
ATOM      7  C   UNL     1       1.492  -3.922   0.745  0.00  0.00    +0.049 C 
ATOM      8  C   UNL     1       1.622  -4.269   2.209  0.00  0.00    -0.023 C 
ATOM      9  C   UNL     1       0.642  -5.057   2.578  0.00  0.00    -0.030 C 
ATOM     10  C   UNL     1      -0.275  -5.349   1.406  0.00  0.00    +0.033 C 
ATOM     11  C   UNL     1      -0.000  -4.166   0.446  0.00  0.00    +0.029 C 
ATOM     12  C   UNL     1      -0.832  -2.975   0.930  0.00  0.00    +0.108 C 
ATOM     13  N   UNL     1      -0.363  -1.769   0.217  0.00  0.00    -0.336 N 
ATOM     14  H   UNL     1      -1.087  -1.118  -0.296  0.00  0.00    +0.147 HD
ENDROOT
BRANCH  12  15
ATOM     15  C   UNL     1      -0.665  -2.815   2.419  0.00  0.00    +0.015 A 
ATOM     16  C   UNL     1       0.402  -2.094   2.921  0.00  0.00    +0.024 A 
ATOM     17  C   UNL     1       0.556  -1.947   4.288  0.00  0.00    +0.018 A 
ATOM     18  C   UNL     1      -0.357  -2.521   5.155  0.00  0.00    +0.019 A 
ATOM     19  C   UNL     1      -1.424  -3.242   4.657  0.00  0.00    +0.047 A 
ATOM     20  C   UNL     1      -1.585  -3.385   3.286  0.00  0.00    +0.122 A 
ATOM     21 BR   UNL     1       2.018  -0.961   4.973  0.00  0.00    -0.050 Br
BRANCH  20  22
ATOM     22  O   UNL     1      -2.638  -4.090   2.794  0.00  0.00    -0.506 OA
ATOM     23  H   UNL     1      -3.367  -4.542   3.483  0.00  0.00    +0.292 HD
ENDBRANCH  20  22
ENDBRANCH  12  15
BRANCH   1  27
ATOM     24  C   UNL     1       6.983   0.933   0.049  0.00  0.00    +0.109 C 
ATOM     25  C   UNL     1       5.512   0.634   0.178  0.00  0.00    +0.216 C 
ATOM     26  O   UNL     1       4.709   1.542   0.213  0.00  0.00    -0.276 OA
ATOM     27  N   UNL     1       5.088  -0.643   0.254  0.00  0.00    -0.275 N 
ATOM     28  C   UNL     1       6.062  -1.733   0.350  0.00  0.00    +0.138 C 
ENDBRANCH   1  27
TORSDOF 3
