REMARK  Name = ZINC13668866
REMARK  14 active torsions:
REMARK  status: ('A' for Active; 'I' for Inactive)
REMARK    1  A    between atoms: C_1  and  C_2
REMARK    2  A    between atoms: C_5  and  S_8
REMARK    3  A    between atoms: S_8  and  N_11
REMARK    4  A    between atoms: N_11  and  C_12
REMARK    5  A    between atoms: N_11  and  C_29
REMARK    6  A    between atoms: C_12  and  C_13
REMARK    7  A    between atoms: N_15  and  C_16
REMARK    8  A    between atoms: C_16  and  C_18
REMARK    9  A    between atoms: C_16  and  C_19
REMARK   10  A    between atoms: C_22  and  C_25
REMARK   11  A    between atoms: C_25  and  C_26
REMARK   12  A    between atoms: C_25  and  C_27
REMARK   13  A    between atoms: C_25  and  C_28
REMARK   14  A    between atoms: C_34  and  C_35
REMARK                            x       y       z     vdW  Elec       q    Type
REMARK                         _______ _______ _______ _____ _____    ______ ____
ROOT
ATOM      1  N   UNL     1      -2.655   0.916   0.362  0.00  0.00    -0.194 N 
ENDROOT
BRANCH   1   2
ATOM      2  C   UNL     1      -1.541   1.673   0.734  0.00  0.00    +0.055 A 
ATOM      3  C   UNL     1      -1.681   3.029   1.005  0.00  0.00    +0.026 A 
ATOM      4  C   UNL     1      -0.579   3.773   1.377  0.00  0.00    +0.022 A 
ATOM      5  C   UNL     1       0.663   3.172   1.476  0.00  0.00    +0.041 A 
ATOM      6  C   UNL     1       0.806   1.824   1.201  0.00  0.00    +0.025 A 
ATOM      7  C   UNL     1      -0.292   1.074   0.828  0.00  0.00    -0.026 A 
ATOM      8  C   UNL     1      -0.136  -0.395   0.529  0.00  0.00    +0.046 C 
ATOM      9 CL   UNL     1       2.046   4.112   1.946  0.00  0.00    -0.084 Cl
ENDBRANCH   1   2
BRANCH   1  10
ATOM     10  S   UNL     1      -3.011   0.698  -1.241  0.00  0.00    +0.075 S 
ATOM     11  O   UNL     1      -4.406   0.440  -1.316  0.00  0.00    -0.150 OA
ATOM     12  O   UNL     1      -2.396   1.770  -1.943  0.00  0.00    -0.150 OA
BRANCH  10  17
ATOM     13  C   UNL     1      -0.226  -4.351  -3.018  0.00  0.00    +0.044 C 
ATOM     14  C   UNL     1      -0.922  -3.090  -2.574  0.00  0.00    -0.050 A 
ATOM     15  C   UNL     1      -2.137  -3.165  -1.920  0.00  0.00    +0.005 A 
ATOM     16  C   UNL     1      -2.775  -2.008  -1.513  0.00  0.00    +0.029 A 
ATOM     17  C   UNL     1      -2.197  -0.776  -1.760  0.00  0.00    +0.109 A 
ATOM     18  C   UNL     1      -0.984  -0.702  -2.418  0.00  0.00    +0.029 A 
ATOM     19  C   UNL     1      -0.344  -1.859  -2.821  0.00  0.00    +0.005 A 
ENDBRANCH  10  17
ENDBRANCH   1  10
BRANCH   1  20
ATOM     20  C   UNL     1      -3.508   0.314   1.390  0.00  0.00    +0.227 C 
BRANCH  20  21
ATOM     21  C   UNL     1      -4.541   1.317   1.836  0.00  0.00    +0.233 C 
ATOM     22  O   UNL     1      -4.639   2.381   1.263  0.00  0.00    -0.274 OA
ATOM     23  N   UNL     1      -5.354   1.031   2.872  0.00  0.00    -0.307 N 
ATOM     24  H   UNL     1      -5.276   0.180   3.330  0.00  0.00    +0.149 HD
BRANCH  23  25
ATOM     25  C   UNL     1      -6.358   2.006   3.305  0.00  0.00    +0.100 C 
ATOM     26  C   UNL     1      -7.622   1.848   2.458  0.00  0.00    +0.033 C 
BRANCH  25  27
ATOM     27  C   UNL     1      -6.693   1.771   4.756  0.00  0.00    -0.027 A 
ATOM     28  C   UNL     1      -6.818   0.481   5.236  0.00  0.00    +0.006 A 
ATOM     29  C   UNL     1      -7.120   0.266   6.568  0.00  0.00    +0.004 A 
ATOM     30  C   UNL     1      -7.307   1.341   7.417  0.00  0.00    -0.042 A 
ATOM     31  C   UNL     1      -7.187   2.631   6.935  0.00  0.00    +0.004 A 
ATOM     32  C   UNL     1      -6.880   2.846   5.605  0.00  0.00    +0.006 A 
BRANCH  30  33
ATOM     33  C   UNL     1      -7.642   1.106   8.867  0.00  0.00    -0.013 C 
ATOM     34  C   UNL     1      -8.994   1.747   9.188  0.00  0.00    +0.015 C 
ATOM     35  C   UNL     1      -7.715  -0.398   9.137  0.00  0.00    +0.015 C 
ATOM     36  C   UNL     1      -6.559   1.730   9.749  0.00  0.00    +0.015 C 
ENDBRANCH  30  33
ENDBRANCH  25  27
ENDBRANCH  23  25
ENDBRANCH  20  21
ENDBRANCH   1  20
TORSDOF 8
