REMARK  Name = ZINC12532457
REMARK  9 active torsions:
REMARK  status: ('A' for Active; 'I' for Inactive)
REMARK    1  A    between atoms: C_1  and  N_64
REMARK    2  A    between atoms: C_2  and  C_3
REMARK    3  A    between atoms: C_2  and  N_64
REMARK    4  A    between atoms: C_6  and  S_9
REMARK    5  A    between atoms: S_9  and  C_10
REMARK    6  A    between atoms: C_11  and  C_12
REMARK    7  A    between atoms: C_11  and  N_64
REMARK    8  A    between atoms: C_15  and  C_30
REMARK    9  A    between atoms: C_18  and  C_20
REMARK                            x       y       z     vdW  Elec       q    Type
REMARK                         _______ _______ _______ _____ _____    ______ ____
ROOT
ATOM      1  C   UNL     1       4.328  -1.926  -0.048  0.00  0.00    +0.219 C 
ATOM      2  O   UNL     1       5.512  -2.188  -0.060  0.00  0.00    -0.276 OA
ATOM      3  N   UNL     1       3.922  -0.641  -0.038  0.00  0.00    -0.187 N 
ATOM      4  C   UNL     1       4.806   0.536  -0.040  0.00  0.00    +0.137 C 
ATOM      5  C   UNL     1       3.825   1.725  -0.031  0.00  0.00    +0.087 C 
ATOM      6  C   UNL     1       2.462   1.072  -0.015  0.00  0.00    +0.069 C 
ATOM      7  N   UNL     1       2.598  -0.209  -0.024  0.00  0.00    -0.181 NA
ENDROOT
BRANCH   6   8
ATOM      8  C   UNL     1       1.175   1.791   0.001  0.00  0.00    -0.002 A 
ATOM      9  C   UNL     1       1.160   3.198   0.008  0.00  0.00    +0.010 A 
ATOM     10  C   UNL     1      -0.012   3.882   0.023  0.00  0.00    +0.009 A 
ATOM     11  C   UNL     1      -1.234   3.185   0.030  0.00  0.00    -0.018 A 
ATOM     12  C   UNL     1      -2.459   3.871   0.044  0.00  0.00    +0.008 A 
ATOM     13  C   UNL     1      -3.626   3.170   0.035  0.00  0.00    +0.001 A 
ATOM     14  C   UNL     1      -3.626   1.776   0.028  0.00  0.00    +0.001 A 
ATOM     15  C   UNL     1      -2.459   1.076   0.019  0.00  0.00    +0.008 A 
ATOM     16  C   UNL     1      -1.233   1.767   0.018  0.00  0.00    -0.017 A 
ATOM     17  C   UNL     1      -0.013   1.076   0.008  0.00  0.00    +0.018 A 
ENDBRANCH   6   8
BRANCH   4  18
ATOM     18  C   UNL     1       5.652   0.562  -1.287  0.00  0.00    -0.025 A 
ATOM     19  C   UNL     1       5.111   0.171  -2.497  0.00  0.00    +0.005 A 
ATOM     20  C   UNL     1       5.885   0.200  -3.642  0.00  0.00    +0.000 A 
ATOM     21  C   UNL     1       7.204   0.610  -3.575  0.00  0.00    +0.000 A 
ATOM     22  C   UNL     1       7.746   0.996  -2.363  0.00  0.00    +0.000 A 
ATOM     23  C   UNL     1       6.970   0.972  -1.219  0.00  0.00    +0.005 A 
ENDBRANCH   4  18
BRANCH   1  24
ATOM     24  C   UNL     1       3.310  -3.037  -0.044  0.00  0.00    +0.021 C 
BRANCH  24  26
ATOM     25  C   UNL     1       4.751  -4.543   1.188  0.00  0.00    -0.095 C 
ATOM     26  N   UNL     1       4.020  -4.334  -0.079  0.00  0.00    +0.386 N 
ATOM     27  H   UNL     1       4.692  -4.325  -0.855  0.00  0.00    -0.081 HD
BRANCH  26  28
ATOM     28  C   UNL     1       3.054  -5.432  -0.292  0.00  0.00    -0.043 C 
BRANCH  28  29
ATOM     29  C   UNL     1       3.817  -6.708  -0.543  0.00  0.00    -0.064 A 
ATOM     30  C   UNL     1       4.175  -7.055  -1.833  0.00  0.00    +0.003 A 
ATOM     31  C   UNL     1       4.879  -8.220  -2.066  0.00  0.00    +0.015 A 
ATOM     32  C   UNL     1       5.217  -9.050  -1.003  0.00  0.00    +0.008 A 
ATOM     33  C   UNL     1       4.851  -8.700   0.291  0.00  0.00    +0.015 A 
ATOM     34  C   UNL     1       4.152  -7.531   0.517  0.00  0.00    +0.003 A 
BRANCH  32  35
ATOM     35  S   UNL     1       6.110 -10.540  -1.296  0.00  0.00    -0.129 S 
ATOM     36  C   UNL     1       6.352 -10.561  -3.094  0.00  0.00    +0.090 C 
ENDBRANCH  32  35
ENDBRANCH  28  29
ENDBRANCH  26  28
ENDBRANCH  24  26
ENDBRANCH   1  24
TORSDOF 7
