REMARK  Name = ZINC63515508
REMARK  12 active torsions:
REMARK  status: ('A' for Active; 'I' for Inactive)
REMARK    1  A    between atoms: C_1  and  C_2
REMARK    2  A    between atoms: C_4  and  C_14
REMARK    3  A    between atoms: C_7  and  O_12
REMARK    4  A    between atoms: O_12  and  C_13
REMARK    5  A    between atoms: C_14  and  C_15
REMARK    6  A    between atoms: C_15  and  N_16
REMARK    7  A    between atoms: N_16  and  S_17
REMARK    8  A    between atoms: S_17  and  C_20
REMARK    9  A    between atoms: C_22  and  O_29
REMARK   10  A    between atoms: C_25  and  O_26
REMARK   11  A    between atoms: O_26  and  C_27
REMARK   12  A    between atoms: O_29  and  C_30
REMARK                            x       y       z     vdW  Elec       q    Type
REMARK                         _______ _______ _______ _____ _____    ______ ____
ROOT
ATOM      1  N   UNL     1       1.013  -0.313  -5.128  0.00  0.00    -0.190 NA
ATOM      2  H   UNL     1       1.249   0.489  -5.621  0.00  0.00    +0.148 HD
ENDROOT
BRANCH   1   3
ATOM      3  S   UNL     1       0.192  -1.537  -5.882  0.00  0.00    +0.062 S 
ATOM      4  O   UNL     1      -0.066  -1.096  -7.208  0.00  0.00    -0.153 OA
ATOM      5  O   UNL     1       0.902  -2.735  -5.603  0.00  0.00    -0.153 OA
BRANCH   3   6
ATOM      6  C   UNL     1      -1.374  -1.681  -5.086  0.00  0.00    +0.150 A 
ATOM      7  C   UNL     1      -2.525  -1.313  -5.755  0.00  0.00    +0.079 A 
ATOM      8  C   UNL     1      -3.757  -1.426  -5.129  0.00  0.00    +0.140 A 
ATOM      9  C   UNL     1      -3.834  -1.911  -3.831  0.00  0.00    +0.086 A 
ATOM     10  C   UNL     1      -2.682  -2.280  -3.162  0.00  0.00    +0.071 A 
ATOM     11  C   UNL     1      -1.450  -2.171  -3.791  0.00  0.00    +0.148 A 
ATOM     12 CL   UNL     1      -5.376  -2.053  -3.046  0.00  0.00    -0.080 Cl
BRANCH  11  13
ATOM     13  O   UNL     1      -0.317  -2.538  -3.135  0.00  0.00    -0.493 OA
ATOM     14  C   UNL     1      -0.478  -3.137  -1.848  0.00  0.00    +0.277 C 
ENDBRANCH  11  13
BRANCH   8  15
ATOM     15  O   UNL     1      -4.890  -1.062  -5.787  0.00  0.00    -0.494 OA
ATOM     16  C   UNL     1      -4.737  -0.572  -7.120  0.00  0.00    +0.277 C 
ENDBRANCH   8  15
ENDBRANCH   3   6
ENDBRANCH   1   3
BRANCH   1  17
ATOM     17  C   UNL     1       1.384  -0.440  -3.716  0.00  0.00    +0.110 C 
BRANCH  17  18
ATOM     18  C   UNL     1       0.330   0.250  -2.848  0.00  0.00    +0.050 C 
BRANCH  18  21
ATOM     19  C   UNL     1       0.034   2.413  -0.452  0.00  0.00    +0.035 C 
ATOM     20  C   UNL     1       0.090   0.899  -0.237  0.00  0.00    +0.103 C 
ATOM     21  C   UNL     1       0.774   0.231  -1.408  0.00  0.00    -0.037 C 
ATOM     22  C   UNL     1       1.865  -0.387  -0.903  0.00  0.00    +0.003 A 
ATOM     23  C   UNL     1       2.925  -1.195  -1.515  0.00  0.00    +0.055 A 
ATOM     24  C   UNL     1       3.916  -1.696  -0.739  0.00  0.00    +0.121 A 
ATOM     25  C   UNL     1       3.969  -1.470   0.648  0.00  0.00    +0.047 A 
ATOM     26  C   UNL     1       3.041  -0.740   1.302  0.00  0.00    +0.029 A 
ATOM     27  C   UNL     1       1.923  -0.149   0.558  0.00  0.00    +0.043 A 
ATOM     28  N   UNL     1       0.907   0.586   0.941  0.00  0.00    -0.378 N 
ATOM     29  H   UNL     1       0.726   0.875   1.849  0.00  0.00    +0.160 HD
BRANCH  24  30
ATOM     30  O   UNL     1       4.891  -2.443  -1.320  0.00  0.00    -0.495 OA
ATOM     31  C   UNL     1       5.916  -2.952  -0.464  0.00  0.00    +0.277 C 
ENDBRANCH  24  30
ENDBRANCH  18  21
ENDBRANCH  17  18
ENDBRANCH   1  17
TORSDOF 8
