REMARK  Name = ZINC01246204
REMARK  7 active torsions:
REMARK  status: ('A' for Active; 'I' for Inactive)
REMARK    1  A    between atoms: C_1  and  C_2
REMARK    2  A    between atoms: C_11  and  O_13
REMARK    3  A    between atoms: O_13  and  C_14
REMARK    4  A    between atoms: C_14  and  C_15
REMARK    5  A    between atoms: N_17  and  N_18
REMARK    6  A    between atoms: C_19  and  C_20
REMARK    7  A    between atoms: C_25  and  O_26
REMARK                            x       y       z     vdW  Elec       q    Type
REMARK                         _______ _______ _______ _____ _____    ______ ____
ROOT
ATOM      1  C   UNL     1      -1.044  -2.161   0.000  0.00  0.00    +0.270 C 
ATOM      2  O   UNL     1       0.083  -2.610  -0.013  0.00  0.00    -0.270 OA
ATOM      3  N   UNL     1      -2.102  -2.997   0.006  0.00  0.00    -0.204 N 
ATOM      4  H   UNL     1      -3.003  -2.638   0.017  0.00  0.00    +0.177 HD
ENDROOT
BRANCH   3   5
ATOM      5  N   UNL     1      -1.900  -4.383  -0.003  0.00  0.00    -0.188 NA
ATOM      6  C   UNL     1      -2.918  -5.188   0.002  0.00  0.00    +0.142 C 
BRANCH   6   7
ATOM      7  C   UNL     1      -2.705  -6.646  -0.008  0.00  0.00    +0.038 A 
ATOM      8  C   UNL     1      -3.799  -7.515  -0.002  0.00  0.00    +0.028 A 
ATOM      9  C   UNL     1      -3.593  -8.880  -0.011  0.00  0.00    +0.020 A 
ATOM     10  C   UNL     1      -2.306  -9.391  -0.026  0.00  0.00    +0.034 A 
ATOM     11  C   UNL     1      -1.216  -8.541  -0.032  0.00  0.00    +0.061 A 
ATOM     12  C   UNL     1      -1.405  -7.168  -0.029  0.00  0.00    +0.139 A 
ATOM     13 BR   UNL     1       0.537  -9.252  -0.051  0.00  0.00    -0.046 Br
ATOM     14 BR   UNL     1      -5.074 -10.055  -0.004  0.00  0.00    -0.050 Br
BRANCH  12  15
ATOM     15  O   UNL     1      -0.335  -6.332  -0.040  0.00  0.00    -0.505 OA
ATOM     16  H   UNL     1      -0.012  -6.093   0.840  0.00  0.00    +0.292 HD
ENDBRANCH  12  15
ENDBRANCH   6   7
ENDBRANCH   3   5
BRANCH   1  17
ATOM     17  C   UNL     1      -1.262  -0.670   0.011  0.00  0.00    +0.326 C 
BRANCH  17  18
ATOM     18  O   UNL     1       0.002  -0.004   0.002  0.00  0.00    -0.483 OA
BRANCH  18  29
ATOM     19  C   UNL     1      -1.379   6.350   0.048  0.00  0.00    +0.045 C 
ATOM     20  C   UNL     1      -0.082   5.583   0.032  0.00  0.00    -0.033 A 
ATOM     21  C   UNL     1       1.112   6.231   0.025  0.00  0.00    +0.096 A 
ATOM     22  C   UNL     1       2.312   5.490   0.009  0.00  0.00    +0.337 A 
ATOM     23  O   UNL     1       3.375   6.083   0.003  0.00  0.00    -0.245 OA
ATOM     24  O   UNL     1       2.312   4.148   0.002  0.00  0.00    -0.422 OA
ATOM     25  C   UNL     1       1.160   3.443   0.009  0.00  0.00    +0.143 A 
ATOM     26  C   UNL     1      -0.075   4.119   0.024  0.00  0.00    +0.021 A 
ATOM     27  C   UNL     1      -1.271   3.392   0.032  0.00  0.00    +0.015 A 
ATOM     28  C   UNL     1      -1.236   2.028   0.019  0.00  0.00    +0.046 A 
ATOM     29  C   UNL     1      -0.016   1.353   0.009  0.00  0.00    +0.125 A 
ATOM     30  C   UNL     1       1.177   2.057   0.002  0.00  0.00    +0.092 A 
ENDBRANCH  18  29
ENDBRANCH  17  18
ENDBRANCH   1  17
TORSDOF 6
