REMARK  Name = ZINC28058471
REMARK  4 active torsions:
REMARK  status: ('A' for Active; 'I' for Inactive)
REMARK    1  A    between atoms: C_1  and  O_2
REMARK    2  A    between atoms: O_2  and  C_3
REMARK    3  A    between atoms: C_8  and  C_9
REMARK    4  A    between atoms: C_20  and  C_22
REMARK                            x       y       z     vdW  Elec       q    Type
REMARK                         _______ _______ _______ _____ _____    ______ ____
ROOT
ATOM      1  C   UNL     1       2.156  -1.361   0.013  0.00  0.00    +0.177 C 
ATOM      2  C   UNL     1       3.634  -1.490   0.287  0.00  0.00    +0.026 C 
ATOM      3  C   UNL     1       4.459  -0.441   0.261  0.00  0.00    +0.050 C 
ATOM      4  C   UNL     1       5.902  -0.672   0.510  0.00  0.00    +0.039 A 
ATOM      5  C   UNL     1       6.761   0.374   0.825  0.00  0.00    +0.033 A 
ATOM      6  C   UNL     1       8.100   0.113   1.048  0.00  0.00    +0.042 A 
ATOM      7  C   UNL     1       8.583  -1.182   0.960  0.00  0.00    +0.023 A 
ATOM      8  C   UNL     1       7.734  -2.228   0.646  0.00  0.00    +0.048 A 
ATOM      9  C   UNL     1       6.393  -1.981   0.420  0.00  0.00    +0.131 A 
ATOM     10  O   UNL     1       5.528  -2.980   0.111  0.00  0.00    -0.479 OA
ATOM     11  C   UNL     1       4.193  -2.859   0.600  0.00  0.00    +0.234 C 
ATOM     12 CL   UNL     1       9.181   1.413   1.442  0.00  0.00    -0.084 Cl
ATOM     13  N   UNL     1       4.009   0.858  -0.002  0.00  0.00    -0.282 N 
ATOM     14  C   UNL     1       2.641   1.076   0.032  0.00  0.00    +0.240 A 
ATOM     15  N   UNL     1       1.761   0.040   0.046  0.00  0.00    -0.201 N 
ATOM     16  N   UNL     1       0.498   0.628   0.092  0.00  0.00    -0.042 NA
ATOM     17  N   UNL     1       0.686   1.908   0.098  0.00  0.00    -0.021 NA
ATOM     18  N   UNL     1       1.947   2.176   0.061  0.00  0.00    -0.092 NA
ATOM     19  H   UNL     1       4.732   1.657  -0.223  0.00  0.00    +0.155 HD
ENDROOT
BRANCH  11  20
ATOM     20  C   UNL     1       4.189  -3.069   2.092  0.00  0.00    -0.002 A 
ATOM     21  C   UNL     1       3.236  -3.885   2.673  0.00  0.00    +0.009 A 
ATOM     22  C   UNL     1       3.231  -4.078   4.041  0.00  0.00    +0.022 A 
ATOM     23  C   UNL     1       4.181  -3.455   4.831  0.00  0.00    +0.059 A 
ATOM     24  C   UNL     1       5.136  -2.639   4.249  0.00  0.00    +0.060 A 
ATOM     25  C   UNL     1       5.143  -2.451   2.879  0.00  0.00    +0.029 A 
ATOM     26 CL   UNL     1       6.329  -1.857   5.239  0.00  0.00    -0.082 Cl
ATOM     27 CL   UNL     1       4.176  -3.697   6.550  0.00  0.00    -0.082 Cl
ENDBRANCH  11  20
BRANCH   1  33
ATOM     28  C   UNL     1       0.975  -3.005  -1.466  0.00  0.00    +0.126 A 
ATOM     29  C   UNL     1       0.694  -3.531  -2.719  0.00  0.00    +0.046 A 
ATOM     30  C   UNL     1       1.283  -2.987  -3.844  0.00  0.00    +0.004 A 
ATOM     31  C   UNL     1       2.153  -1.919  -3.721  0.00  0.00    +0.001 A 
ATOM     32  C   UNL     1       2.431  -1.390  -2.475  0.00  0.00    +0.009 A 
ATOM     33  C   UNL     1       1.848  -1.934  -1.347  0.00  0.00    +0.023 A 
BRANCH  28  35
ATOM     34  C   UNL     1      -0.492  -4.641  -0.558  0.00  0.00    +0.277 C 
ATOM     35  O   UNL     1       0.397  -3.539  -0.359  0.00  0.00    -0.495 OA
ENDBRANCH  28  35
ENDBRANCH   1  33
TORSDOF 3
