REMARK  Name = ZINC12507217
REMARK  1 active torsions:
REMARK  status: ('A' for Active; 'I' for Inactive)
REMARK    1  A    between atoms: C_6  and  C_7
REMARK                            x       y       z     vdW  Elec       q    Type
REMARK                         _______ _______ _______ _____ _____    ______ ____
ROOT
ATOM      1  C   UNL     1      -1.293  -0.775   0.011  0.00  0.00    +0.209 C 
ATOM      2  N   UNL     1      -1.165  -1.967   0.868  0.00  0.00    -0.294 N 
ATOM      3  C   UNL     1      -0.588  -3.106   0.371  0.00  0.00    +0.160 C 
ATOM      4  N   UNL     1      -0.661  -3.413  -0.912  0.00  0.00    -0.302 N 
ATOM      5  C   UNL     1      -1.270  -2.539  -1.749  0.00  0.00    +0.213 A 
ATOM      6  N   UNL     1      -1.599  -1.258  -1.340  0.00  0.00    -0.286 N 
ATOM      7  C   UNL     1      -2.210  -0.622  -2.396  0.00  0.00    +0.076 A 
ATOM      8  C   UNL     1      -2.759   0.640  -2.581  0.00  0.00    +0.077 A 
ATOM      9  C   UNL     1      -3.311   0.979  -3.802  0.00  0.00    +0.164 A 
ATOM     10  C   UNL     1      -3.321   0.063  -4.849  0.00  0.00    +0.164 A 
ATOM     11  C   UNL     1      -2.781  -1.196  -4.683  0.00  0.00    +0.079 A 
ATOM     12  C   UNL     1      -2.219  -1.551  -3.453  0.00  0.00    +0.095 A 
ATOM     13  N   UNL     1      -1.623  -2.695  -2.998  0.00  0.00    -0.212 NA
ATOM     14  O   UNL     1      -3.870   0.417  -6.049  0.00  0.00    -0.488 OA
ATOM     15  C   UNL     1      -5.286   0.603  -6.058  0.00  0.00    +0.232 C 
ATOM     16  C   UNL     1      -5.649   2.009  -5.605  0.00  0.00    +0.082 C 
ATOM     17  C   UNL     1      -5.268   2.267  -4.156  0.00  0.00    +0.232 C 
ATOM     18  O   UNL     1      -3.850   2.220  -3.988  0.00  0.00    -0.488 OA
ATOM     19  N   UNL     1       0.079  -3.945   1.223  0.00  0.00    -0.332 N 
ATOM     20  H   UNL     1      -1.489  -1.946   1.782  0.00  0.00    +0.151 HD
ATOM     21  H   UNL     1       0.140  -3.730   2.167  0.00  0.00    +0.145 HD
ATOM     22  H   UNL     1       0.491  -4.754   0.882  0.00  0.00    +0.145 HD
ATOM     23  H   UNL     1      -0.288  -4.243  -1.247  0.00  0.00    +0.171 HD
ENDROOT
BRANCH   1  29
ATOM     24  C   UNL     1      -0.017   1.378   0.010  0.00  0.00    +0.009 A 
ATOM     25  C   UNL     1       1.171   2.086   0.002  0.00  0.00    +0.022 A 
ATOM     26  C   UNL     1       2.378   1.412  -0.013  0.00  0.00    +0.059 A 
ATOM     27  C   UNL     1       2.397   0.027  -0.021  0.00  0.00    +0.060 A 
ATOM     28  C   UNL     1       1.208  -0.680  -0.013  0.00  0.00    +0.028 A 
ATOM     29  C   UNL     1       0.002  -0.004   0.002  0.00  0.00    -0.005 A 
ATOM     30 CL   UNL     1       3.912  -0.821  -0.040  0.00  0.00    -0.082 Cl
ATOM     31 CL   UNL     1       3.869   2.301  -0.023  0.00  0.00    -0.082 Cl
ENDBRANCH   1  29
TORSDOF 1
