REMARK  Name = ZINC35026629
REMARK  9 active torsions:
REMARK  status: ('A' for Active; 'I' for Inactive)
REMARK    1  A    between atoms: C_1  and  C_2
REMARK    2  A    between atoms: C_2  and  N_3
REMARK    3  A    between atoms: C_13  and  C_14
REMARK    4  A    between atoms: C_14  and  C_16
REMARK    5  A    between atoms: C_14  and  N_17
REMARK    6  A    between atoms: N_17  and  C_18
REMARK    7  A    between atoms: C_18  and  C_19
REMARK    8  A    between atoms: N_26  and  C_27
REMARK    9  A    between atoms: C_32  and  C_33
REMARK                            x       y       z     vdW  Elec       q    Type
REMARK                         _______ _______ _______ _____ _____    ______ ____
ROOT
ATOM      1  N   UNL     1      -1.790  -1.350  -3.722  0.00  0.00    -0.268 N 
ATOM      2  C   UNL     1      -2.210  -0.635  -4.785  0.00  0.00    +0.307 C 
ATOM      3  O   UNL     1      -2.064   0.572  -4.803  0.00  0.00    -0.252 OA
ATOM      4  N   UNL     1      -2.793  -1.259  -5.828  0.00  0.00    -0.269 N 
ATOM      5  H   UNL     1      -2.970  -2.212  -5.787  0.00  0.00    +0.156 HD
ENDROOT
BRANCH   4   6
ATOM      6  C   UNL     1      -3.141  -0.532  -6.972  0.00  0.00    +0.046 A 
ATOM      7  C   UNL     1      -3.436   0.822  -6.873  0.00  0.00    +0.024 A 
ATOM      8  C   UNL     1      -3.779   1.536  -8.004  0.00  0.00    +0.002 A 
ATOM      9  C   UNL     1      -3.830   0.906  -9.234  0.00  0.00    +0.001 A 
ATOM     10  C   UNL     1      -3.538  -0.442  -9.335  0.00  0.00    +0.014 A 
ATOM     11  C   UNL     1      -3.188  -1.161  -8.209  0.00  0.00    +0.076 A 
BRANCH  11  12
ATOM     12  C   UNL     1      -2.864  -2.628  -8.322  0.00  0.00    +0.419 C 
ATOM     13  F   UNL     1      -2.979  -3.030  -9.657  0.00  0.00    -0.166 F 
ATOM     14  F   UNL     1      -1.556  -2.853  -7.878  0.00  0.00    -0.166 F 
ATOM     15  F   UNL     1      -3.756  -3.365  -7.534  0.00  0.00    -0.166 F 
ENDBRANCH  11  12
ENDBRANCH   4   6
BRANCH   1  16
ATOM     16  C   UNL     1      -1.157  -0.672  -2.588  0.00  0.00    +0.141 C 
ATOM     17  C   UNL     1      -2.075   0.444  -2.084  0.00  0.00    +0.036 C 
BRANCH  16  28
ATOM     18  N   UNL     1       1.179  -0.046  -2.130  0.00  0.00    -0.295 N 
ATOM     19  C   UNL     1       2.382   0.469  -2.476  0.00  0.00    +0.262 A 
ATOM     20  O   UNL     1       3.306   0.502  -1.684  0.00  0.00    -0.267 OA
ATOM     21  C   UNL     1       2.529   0.986  -3.844  0.00  0.00    +0.065 A 
ATOM     22  C   UNL     1       3.725   1.536  -4.300  0.00  0.00    +0.017 A 
ATOM     23  C   UNL     1       3.810   2.003  -5.582  0.00  0.00    +0.021 A 
ATOM     24  C   UNL     1       2.715   1.935  -6.436  0.00  0.00    +0.043 A 
ATOM     25  C   UNL     1       1.520   1.396  -6.009  0.00  0.00    +0.048 A 
ATOM     26  C   UNL     1       1.411   0.912  -4.704  0.00  0.00    +0.080 A 
ATOM     27  N   UNL     1       0.257   0.372  -4.239  0.00  0.00    -0.232 NA
ATOM     28  C   UNL     1       0.158  -0.082  -3.026  0.00  0.00    +0.133 A 
ATOM     29 CL   UNL     1       2.853   2.538  -8.058  0.00  0.00    -0.083 Cl
BRANCH  18  31
ATOM     30  C   UNL     1       1.248  -2.082  -0.777  0.00  0.00    +0.027 C 
ATOM     31  C   UNL     1       0.978  -0.576  -0.779  0.00  0.00    +0.123 C 
ENDBRANCH  18  31
ENDBRANCH  16  28
ENDBRANCH   1  16
BRANCH   1  32
ATOM     32  C   UNL     1      -1.966  -2.804  -3.701  0.00  0.00    +0.184 C 
BRANCH  32  33
ATOM     33  C   UNL     1      -3.335  -3.137  -3.166  0.00  0.00    +0.122 A 
ATOM     34  C   UNL     1      -4.432  -3.377  -3.906  0.00  0.00    +0.046 A 
ATOM     35  C   UNL     1      -5.486  -3.644  -3.002  0.00  0.00    +0.041 A 
ATOM     36  C   UNL     1      -4.970  -3.551  -1.764  0.00  0.00    +0.195 A 
ATOM     37  O   UNL     1      -3.666  -3.249  -1.869  0.00  0.00    -0.466 OA
ENDBRANCH  32  33
ENDBRANCH   1  32
TORSDOF 7
