REMARK  Name = ZINC35148016
REMARK  4 active torsions:
REMARK  status: ('A' for Active; 'I' for Inactive)
REMARK    1  A    between atoms: C_1  and  C_2
REMARK    2  A    between atoms: C_4  and  C_33
REMARK    3  A    between atoms: C_6  and  N_8
REMARK    4  A    between atoms: C_24  and  C_30
REMARK                            x       y       z     vdW  Elec       q    Type
REMARK                         _______ _______ _______ _____ _____    ______ ____
ROOT
ATOM      1  N   UNL     1       0.050  -2.798   2.395  0.00  0.00    -0.210 N 
ATOM      2  C   UNL     1       0.141  -2.198   3.593  0.00  0.00    +0.232 C 
ATOM      3  O   UNL     1       0.356  -1.020   3.782  0.00  0.00    -0.274 OA
ATOM      4  C   UNL     1      -0.073  -3.244   4.666  0.00  0.00    +0.115 C 
ATOM      5  C   UNL     1       1.018  -3.159   5.731  0.00  0.00    +0.117 C 
ATOM      6  C   UNL     1       1.519  -1.749   5.906  0.00  0.00    -0.019 A 
ATOM      7  C   UNL     1       0.675  -0.671   5.775  0.00  0.00    +0.006 A 
ATOM      8  C   UNL     1       1.164   0.614   5.935  0.00  0.00    +0.000 A 
ATOM      9  C   UNL     1       2.500   0.820   6.229  0.00  0.00    +0.001 A 
ATOM     10  C   UNL     1       3.357  -0.253   6.366  0.00  0.00    +0.008 A 
ATOM     11  C   UNL     1       2.872  -1.552   6.207  0.00  0.00    -0.019 A 
ATOM     12  C   UNL     1       3.777  -2.709   6.363  0.00  0.00    +0.023 C 
ATOM     13  C   UNL     1       3.407  -3.909   5.874  0.00  0.00    +0.072 C 
ATOM     14  N   UNL     1       2.153  -3.981   5.272  0.00  0.00    -0.316 N 
ATOM     15  C   UNL     1       1.762  -4.746   4.094  0.00  0.00    +0.172 C 
ATOM     16  C   UNL     1       0.225  -4.566   3.893  0.00  0.00    +0.119 C 
ATOM     17  C   UNL     1      -0.032  -4.136   2.457  0.00  0.00    +0.232 C 
ATOM     18  O   UNL     1      -0.267  -4.876   1.526  0.00  0.00    -0.274 OA
ENDROOT
BRANCH   1  24
ATOM     19  C   UNL     1       2.370   0.064  -0.863  0.00  0.00    +0.044 C 
ATOM     20  C   UNL     1       1.146  -0.693  -0.416  0.00  0.00    -0.048 A 
ATOM     21  C   UNL     1       0.007  -0.687  -1.199  0.00  0.00    +0.006 A 
ATOM     22  C   UNL     1      -1.119  -1.380  -0.792  0.00  0.00    -0.048 A 
ATOM     23  C   UNL     1      -1.107  -2.080   0.398  0.00  0.00    +0.027 A 
ATOM     24  C   UNL     1       0.035  -2.088   1.186  0.00  0.00    +0.044 A 
ATOM     25  C   UNL     1       1.166  -1.397   0.772  0.00  0.00    +0.027 A 
ATOM     26  C   UNL     1      -2.359  -1.371  -1.648  0.00  0.00    +0.044 C 
ENDBRANCH   1  24
BRANCH  15  27
ATOM     27  C   UNL     1       2.498  -4.232   2.884  0.00  0.00    +0.232 C 
ATOM     28  O   UNL     1       3.007  -3.131   2.906  0.00  0.00    -0.274 OA
ATOM     29  N   UNL     1       2.592  -4.996   1.778  0.00  0.00    -0.328 N 
ATOM     30  H   UNL     1       2.185  -5.876   1.760  0.00  0.00    +0.145 HD
ATOM     31  H   UNL     1       3.066  -4.665   0.999  0.00  0.00    +0.145 HD
ENDBRANCH  15  27
TORSDOF 2
