REMARK  Name = ZINC64789266
REMARK  4 active torsions:
REMARK  status: ('A' for Active; 'I' for Inactive)
REMARK    1  A    between atoms: C_1  and  C_2
REMARK    2  A    between atoms: C_2  and  C_3
REMARK    3  A    between atoms: C_6  and  C_26
REMARK    4  A    between atoms: N_16  and  C_19
REMARK                            x       y       z     vdW  Elec       q    Type
REMARK                         _______ _______ _______ _____ _____    ______ ____
ROOT
ATOM      1  C   UNL     1       0.707  -0.490  -1.238  0.00  0.00    +0.232 C 
ATOM      2  O   UNL     1       1.150   0.308  -2.036  0.00  0.00    -0.274 OA
ATOM      3  N   UNL     1       0.847  -1.812  -1.460  0.00  0.00    -0.215 N 
ATOM      4  C   UNL     1       1.516  -2.413  -2.621  0.00  0.00    +0.132 C 
ATOM      5  C   UNL     1       1.398  -3.931  -2.390  0.00  0.00    +0.082 C 
ATOM      6  C   UNL     1       0.651  -4.053  -1.081  0.00  0.00    +0.041 C 
ATOM      7  N   UNL     1       0.383  -2.823  -0.620  0.00  0.00    -0.264 N 
ATOM      8  C   UNL     1       0.307  -5.239  -0.460  0.00  0.00    +0.118 C 
ATOM      9  C   UNL     1       0.659  -6.545  -1.044  0.00  0.00    +0.258 C 
ATOM     10  N   UNL     1       0.290  -7.660  -0.381  0.00  0.00    -0.235 N 
ATOM     11  C   UNL     1      -0.379  -7.598   0.778  0.00  0.00    +0.316 C 
ATOM     12  O   UNL     1      -0.682  -8.640   1.325  0.00  0.00    -0.252 OA
ATOM     13  N   UNL     1      -0.732  -6.446   1.367  0.00  0.00    -0.218 N 
ATOM     14  C   UNL     1      -0.424  -5.252   0.820  0.00  0.00    +0.261 C 
ATOM     15  O   UNL     1      -0.746  -4.213   1.367  0.00  0.00    -0.269 OA
ATOM     16  O   UNL     1       1.266  -6.615  -2.096  0.00  0.00    -0.270 OA
ATOM     17  H   UNL     1       0.514  -8.528  -0.753  0.00  0.00    +0.159 HD
ATOM     18  H   UNL     1      -0.087  -2.655   0.211  0.00  0.00    +0.170 HD
ENDROOT
BRANCH   4  19
ATOM     19  C   UNL     1       0.816  -2.016  -3.896  0.00  0.00    -0.025 A 
ATOM     20  C   UNL     1      -0.564  -1.927  -3.927  0.00  0.00    +0.006 A 
ATOM     21  C   UNL     1      -1.206  -1.563  -5.095  0.00  0.00    +0.015 A 
ATOM     22  C   UNL     1      -0.469  -1.287  -6.233  0.00  0.00    +0.018 A 
ATOM     23  C   UNL     1       0.911  -1.377  -6.201  0.00  0.00    +0.015 A 
ATOM     24  C   UNL     1       1.553  -1.736  -5.031  0.00  0.00    +0.006 A 
ATOM     25 BR   UNL     1      -1.348  -0.789  -7.832  0.00  0.00    -0.050 Br
ENDBRANCH   4  19
BRANCH  13  26
ATOM     26  C   UNL     1      -1.464  -6.486   2.635  0.00  0.00    +0.086 C 
ATOM     27  C   UNL     1      -0.621  -7.208   3.688  0.00  0.00    +0.023 C 
ATOM     28  C   UNL     1      -1.385  -7.249   5.013  0.00  0.00    +0.002 C 
ATOM     29  C   UNL     1      -2.706  -7.996   4.817  0.00  0.00    +0.000 C 
ATOM     30  C   UNL     1      -3.549  -7.274   3.764  0.00  0.00    +0.002 C 
ATOM     31  C   UNL     1      -2.784  -7.233   2.439  0.00  0.00    +0.023 C 
ENDBRANCH  13  26
BRANCH   1  33
ATOM     32  C   UNL     1      -0.019   1.526   0.010  0.00  0.00    +0.013 C 
ATOM     33  C   UNL     1       0.002  -0.004   0.002  0.00  0.00    +0.094 C 
ENDBRANCH   1  33
TORSDOF 3
