REMARK  Name = ZINC09153024
REMARK  10 active torsions:
REMARK  status: ('A' for Active; 'I' for Inactive)
REMARK    1  A    between atoms: C_1  and  C_2
REMARK    2  A    between atoms: C_2  and  C_3
REMARK    3  A    between atoms: C_3  and  N_71
REMARK    4  A    between atoms: C_4  and  C_5
REMARK    5  A    between atoms: C_4  and  N_71
REMARK    6  A    between atoms: C_5  and  C_6
REMARK    7  A    between atoms: C_7  and  C_8
REMARK    8  A    between atoms: C_7  and  N_71
REMARK    9  A    between atoms: C_8  and  N_9
REMARK   10  A    between atoms: C_10  and  C_12
REMARK                            x       y       z     vdW  Elec       q    Type
REMARK                         _______ _______ _______ _____ _____    ______ ____
ROOT
ATOM      1  C   UNL     1       6.908   0.402   0.024  0.00  0.00    +0.092 C 
ATOM      2  C   UNL     1       6.464  -0.488   1.188  0.00  0.00    +0.016 C 
ATOM      3  C   UNL     1       4.936  -0.476   1.275  0.00  0.00    +0.020 C 
ATOM      4  C   UNL     1       4.451   0.965   1.450  0.00  0.00    +0.106 C 
ATOM      5  N   UNL     1       4.900   1.775   0.311  0.00  0.00    -0.313 N 
ATOM      6  C   UNL     1       6.366   1.818   0.235  0.00  0.00    +0.119 C 
ATOM      7  C   UNL     1       4.370   3.052   0.371  0.00  0.00    +0.152 A 
ATOM      8  C   UNL     1       2.980   3.251   0.449  0.00  0.00    +0.148 A 
ATOM      9  C   UNL     1       2.501   4.570   0.503  0.00  0.00    +0.166 A 
ATOM     10  N   UNL     1       3.371   5.574   0.485  0.00  0.00    -0.216 NA
ATOM     11  C   UNL     1       4.664   5.341   0.412  0.00  0.00    +0.225 A 
ATOM     12  N   UNL     1       5.162   4.119   0.356  0.00  0.00    -0.218 NA
ATOM     13  N   UNL     1       1.134   4.472   0.566  0.00  0.00    -0.312 N 
ATOM     14  C   UNL     1       0.814   3.146   0.559  0.00  0.00    +0.112 A 
ATOM     15  N   UNL     1       1.902   2.432   0.486  0.00  0.00    -0.227 NA
ATOM     16  C   UNL     1      -0.589   2.592   0.632  0.00  0.00    +0.074 C 
ATOM     17  C   UNL     1      -1.482   3.344  -0.356  0.00  0.00    +0.008 C 
ATOM     18  C   UNL     1      -2.076   4.573   0.324  0.00  0.00    +0.002 C 
ATOM     19  C   UNL     1      -1.089   5.151   1.337  0.00  0.00    +0.022 C 
ATOM     20  C   UNL     1       0.188   5.591   0.617  0.00  0.00    +0.125 C 
ENDROOT
BRANCH   1  22
ATOM     21  N   UNL     1       9.113  -0.695  -0.213  0.00  0.00    -0.317 N 
ATOM     22  C   UNL     1       8.414   0.443  -0.032  0.00  0.00    +0.218 C 
ATOM     23  O   UNL     1       8.996   1.501   0.085  0.00  0.00    -0.275 OA
ATOM     24  H   UNL     1       8.647  -1.540  -0.306  0.00  0.00    +0.149 HD
BRANCH  21  25
ATOM     25  C   UNL     1      10.576  -0.655  -0.267  0.00  0.00    +0.085 C 
BRANCH  25  26
ATOM     26  C   UNL     1      11.117  -2.070  -0.478  0.00  0.00    -0.060 C 
BRANCH  26  27
ATOM     27  N   UNL     1      12.594  -2.016  -0.510  0.00  0.00    +0.381 N 
ATOM     28  H   UNL     1      12.927  -1.513   0.321  0.00  0.00    -0.082 HD
BRANCH  27  29
ATOM     29  C   UNL     1      13.150  -3.385  -0.497  0.00  0.00    -0.079 C 
BRANCH  29  31
ATOM     30  C   UNL     1      13.768  -5.293   0.994  0.00  0.00    +0.002 C 
ATOM     31  C   UNL     1      13.069  -3.933   0.929  0.00  0.00    -0.022 C 
ENDBRANCH  29  31
ENDBRANCH  27  29
BRANCH  27  32
ATOM     32  C   UNL     1      13.047  -1.298  -1.720  0.00  0.00    -0.079 C 
BRANCH  32  33
ATOM     33  C   UNL     1      14.523  -0.930  -1.549  0.00  0.00    -0.022 C 
ATOM     34  C   UNL     1      15.009  -0.185  -2.794  0.00  0.00    +0.002 C 
ENDBRANCH  32  33
ENDBRANCH  27  32
ENDBRANCH  26  27
ENDBRANCH  25  26
ENDBRANCH  21  25
ENDBRANCH   1  22
TORSDOF 8
