REMARK  Name = ZINC12497140
REMARK  9 active torsions:
REMARK  status: ('A' for Active; 'I' for Inactive)
REMARK    1  A    between atoms: C_1  and  N_2
REMARK    2  A    between atoms: N_2  and  C_3
REMARK    3  A    between atoms: N_2  and  C_4
REMARK    4  A    between atoms: C_7  and  C_10
REMARK    5  A    between atoms: N_18  and  C_21
REMARK    6  A    between atoms: C_27  and  C_28
REMARK    7  A    between atoms: C_27  and  C_34
REMARK    8  A    between atoms: C_34  and  O_36
REMARK    9  A    between atoms: O_36  and  C_37
REMARK                            x       y       z     vdW  Elec       q    Type
REMARK                         _______ _______ _______ _____ _____    ______ ____
ROOT
ATOM      1  C   UNL     1      -4.854  -1.712   0.222  0.00  0.00    -0.026 C 
ATOM      2  C   UNL     1      -3.869  -0.623   0.327  0.00  0.00    +0.078 C 
ATOM      3  C   UNL     1      -4.637   0.562  -0.383  0.00  0.00    +0.090 C 
ATOM      4  C   UNL     1      -3.666   1.640   0.029  0.00  0.00    +0.229 C 
ATOM      5  O   UNL     1      -3.924   2.790   0.313  0.00  0.00    -0.275 OA
ATOM      6  N   UNL     1      -2.433   1.053   0.011  0.00  0.00    -0.210 N 
ATOM      7  C   UNL     1      -2.498  -0.318   0.004  0.00  0.00    +0.229 C 
ATOM      8  O   UNL     1      -1.600  -1.101  -0.223  0.00  0.00    -0.275 OA
ATOM      9  C   UNL     1      -5.964   0.418   0.364  0.00  0.00    +0.070 C 
ATOM     10  N   UNL     1      -6.116  -1.040   0.603  0.00  0.00    +0.398 N 
ATOM     11  H   UNL     1      -6.312  -1.210   1.596  0.00  0.00    -0.083 HD
ATOM     12  H   UNL     1      -6.889  -1.406   0.034  0.00  0.00    -0.083 HD
ENDROOT
BRANCH   1  16
ATOM     13  C   UNL     1      -5.126  -3.138  -3.798  0.00  0.00    +0.029 A 
ATOM     14  C   UNL     1      -4.374  -3.836  -2.861  0.00  0.00    +0.023 A 
ATOM     15  C   UNL     1      -4.288  -3.373  -1.563  0.00  0.00    +0.004 A 
ATOM     16  C   UNL     1      -4.950  -2.215  -1.196  0.00  0.00    -0.060 A 
ATOM     17  C   UNL     1      -5.703  -1.521  -2.125  0.00  0.00    +0.004 A 
ATOM     18  C   UNL     1      -5.788  -1.976  -3.426  0.00  0.00    +0.023 A 
BRANCH  13  20
ATOM     19  C   UNL     1      -4.514  -4.830  -5.503  0.00  0.00    +0.129 C 
ATOM     20  N   UNL     1      -5.214  -3.604  -5.112  0.00  0.00    -0.336 N 
ATOM     21  C   UNL     1      -6.007  -2.867  -6.099  0.00  0.00    +0.129 C 
ENDBRANCH  13  20
ENDBRANCH   1  16
BRANCH   6  22
ATOM     22  C   UNL     1      -1.230   1.773   0.007  0.00  0.00    +0.044 A 
ATOM     23  C   UNL     1      -0.016   1.099  -0.005  0.00  0.00    +0.024 A 
ATOM     24  C   UNL     1       1.167   1.812  -0.015  0.00  0.00    +0.002 A 
ATOM     25  C   UNL     1       1.144   3.194  -0.007  0.00  0.00    +0.000 A 
ATOM     26  C   UNL     1      -0.064   3.868   0.011  0.00  0.00    +0.002 A 
ATOM     27  C   UNL     1      -1.250   3.161   0.021  0.00  0.00    +0.024 A 
ENDBRANCH   6  22
BRANCH   9  28
ATOM     28  C   UNL     1      -5.909   1.162   1.673  0.00  0.00    -0.047 A 
ATOM     29  C   UNL     1      -5.582   0.490   2.837  0.00  0.00    +0.003 A 
ATOM     30  C   UNL     1      -5.528   1.173   4.037  0.00  0.00    +0.000 A 
ATOM     31  C   UNL     1      -5.809   2.526   4.076  0.00  0.00    +0.000 A 
ATOM     32  C   UNL     1      -6.141   3.197   2.913  0.00  0.00    +0.000 A 
ATOM     33  C   UNL     1      -6.191   2.514   1.712  0.00  0.00    +0.003 A 
ENDBRANCH   9  28
BRANCH   9  34
ATOM     34  C   UNL     1      -7.098   0.934  -0.483  0.00  0.00    +0.301 C 
ATOM     35  O   UNL     1      -6.885   1.760  -1.340  0.00  0.00    -0.252 OA
BRANCH  34  36
ATOM     36  O   UNL     1      -8.345   0.478  -0.287  0.00  0.00    -0.469 OA
ATOM     37  C   UNL     1      -9.388   1.020  -1.140  0.00  0.00    +0.280 C 
ENDBRANCH  34  36
ENDBRANCH   9  34
TORSDOF 6
