REMARK  Name = ZINC04261026
REMARK  9 active torsions:
REMARK  status: ('A' for Active; 'I' for Inactive)
REMARK    1  A    between atoms: C_1  and  C_2
REMARK    2  A    between atoms: C_2  and  C_4
REMARK    3  A    between atoms: C_2  and  O_28
REMARK    4  A    between atoms: N_6  and  N_7
REMARK    5  A    between atoms: C_8  and  C_9
REMARK    6  A    between atoms: C_18  and  O_19
REMARK    7  A    between atoms: O_19  and  C_20
REMARK    8  A    between atoms: C_20  and  C_22
REMARK    9  A    between atoms: O_28  and  C_29
REMARK                            x       y       z     vdW  Elec       q    Type
REMARK                         _______ _______ _______ _____ _____    ______ ____
ROOT
ATOM      1  N   UNL     1       6.099   2.292  -0.045  0.00  0.00    -0.187 NA
ATOM      2  C   UNL     1       7.236   1.667   0.028  0.00  0.00    +0.142 C 
ENDROOT
BRANCH   2   3
ATOM      3  C   UNL     1       7.276   0.200  -0.051  0.00  0.00    +0.045 A 
ATOM      4  C   UNL     1       8.551  -0.515  -0.027  0.00  0.00    -0.006 A 
ATOM      5  C   UNL     1       9.769   0.168   0.072  0.00  0.00    +0.009 A 
ATOM      6  C   UNL     1      10.936  -0.537   0.092  0.00  0.00    +0.001 A 
ATOM      7  C   UNL     1      10.933  -1.927   0.015  0.00  0.00    +0.001 A 
ATOM      8  C   UNL     1       9.766  -2.622  -0.082  0.00  0.00    +0.008 A 
ATOM      9  C   UNL     1       8.544  -1.929  -0.106  0.00  0.00    -0.017 A 
ATOM     10  C   UNL     1       7.319  -2.612  -0.205  0.00  0.00    +0.012 A 
ATOM     11  C   UNL     1       6.143  -1.932  -0.221  0.00  0.00    +0.047 A 
ATOM     12  C   UNL     1       6.098  -0.540  -0.152  0.00  0.00    +0.141 A 
BRANCH  12  13
ATOM     13  O   UNL     1       4.900   0.099  -0.176  0.00  0.00    -0.422 OA
BRANCH  13  14
ATOM     14  C   UNL     1       4.450   0.509  -1.378  0.00  0.00    +0.344 C 
ATOM     15  O   UNL     1       5.148   0.380  -2.364  0.00  0.00    -0.245 OA
BRANCH  14  16
ATOM     16  C   UNL     1       3.108   1.114  -1.497  0.00  0.00    +0.059 A 
ATOM     17  C   UNL     1       2.675   1.625  -2.723  0.00  0.00    +0.015 A 
ATOM     18  C   UNL     1       1.420   2.188  -2.827  0.00  0.00    +0.001 A 
ATOM     19  C   UNL     1       0.591   2.248  -1.721  0.00  0.00    +0.000 A 
ATOM     20  C   UNL     1       1.014   1.744  -0.503  0.00  0.00    +0.001 A 
ATOM     21  C   UNL     1       2.266   1.177  -0.385  0.00  0.00    +0.015 A 
ENDBRANCH  14  16
ENDBRANCH  13  14
ENDBRANCH  12  13
ENDBRANCH   2   3
BRANCH   1  24
ATOM     22  C   UNL     1       4.889   4.342  -0.073  0.00  0.00    +0.273 C 
ATOM     23  O   UNL     1       3.856   3.721   0.069  0.00  0.00    -0.270 OA
ATOM     24  N   UNL     1       6.069   3.692  -0.085  0.00  0.00    -0.204 N 
ATOM     25  H   UNL     1       7.010   4.261  -0.126  0.00  0.00    +0.177 HD
BRANCH  22  27
ATOM     26  C   UNL     1       5.355   6.213  -1.631  0.00  0.00    +0.062 C 
ATOM     27  C   UNL     1       4.851   5.839  -0.236  0.00  0.00    +0.257 C 
BRANCH  27  28
ATOM     28  O   UNL     1       3.509   6.303  -0.074  0.00  0.00    -0.479 OA
BRANCH  28  29
ATOM     29  C   UNL     1       3.346   7.590   0.326  0.00  0.00    +0.129 A 
ATOM     30  C   UNL     1       4.429   8.414   0.453  0.00  0.00    +0.046 A 
ATOM     31  C   UNL     1       4.277   9.738   0.856  0.00  0.00    +0.004 A 
ATOM     32  C   UNL     1       3.048  10.248   1.147  0.00  0.00    +0.009 A 
ATOM     33  C   UNL     1       1.910   9.431   1.034  0.00  0.00    -0.014 A 
ATOM     34  C   UNL     1       2.058   8.085   0.618  0.00  0.00    +0.024 A 
ATOM     35  C   UNL     1       0.921   7.269   0.506  0.00  0.00    +0.012 A 
ATOM     36  C   UNL     1      -0.307   7.781   0.796  0.00  0.00    +0.001 A 
ATOM     37  C   UNL     1      -0.453   9.105   1.206  0.00  0.00    +0.001 A 
ATOM     38  C   UNL     1       0.627   9.925   1.326  0.00  0.00    +0.008 A 
ENDBRANCH  28  29
ENDBRANCH  27  28
ENDBRANCH  22  27
ENDBRANCH   1  24
TORSDOF 8
