REMARK  Name = ZINC16027699
REMARK  13 active torsions:
REMARK  status: ('A' for Active; 'I' for Inactive)
REMARK    1  A    between atoms: C_1  and  C_2
REMARK    2  A    between atoms: C_3  and  C_33
REMARK    3  A    between atoms: C_8  and  C_32
REMARK    4  A    between atoms: C_21  and  C_31
REMARK    5  A    between atoms: C_24  and  O_27
REMARK    6  A    between atoms: O_27  and  C_28
REMARK    7  A    between atoms: C_28  and  C_30
REMARK    8  A    between atoms: C_33  and  C_34
REMARK    9  A    between atoms: C_34  and  C_35
REMARK   10  A    between atoms: C_35  and  C_37
REMARK   11  A    between atoms: C_35  and  C_38
REMARK   12  A    between atoms: C_38  and  N_39
REMARK   13  A    between atoms: C_40  and  C_42
REMARK                            x       y       z     vdW  Elec       q    Type
REMARK                         _______ _______ _______ _____ _____    ______ ____
ROOT
ATOM      1  C   UNL     1       3.057   5.537  -4.189  0.00  0.00    +0.046 C 
ATOM      2  C   UNL     1       3.915   4.322  -3.936  0.00  0.00    -0.022 A 
ATOM      3  C   UNL     1       5.263   4.326  -4.307  0.00  0.00    +0.067 A 
ATOM      4  N   UNL     1       6.013   3.254  -4.184  0.00  0.00    -0.154 NA
ATOM      5  N   UNL     1       5.577   2.124  -3.745  0.00  0.00    -0.154 NA
ATOM      6  C   UNL     1       4.313   2.031  -3.360  0.00  0.00    +0.068 A 
ATOM      7  C   UNL     1       3.458   3.136  -3.380  0.00  0.00    -0.014 A 
ATOM      8  C   UNL     1       2.129   2.748  -2.810  0.00  0.00    -0.002 C 
ATOM      9  C   UNL     1       1.513   3.789  -1.932  0.00  0.00    +0.012 C 
ATOM     10  C   UNL     1       1.383   3.556  -0.450  0.00  0.00    +0.005 C 
ATOM     11  C   UNL     1       1.367   2.109   0.000  0.00  0.00    +0.003 C 
ATOM     12  C   UNL     1       2.413   1.302  -0.731  0.00  0.00    +0.001 C 
ATOM     13  C   UNL     1       2.268   1.345  -2.236  0.00  0.00    +0.009 C 
ATOM     14  C   UNL     1       3.587   0.818  -2.856  0.00  0.00    +0.062 C 
ATOM     15  C   UNL     1       2.460  -0.133  -0.215  0.00  0.00    +0.031 C 
ATOM     16  C   UNL     1       1.082  -0.713  -0.129  0.00  0.00    -0.027 C 
ATOM     17  C   UNL     1       0.002  -0.004   0.002  0.00  0.00    -0.064 C 
ATOM     18  C   UNL     1      -0.018   1.498   0.010  0.00  0.00    -0.008 C 
ATOM     19  C   UNL     1      -0.763   1.971   1.268  0.00  0.00    +0.015 C 
ATOM     20  C   UNL     1      -2.131   1.307   1.376  0.00  0.00    +0.046 C 
ATOM     21  C   UNL     1      -1.995  -0.212   1.445  0.00  0.00    +0.180 C 
ATOM     22  C   UNL     1      -1.319  -0.734   0.174  0.00  0.00    +0.075 C 
ATOM     23  C   UNL     1      -0.815   1.962  -1.207  0.00  0.00    +0.016 C 
ATOM     24  C   UNL     1       1.195   2.601  -4.029  0.00  0.00    +0.016 C 
ENDROOT
BRANCH  21  25
ATOM     25  O   UNL     1      -1.202  -0.580   2.604  0.00  0.00    -0.461 OA
BRANCH  25  26
ATOM     26  C   UNL     1      -1.481  -1.758   3.185  0.00  0.00    +0.304 C 
ATOM     27  O   UNL     1      -2.358  -2.458   2.739  0.00  0.00    -0.251 OA
ATOM     28  C   UNL     1      -0.699  -2.206   4.392  0.00  0.00    +0.136 C 
ENDBRANCH  25  26
ENDBRANCH  21  25
BRANCH   3  29
ATOM     29  C   UNL     1       5.865   5.593  -4.860  0.00  0.00    +0.058 C 
BRANCH  29  30
ATOM     30  C   UNL     1       5.702   5.613  -6.381  0.00  0.00    +0.011 C 
BRANCH  30  31
ATOM     31  C   UNL     1       6.312   6.899  -6.942  0.00  0.00    +0.003 C 
ATOM     32  C   UNL     1       7.823   6.896  -6.697  0.00  0.00    +0.009 C 
BRANCH  31  33
ATOM     33  C   UNL     1       6.040   6.978  -8.446  0.00  0.00    +0.107 C 
BRANCH  33  34
ATOM     34  N   UNL     1       6.519   8.263  -8.961  0.00  0.00    -0.315 N 
ATOM     35  C   UNL     1       6.384   8.557 -10.270  0.00  0.00    +0.210 C 
ATOM     36  O   UNL     1       5.867   7.757 -11.021  0.00  0.00    -0.276 OA
ATOM     37  C   UNL     1       6.877   9.879 -10.800  0.00  0.00    +0.109 C 
ATOM     38  H   UNL     1       6.933   8.903  -8.361  0.00  0.00    +0.149 HD
ENDBRANCH  33  34
ENDBRANCH  31  33
ENDBRANCH  30  31
ENDBRANCH  29  30
ENDBRANCH   3  29
TORSDOF 7
