REMARK  Name = ZINC66305940
REMARK  11 active torsions:
REMARK  status: ('A' for Active; 'I' for Inactive)
REMARK    1  A    between atoms: C_1  and  C_2
REMARK    2  A    between atoms: C_2  and  C_3
REMARK    3  A    between atoms: C_3  and  N_4
REMARK    4  A    between atoms: C_5  and  C_7
REMARK    5  A    between atoms: C_7  and  N_8
REMARK    6  A    between atoms: C_11  and  N_14
REMARK    7  A    between atoms: C_15  and  C_17
REMARK    8  A    between atoms: C_17  and  C_18
REMARK    9  A    between atoms: C_18  and  C_20
REMARK   10  A    between atoms: C_18  and  N_21
REMARK   11  A    between atoms: C_22  and  C_24
REMARK                            x       y       z     vdW  Elec       q    Type
REMARK                         _______ _______ _______ _____ _____    ______ ____
ROOT
ATOM      1  N   UNL     1       3.121  -6.626   6.990  0.00  0.00    -0.313 N 
ATOM      2  C   UNL     1       3.014  -7.880   7.473  0.00  0.00    +0.215 C 
ATOM      3  O   UNL     1       2.250  -8.666   6.955  0.00  0.00    -0.276 OA
ATOM      4  H   UNL     1       3.732  -5.997   7.404  0.00  0.00    +0.149 HD
ENDROOT
BRANCH   1   8
ATOM      5  N   UNL     1       2.095  -4.641   3.417  0.00  0.00    +0.385 N 
ATOM      6  C   UNL     1       1.347  -4.261   4.621  0.00  0.00    -0.076 C 
ATOM      7  C   UNL     1       2.123  -4.694   5.867  0.00  0.00    +0.003 C 
ATOM      8  C   UNL     1       2.313  -6.213   5.840  0.00  0.00    +0.069 C 
ATOM      9  C   UNL     1       3.029  -6.606   4.544  0.00  0.00    +0.003 C 
ATOM     10  C   UNL     1       2.219  -6.101   3.348  0.00  0.00    -0.076 C 
ATOM     11  H   UNL     1       3.015  -4.227   3.451  0.00  0.00    -0.081 HD
BRANCH   5  12
ATOM     12  C   UNL     1       1.385  -4.154   2.227  0.00  0.00    +0.019 C 
BRANCH  12  14
ATOM     13  N   UNL     1       0.762  -1.976   1.234  0.00  0.00    -0.317 N 
ATOM     14  C   UNL     1       1.364  -2.647   2.235  0.00  0.00    +0.196 C 
ATOM     15  O   UNL     1       1.890  -2.038   3.143  0.00  0.00    -0.278 OA
ATOM     16  H   UNL     1       0.342  -2.462   0.507  0.00  0.00    +0.149 HD
BRANCH  13  17
ATOM     17  C   UNL     1       0.742  -0.511   1.242  0.00  0.00    +0.104 C 
BRANCH  17  19
ATOM     18  C   UNL     1      -0.019   1.526   0.010  0.00  0.00    +0.005 C 
ATOM     19  C   UNL     1       0.002  -0.004   0.002  0.00  0.00    +0.015 C 
ENDBRANCH  17  19
ENDBRANCH  13  17
ENDBRANCH  12  14
ENDBRANCH   5  12
ENDBRANCH   1   8
BRANCH   2  20
ATOM     20  C   UNL     1       3.845  -8.305   8.656  0.00  0.00    +0.117 C 
BRANCH  20  21
ATOM     21  C   UNL     1       3.536  -9.763   8.999  0.00  0.00    +0.079 C 
ATOM     22  C   UNL     1       4.284 -10.157  10.274  0.00  0.00    +0.028 C 
BRANCH  21  23
ATOM     23  N   UNL     1       3.964 -10.626   7.896  0.00  0.00    -0.312 N 
ATOM     24  C   UNL     1       3.379 -11.827   7.713  0.00  0.00    +0.216 C 
ATOM     25  O   UNL     1       2.499 -12.193   8.463  0.00  0.00    -0.276 OA
ATOM     26  H   UNL     1       4.668 -10.334   7.296  0.00  0.00    +0.149 HD
BRANCH  24  27
ATOM     27  C   UNL     1       3.819 -12.715   6.578  0.00  0.00    +0.075 C 
ATOM     28  C   UNL     1       3.598 -11.990   5.249  0.00  0.00    +0.013 C 
ATOM     29  C   UNL     1       4.044 -12.891   4.096  0.00  0.00    +0.001 C 
ATOM     30  C   UNL     1       3.228 -14.185   4.114  0.00  0.00    +0.000 C 
ATOM     31  C   UNL     1       3.450 -14.910   5.443  0.00  0.00    +0.001 C 
ATOM     32  C   UNL     1       3.003 -14.008   6.596  0.00  0.00    +0.013 C 
ENDBRANCH  24  27
ENDBRANCH  21  23
ENDBRANCH  20  21
ENDBRANCH   2  20
TORSDOF 9
