REMARK  Name = ZINC02821868
REMARK  8 active torsions:
REMARK  status: ('A' for Active; 'I' for Inactive)
REMARK    1  A    between atoms: C_1  and  O_2
REMARK    2  A    between atoms: O_2  and  C_3
REMARK    3  A    between atoms: C_7  and  C_11
REMARK    4  A    between atoms: C_8  and  O_9
REMARK    5  A    between atoms: O_9  and  C_10
REMARK    6  A    between atoms: C_23  and  S_26
REMARK    7  A    between atoms: S_26  and  C_27
REMARK    8  A    between atoms: C_27  and  C_28
REMARK                            x       y       z     vdW  Elec       q    Type
REMARK                         _______ _______ _______ _____ _____    ______ ____
ROOT
ATOM      1  C   UNL     1       3.709  -0.723  -0.039  0.00  0.00    +0.297 C 
ATOM      2  N   UNL     1       3.494  -2.080   0.453  0.00  0.00    -0.305 N 
ATOM      3  C   UNL     1       2.896  -3.017  -0.396  0.00  0.00    +0.039 A 
ATOM      4  C   UNL     1       1.625  -3.503  -0.150  0.00  0.00    +0.024 A 
ATOM      5  C   UNL     1       1.057  -4.417  -1.019  0.00  0.00    +0.002 A 
ATOM      6  C   UNL     1       1.754  -4.849  -2.134  0.00  0.00    +0.001 A 
ATOM      7  C   UNL     1       3.027  -4.377  -2.390  0.00  0.00    +0.012 A 
ATOM      8  C   UNL     1       3.611  -3.463  -1.522  0.00  0.00    +0.028 A 
ATOM      9  C   UNL     1       4.983  -2.959  -1.739  0.00  0.00    +0.156 A 
ATOM     10  C   UNL     1       5.241  -1.572  -1.641  0.00  0.00    +0.248 A 
ATOM     11  N   UNL     1       6.476  -1.141  -1.830  0.00  0.00    -0.184 NA
ATOM     12  C   UNL     1       7.435  -2.018  -2.111  0.00  0.00    +0.213 A 
ATOM     13  N   UNL     1       7.172  -3.315  -2.204  0.00  0.00    -0.122 NA
ATOM     14  N   UNL     1       5.983  -3.778  -2.024  0.00  0.00    -0.141 NA
ATOM     15  O   UNL     1       4.227  -0.718  -1.364  0.00  0.00    -0.449 OA
ATOM     16  H   UNL     1       3.762  -2.329   1.352  0.00  0.00    +0.150 HD
ENDROOT
BRANCH   1  21
ATOM     17  C   UNL     1       0.762   1.333   1.151  0.00  0.00    +0.162 A 
ATOM     18  C   UNL     1      -0.014   1.384   0.004  0.00  0.00    +0.049 A 
ATOM     19  C   UNL     1       0.416   0.755  -1.150  0.00  0.00    +0.004 A 
ATOM     20  C   UNL     1       1.619   0.074  -1.162  0.00  0.00    +0.013 A 
ATOM     21  C   UNL     1       2.398   0.019  -0.021  0.00  0.00    +0.056 A 
ATOM     22  C   UNL     1       1.973   0.648   1.138  0.00  0.00    +0.170 A 
BRANCH  17  24
ATOM     23  C   UNL     1      -0.912   2.636   2.226  0.00  0.00    +0.277 C 
ATOM     24  O   UNL     1       0.341   1.951   2.287  0.00  0.00    -0.491 OA
ENDBRANCH  17  24
BRANCH  22  25
ATOM     25  O   UNL     1       2.738   0.595   2.261  0.00  0.00    -0.491 OA
ATOM     26  C   UNL     1       3.701   1.636   2.439  0.00  0.00    +0.277 C 
ENDBRANCH  22  25
ENDBRANCH   1  21
BRANCH  12  27
ATOM     27  S   UNL     1       9.083  -1.448  -2.365  0.00  0.00    -0.080 S 
BRANCH  27  28
ATOM     28  C   UNL     1       9.912  -3.022  -2.698  0.00  0.00    +0.115 C 
BRANCH  28  29
ATOM     29  C   UNL     1      11.377  -2.774  -2.952  0.00  0.00    -0.002 A 
ATOM     30  C   UNL     1      11.826  -2.537  -4.237  0.00  0.00    +0.007 A 
ATOM     31  C   UNL     1      13.168  -2.304  -4.470  0.00  0.00    +0.000 A 
ATOM     32  C   UNL     1      14.066  -2.319  -3.418  0.00  0.00    +0.003 A 
ATOM     33  C   UNL     1      13.620  -2.562  -2.133  0.00  0.00    +0.038 A 
ATOM     34  C   UNL     1      12.275  -2.790  -1.898  0.00  0.00    +0.127 A 
ATOM     35  F   UNL     1      11.838  -3.027  -0.642  0.00  0.00    -0.205 F 
ENDBRANCH  28  29
ENDBRANCH  27  28
ENDBRANCH  12  27
TORSDOF 6
