REMARK  Name = ZINC11163221
REMARK  6 active torsions:
REMARK  status: ('A' for Active; 'I' for Inactive)
REMARK    1  A    between atoms: C_1  and  C_2
REMARK    2  A    between atoms: C_3  and  C_21
REMARK    3  A    between atoms: C_4  and  C_20
REMARK    4  A    between atoms: C_7  and  C_8
REMARK    5  A    between atoms: C_8  and  C_10
REMARK    6  A    between atoms: C_21  and  C_23
REMARK                            x       y       z     vdW  Elec       q    Type
REMARK                         _______ _______ _______ _____ _____    ______ ____
ROOT
ATOM      1  C   UNL     1      -1.462   6.138   3.204  0.00  0.00    +0.244 C 
ATOM      2  O   UNL     1      -2.073   5.902   4.231  0.00  0.00    -0.282 OA
ENDROOT
BRANCH   1   3
ATOM      3  C   UNL     1      -1.039   7.512   2.900  0.00  0.00    +0.178 A 
ATOM      4  C   UNL     1      -1.272   8.595   3.688  0.00  0.00    +0.062 A 
ATOM      5  C   UNL     1      -0.676   9.736   2.995  0.00  0.00    +0.022 A 
ATOM      6  C   UNL     1      -0.576  11.102   3.275  0.00  0.00    +0.031 A 
ATOM      7  C   UNL     1       0.064  11.928   2.394  0.00  0.00    +0.042 A 
ATOM      8  C   UNL     1       0.614  11.419   1.224  0.00  0.00    +0.023 A 
ATOM      9  C   UNL     1       0.525  10.076   0.931  0.00  0.00    +0.048 A 
ATOM     10  C   UNL     1      -0.120   9.216   1.812  0.00  0.00    +0.136 A 
ATOM     11  O   UNL     1      -0.355   7.889   1.800  0.00  0.00    -0.451 OA
ATOM     12 CL   UNL     1       0.190  13.625   2.740  0.00  0.00    -0.084 Cl
ENDBRANCH   1   3
BRANCH   1  19
ATOM     13  C   UNL     1      -2.247   3.143   3.587  0.00  0.00    +0.047 C 
ATOM     14  C   UNL     1      -1.488   3.738   2.429  0.00  0.00    -0.011 A 
ATOM     15  C   UNL     1      -0.989   3.042   1.302  0.00  0.00    +0.041 A 
ATOM     16  C   UNL     1      -0.368   3.979   0.490  0.00  0.00    +0.024 A 
ATOM     17  N   UNL     1      -0.468   5.181   1.078  0.00  0.00    -0.355 N 
ATOM     18  H   UNL     1      -0.117   6.012   0.721  0.00  0.00    +0.166 HD
ATOM     19  C   UNL     1      -1.149   5.050   2.269  0.00  0.00    +0.094 A 
ATOM     20  C   UNL     1       0.305   3.696  -0.828  0.00  0.00    +0.064 C 
BRANCH  15  21
ATOM     21  C   UNL     1      -1.111   1.605   1.040  0.00  0.00    +0.162 C 
ATOM     22  O   UNL     1      -0.246   0.844   1.417  0.00  0.00    -0.292 OA
ATOM     23  C   UNL     1      -2.313   1.073   0.302  0.00  0.00    +0.091 C 
ENDBRANCH  15  21
ENDBRANCH   1  19
TORSDOF 3
