REMARK  Name = ZINC04402018
REMARK  9 active torsions:
REMARK  status: ('A' for Active; 'I' for Inactive)
REMARK    1  A    between atoms: C_1  and  C_2
REMARK    2  A    between atoms: C_2  and  C_3
REMARK    3  A    between atoms: C_8  and  N_9
REMARK    4  A    between atoms: C_10  and  C_12
REMARK    5  A    between atoms: C_13  and  N_14
REMARK    6  A    between atoms: C_13  and  C_25
REMARK    7  A    between atoms: N_14  and  N_15
REMARK    8  A    between atoms: C_16  and  C_18
REMARK    9  A    between atoms: C_23  and  O_24
REMARK                            x       y       z     vdW  Elec       q    Type
REMARK                         _______ _______ _______ _____ _____    ______ ____
ROOT
ATOM      1  C   UNL     1       4.930  -0.039   1.034  0.00  0.00    +0.087 C 
ATOM      2  C   UNL     1       6.243  -0.343   1.087  0.00  0.00    +0.024 C 
ATOM      3  C   UNL     1       6.954  -0.829  -0.149  0.00  0.00    +0.062 C 
ENDROOT
BRANCH   1   5
ATOM      4  N   UNL     1       2.923   0.157  -0.253  0.00  0.00    -0.282 N 
ATOM      5  C   UNL     1       4.258  -0.021  -0.210  0.00  0.00    +0.243 C 
ATOM      6  O   UNL     1       4.886  -0.166  -1.244  0.00  0.00    -0.270 OA
ATOM      7  H   UNL     1       2.431   0.333   0.565  0.00  0.00    +0.155 HD
BRANCH   4  13
ATOM      8  C   UNL     1       0.944  -0.390  -1.524  0.00  0.00    -0.026 A 
ATOM      9  C   UNL     1       0.277  -0.451  -2.732  0.00  0.00    +0.005 A 
ATOM     10  C   UNL     1       0.907  -0.041  -3.892  0.00  0.00    +0.000 A 
ATOM     11  C   UNL     1       2.206   0.431  -3.848  0.00  0.00    +0.002 A 
ATOM     12  C   UNL     1       2.878   0.495  -2.643  0.00  0.00    +0.023 A 
ATOM     13  C   UNL     1       2.247   0.089  -1.475  0.00  0.00    +0.037 A 
BRANCH   8  15
ATOM     14  C   UNL     1      -0.371   0.372   0.436  0.00  0.00    +0.009 C 
ATOM     15  C   UNL     1       0.257  -0.838  -0.259  0.00  0.00    +0.033 C 
ENDBRANCH   8  15
ENDBRANCH   4  13
ENDBRANCH   1   5
BRANCH   2  16
ATOM     16  N   UNL     1       6.928  -0.211   2.263  0.00  0.00    -0.268 N 
ATOM     17  H   UNL     1       7.872  -0.430   2.301  0.00  0.00    +0.170 HD
BRANCH  16  18
ATOM     18  N   UNL     1       6.266   0.240   3.412  0.00  0.00    -0.233 N 
ATOM     19  C   UNL     1       6.942   0.371   4.571  0.00  0.00    +0.264 C 
ATOM     20  O   UNL     1       8.126   0.096   4.619  0.00  0.00    -0.269 OA
ATOM     21  H   UNL     1       5.322   0.459   3.374  0.00  0.00    +0.173 HD
BRANCH  19  22
ATOM     22  C   UNL     1       6.245   0.846   5.781  0.00  0.00    +0.079 A 
ATOM     23  C   UNL     1       4.884   1.157   5.732  0.00  0.00    +0.017 A 
ATOM     24  C   UNL     1       4.239   1.600   6.866  0.00  0.00    +0.001 A 
ATOM     25  C   UNL     1       4.935   1.739   8.057  0.00  0.00    +0.004 A 
ATOM     26  C   UNL     1       6.280   1.436   8.119  0.00  0.00    +0.046 A 
ATOM     27  C   UNL     1       6.944   0.983   6.989  0.00  0.00    +0.129 A 
BRANCH  27  28
ATOM     28  O   UNL     1       8.264   0.679   7.050  0.00  0.00    -0.506 OA
ATOM     29  H   UNL     1       8.849   1.424   6.856  0.00  0.00    +0.292 HD
ENDBRANCH  27  28
ENDBRANCH  19  22
ENDBRANCH  16  18
ENDBRANCH   2  16
TORSDOF 7
