REMARK  Name = ZINC06301948
REMARK  7 active torsions:
REMARK  status: ('A' for Active; 'I' for Inactive)
REMARK    1  A    between atoms: C_1  and  C_2
REMARK    2  A    between atoms: C_4  and  C_33
REMARK    3  A    between atoms: C_7  and  C_14
REMARK    4  A    between atoms: C_14  and  C_16
REMARK    5  A    between atoms: C_14  and  N_60
REMARK    6  A    between atoms: N_20  and  C_21
REMARK    7  A    between atoms: C_21  and  C_22
REMARK                            x       y       z     vdW  Elec       q    Type
REMARK                         _______ _______ _______ _____ _____    ______ ____
ROOT
ATOM      1  C   UNL     1       4.873   4.287  -0.025  0.00  0.00    +0.039 C 
ENDROOT
BRANCH   1   8
ATOM      2  C   UNL     1      -1.297  -0.767   0.010  0.00  0.00    +0.044 C 
ATOM      3  C   UNL     1       0.002  -0.004   0.002  0.00  0.00    -0.048 A 
ATOM      4  C   UNL     1       1.206  -0.696  -0.013  0.00  0.00    +0.007 A 
ATOM      5  C   UNL     1       2.394  -0.024  -0.021  0.00  0.00    -0.041 A 
ATOM      6  C   UNL     1       2.400   1.375  -0.014  0.00  0.00    +0.002 A 
ATOM      7  C   UNL     1       3.655   2.128  -0.023  0.00  0.00    +0.018 A 
ATOM      8  C   UNL     1       3.599   3.482  -0.016  0.00  0.00    +0.011 A 
ATOM      9  C   UNL     1       2.351   4.142  -0.001  0.00  0.00    +0.251 A 
ATOM     10  O   UNL     1       2.322   5.360   0.005  0.00  0.00    -0.268 OA
ATOM     11  N   UNL     1       1.192   3.459   0.008  0.00  0.00    -0.322 N 
ATOM     12  H   UNL     1       0.352   3.943   0.018  0.00  0.00    +0.169 HD
ATOM     13  C   UNL     1       1.182   2.080   0.002  0.00  0.00    +0.050 A 
ATOM     14  C   UNL     1      -0.017   1.374   0.010  0.00  0.00    +0.029 A 
ATOM     15  C   UNL     1       3.695  -0.785  -0.037  0.00  0.00    +0.044 C 
ENDBRANCH   1   8
BRANCH   1  21
ATOM     16  C   UNL     1       4.638   4.517  -2.423  0.00  0.00    -0.077 C 
ATOM     17  C   UNL     1       4.476   5.534  -3.556  0.00  0.00    -0.019 C 
ATOM     18  C   UNL     1       5.735   6.402  -3.640  0.00  0.00    -0.004 C 
ATOM     19  C   UNL     1       5.961   7.090  -2.291  0.00  0.00    -0.019 C 
ATOM     20  C   UNL     1       6.080   6.029  -1.195  0.00  0.00    -0.077 C 
ATOM     21  N   UNL     1       4.828   5.244  -1.150  0.00  0.00    +0.389 N 
ATOM     22  H   UNL     1       4.038   5.885  -1.011  0.00  0.00    -0.080 HD
ENDBRANCH   1  21
BRANCH   1  23
ATOM     23  C   UNL     1       4.990   5.057   1.266  0.00  0.00    +0.143 A 
ATOM     24  N   UNL     1       4.322   6.136   1.597  0.00  0.00    -0.115 NA
ATOM     25  N   UNL     1       4.701   6.492   2.776  0.00  0.00    -0.023 NA
ATOM     26  N   UNL     1       5.598   5.673   3.202  0.00  0.00    -0.044 NA
ATOM     27  N   UNL     1       5.804   4.774   2.299  0.00  0.00    -0.226 N 
BRANCH  27  28
ATOM     28  C   UNL     1       6.747   3.656   2.383  0.00  0.00    +0.182 C 
BRANCH  28  29
ATOM     29  C   UNL     1       8.084   4.085   1.836  0.00  0.00    -0.026 A 
ATOM     30  C   UNL     1       8.368   3.914   0.494  0.00  0.00    +0.005 A 
ATOM     31  C   UNL     1       9.593   4.312  -0.010  0.00  0.00    +0.000 A 
ATOM     32  C   UNL     1      10.537   4.870   0.831  0.00  0.00    +0.000 A 
ATOM     33  C   UNL     1      10.255   5.036   2.174  0.00  0.00    +0.000 A 
ATOM     34  C   UNL     1       9.029   4.643   2.677  0.00  0.00    +0.005 A 
ENDBRANCH  28  29
ENDBRANCH  27  28
ENDBRANCH   1  23
TORSDOF 5
