REMARK  Name = ZINC39943331
REMARK  6 active torsions:
REMARK  status: ('A' for Active; 'I' for Inactive)
REMARK    1  A    between atoms: C_1  and  C_2
REMARK    2  A    between atoms: C_9  and  N_14
REMARK    3  A    between atoms: C_10  and  C_11
REMARK    4  A    between atoms: C_15  and  C_17
REMARK    5  A    between atoms: C_17  and  S_18
REMARK    6  A    between atoms: S_18  and  C_19
REMARK                            x       y       z     vdW  Elec       q    Type
REMARK                         _______ _______ _______ _____ _____    ______ ____
ROOT
ATOM      1  N   UNL     1       0.696  -5.847   2.434  0.00  0.00    -0.279 N 
ATOM      2  C   UNL     1       1.677  -6.096   3.324  0.00  0.00    +0.228 C 
ATOM      3  O   UNL     1       2.383  -5.191   3.716  0.00  0.00    -0.275 OA
ATOM      4  H   UNL     1       0.131  -6.571   2.120  0.00  0.00    +0.155 HD
ENDROOT
BRANCH   1  12
ATOM      5  C   UNL     1      -0.019   1.526   0.010  0.00  0.00    +0.008 C 
ATOM      6  C   UNL     1       0.002  -0.004   0.002  0.00  0.00    -0.009 C 
ATOM      7  C   UNL     1      -1.434  -0.537   0.019  0.00  0.00    +0.008 C 
ATOM      8  C   UNL     1      -1.433  -2.045  -0.237  0.00  0.00    +0.037 C 
ATOM      9  C   UNL     1      -0.464  -2.704   0.734  0.00  0.00    -0.023 A 
ATOM     10  C   UNL     1       0.485  -1.986   1.374  0.00  0.00    -0.004 A 
ATOM     11  S   UNL     1       1.343  -3.167   2.373  0.00  0.00    -0.077 S 
ATOM     12  C   UNL     1       0.492  -4.557   1.968  0.00  0.00    +0.084 A 
ATOM     13  C   UNL     1      -0.459  -4.119   1.061  0.00  0.00    +0.068 A 
ATOM     14  C   UNL     1       0.739  -0.515   1.248  0.00  0.00    +0.046 C 
BRANCH  13  15
ATOM     15  C   UNL     1      -1.421  -5.045   0.456  0.00  0.00    +0.244 C 
ATOM     16  O   UNL     1      -1.149  -5.611  -0.587  0.00  0.00    -0.270 OA
ATOM     17  N   UNL     1      -2.608  -5.271   1.055  0.00  0.00    -0.325 N 
ATOM     18  H   UNL     1      -2.825  -4.821   1.886  0.00  0.00    +0.145 HD
ATOM     19  H   UNL     1      -3.244  -5.884   0.655  0.00  0.00    +0.145 HD
ENDBRANCH  13  15
ENDBRANCH   1  12
BRANCH   2  20
ATOM     20  C   UNL     1       1.898  -7.498   3.830  0.00  0.00    +0.173 C 
BRANCH  20  21
ATOM     21  S   UNL     1       3.281  -7.505   5.005  0.00  0.00    -0.079 S 
BRANCH  21  22
ATOM     22  C   UNL     1       3.411  -9.192   5.499  0.00  0.00    +0.182 C 
ATOM     23  N   UNL     1       2.569 -10.067   4.977  0.00  0.00    -0.151 NA
ATOM     24  C   UNL     1       2.588 -11.361   5.294  0.00  0.00    +0.272 C 
ATOM     25  O   UNL     1       1.798 -12.143   4.791  0.00  0.00    -0.268 OA
ATOM     26  C   UNL     1       3.609 -11.828   6.287  0.00  0.00    +0.071 C 
ATOM     27  C   UNL     1       3.762 -13.064   6.791  0.00  0.00    -0.042 C 
ATOM     28  C   UNL     1       2.780 -14.208   6.551  0.00  0.00    +0.033 C 
ATOM     29  C   UNL     1       2.352 -14.722   7.932  0.00  0.00    +0.004 C 
ATOM     30  C   UNL     1       3.581 -15.056   8.775  0.00  0.00    +0.002 C 
ATOM     31  C   UNL     1       4.417 -13.801   9.042  0.00  0.00    +0.019 C 
ATOM     32  C   UNL     1       4.960 -13.284   7.707  0.00  0.00    +0.079 C 
ATOM     33  S   UNL     1       5.603 -11.579   7.911  0.00  0.00    -0.097 S 
ATOM     34  C   UNL     1       4.497 -10.758   6.790  0.00  0.00    +0.112 C 
ATOM     35  N   UNL     1       4.357  -9.525   6.378  0.00  0.00    -0.217 NA
ENDBRANCH  21  22
ENDBRANCH  20  21
ENDBRANCH   2  20
TORSDOF 5
