REMARK  Name = ZINC63258821
REMARK  6 active torsions:
REMARK  status: ('A' for Active; 'I' for Inactive)
REMARK    1  A    between atoms: C_4  and  C_7
REMARK    2  A    between atoms: C_10  and  C_13
REMARK    3  A    between atoms: C_13  and  S_14
REMARK    4  A    between atoms: S_14  and  C_15
REMARK    5  A    between atoms: C_18  and  C_27
REMARK    6  A    between atoms: N_19  and  C_20
REMARK                            x       y       z     vdW  Elec       q    Type
REMARK                         _______ _______ _______ _____ _____    ______ ____
ROOT
ATOM      1  C   UNL     1       2.971  -5.956   2.775  0.00  0.00    +0.197 A 
ATOM      2  N   UNL     1       3.466  -7.025   2.167  0.00  0.00    -0.122 NA
ATOM      3  N   UNL     1       3.241  -8.078   2.869  0.00  0.00    -0.128 NA
ATOM      4  C   UNL     1       2.587  -7.749   3.974  0.00  0.00    +0.168 A 
ATOM      5  N   UNL     1       2.402  -6.376   3.941  0.00  0.00    -0.270 N 
ENDROOT
BRANCH   4   6
ATOM      6  C   UNL     1       2.165  -8.624   4.987  0.00  0.00    +0.025 C 
ATOM      7  C   UNL     1       2.353 -10.006   5.040  0.00  0.00    +0.006 A 
ATOM      8  C   UNL     1       2.981 -10.917   4.164  0.00  0.00    +0.010 A 
ATOM      9  C   UNL     1       3.016 -12.237   4.477  0.00  0.00    +0.001 A 
ATOM     10  C   UNL     1       2.443 -12.725   5.654  0.00  0.00    +0.002 A 
ATOM     11  C   UNL     1       1.824 -11.908   6.540  0.00  0.00    +0.026 A 
ATOM     12  C   UNL     1       1.748 -10.515   6.282  0.00  0.00    +0.043 A 
ATOM     13  N   UNL     1       1.212  -9.527   6.972  0.00  0.00    -0.380 N 
ATOM     14  C   UNL     1       1.418  -8.267   6.253  0.00  0.00    +0.152 C 
ATOM     15  H   UNL     1       0.756  -9.620   7.823  0.00  0.00    +0.160 HD
ENDBRANCH   4   6
BRANCH   5  16
ATOM     16  C   UNL     1       1.762  -5.585   4.904  0.00  0.00    +0.051 A 
ATOM     17  C   UNL     1       2.308  -5.458   6.175  0.00  0.00    +0.028 A 
ATOM     18  C   UNL     1       1.675  -4.678   7.122  0.00  0.00    +0.022 A 
ATOM     19  C   UNL     1       0.499  -4.021   6.806  0.00  0.00    +0.041 A 
ATOM     20  C   UNL     1      -0.047  -4.146   5.540  0.00  0.00    +0.022 A 
ATOM     21  C   UNL     1       0.585  -4.921   4.587  0.00  0.00    +0.028 A 
ATOM     22 CL   UNL     1      -0.294  -3.041   7.999  0.00  0.00    -0.084 Cl
ENDBRANCH   5  16
BRANCH   1  23
ATOM     23  S   UNL     1       3.040  -4.297   2.188  0.00  0.00    -0.080 S 
BRANCH  23  24
ATOM     24  C   UNL     1       3.917  -4.428   0.605  0.00  0.00    +0.128 C 
BRANCH  24  27
ATOM     25  C   UNL     1       3.711  -0.707  -0.038  0.00  0.00    +0.193 C 
ATOM     26  N   UNL     1       3.581  -2.048   0.569  0.00  0.00    -0.272 NA
ATOM     27  C   UNL     1       4.046  -3.059  -0.013  0.00  0.00    +0.035 C 
ATOM     28  C   UNL     1       4.744  -2.875  -1.353  0.00  0.00    +0.122 C 
ATOM     29  S   UNL     1       4.202  -1.156  -1.761  0.00  0.00    -0.124 S 
BRANCH  25  33
ATOM     30  C   UNL     1      -0.017   1.378   0.010  0.00  0.00    +0.000 A 
ATOM     31  C   UNL     1       1.171   2.086   0.002  0.00  0.00    +0.000 A 
ATOM     32  C   UNL     1       2.377   1.411  -0.013  0.00  0.00    +0.006 A 
ATOM     33  C   UNL     1       2.396   0.029  -0.020  0.00  0.00    -0.013 A 
ATOM     34  C   UNL     1       1.208  -0.679  -0.012  0.00  0.00    +0.006 A 
ATOM     35  C   UNL     1       0.002  -0.004   0.002  0.00  0.00    +0.000 A 
ENDBRANCH  25  33
ENDBRANCH  24  27
ENDBRANCH  23  24
ENDBRANCH   1  23
TORSDOF 6
