REMARK  Name = ZINC12488975
REMARK  7 active torsions:
REMARK  status: ('A' for Active; 'I' for Inactive)
REMARK    1  A    between atoms: C_1  and  C_2
REMARK    2  A    between atoms: C_2  and  C_25
REMARK    3  A    between atoms: N_9  and  C_24
REMARK    4  A    between atoms: C_11  and  C_12
REMARK    5  A    between atoms: N_13  and  N_14
REMARK    6  A    between atoms: C_15  and  C_17
REMARK    7  A    between atoms: C_20  and  O_23
REMARK                            x       y       z     vdW  Elec       q    Type
REMARK                         _______ _______ _______ _____ _____    ______ ____
ROOT
ATOM      1  C   UNL     1       1.770  -1.159   3.298  0.00  0.00    +0.132 C 
ATOM      2  N   UNL     1       1.545  -1.159   4.581  0.00  0.00    -0.188 NA
ENDROOT
BRANCH   1  13
ATOM      3  C   UNL     1       0.162   1.476   0.103  0.00  0.00    +0.022 C 
ATOM      4  C   UNL     1       0.115  -0.048  -0.023  0.00  0.00    +0.030 C 
ATOM      5  C   UNL     1       0.758  -0.492  -1.317  0.00  0.00    -0.015 A 
ATOM      6  C   UNL     1       0.458  -0.240  -2.638  0.00  0.00    +0.006 A 
ATOM      7  C   UNL     1       1.237  -0.791  -3.641  0.00  0.00    +0.000 A 
ATOM      8  C   UNL     1       2.315  -1.593  -3.313  0.00  0.00    +0.002 A 
ATOM      9  C   UNL     1       2.618  -1.847  -1.992  0.00  0.00    +0.024 A 
ATOM     10  C   UNL     1       1.838  -1.295  -0.976  0.00  0.00    +0.038 A 
ATOM     11  N   UNL     1       1.945  -1.407   0.409  0.00  0.00    -0.306 N 
ATOM     12  C   UNL     1       0.959  -0.695   1.054  0.00  0.00    +0.022 C 
ATOM     13  C   UNL     1       0.780  -0.594   2.382  0.00  0.00    +0.041 C 
ATOM     14  C   UNL     1       2.980  -2.186   1.095  0.00  0.00    +0.135 C 
ATOM     15  C   UNL     1      -1.330  -0.546   0.058  0.00  0.00    +0.022 C 
ENDBRANCH   1  13
BRANCH   2  16
ATOM     16  N   UNL     1       2.493  -1.700   5.458  0.00  0.00    -0.203 N 
ATOM     17  C   UNL     1       2.261  -1.700   6.786  0.00  0.00    +0.263 C 
ATOM     18  O   UNL     1       1.227  -1.229   7.222  0.00  0.00    -0.268 OA
ATOM     19  H   UNL     1       3.317  -2.075   5.111  0.00  0.00    +0.178 HD
BRANCH  17  20
ATOM     20  C   UNL     1       3.260  -2.270   7.710  0.00  0.00    +0.039 A 
ATOM     21  C   UNL     1       4.450  -2.806   7.212  0.00  0.00    +0.016 A 
ATOM     22  C   UNL     1       5.380  -3.337   8.078  0.00  0.00    +0.046 A 
ATOM     23  C   UNL     1       5.136  -3.340   9.446  0.00  0.00    +0.117 A 
ATOM     24  C   UNL     1       3.953  -2.809   9.946  0.00  0.00    +0.046 A 
ATOM     25  C   UNL     1       3.021  -2.270   9.087  0.00  0.00    +0.016 A 
BRANCH  23  26
ATOM     26  O   UNL     1       6.054  -3.865  10.296  0.00  0.00    -0.507 OA
ATOM     27  H   UNL     1       6.707  -3.225  10.613  0.00  0.00    +0.292 HD
ENDBRANCH  23  26
ENDBRANCH  17  20
ENDBRANCH   2  16
TORSDOF 4
