REMARK  Name = ZINC45773727
REMARK  9 active torsions:
REMARK  status: ('A' for Active; 'I' for Inactive)
REMARK    1  A    between atoms: C_1  and  C_2
REMARK    2  A    between atoms: C_2  and  C_4
REMARK    3  A    between atoms: C_2  and  O_16
REMARK    4  A    between atoms: N_6  and  C_7
REMARK    5  A    between atoms: C_12  and  N_13
REMARK    6  A    between atoms: O_16  and  C_17
REMARK    7  A    between atoms: C_17  and  C_19
REMARK    8  A    between atoms: N_24  and  S_26
REMARK    9  A    between atoms: S_26  and  C_29
REMARK                            x       y       z     vdW  Elec       q    Type
REMARK                         _______ _______ _______ _____ _____    ______ ____
ROOT
ATOM      1  C   UNL     1      -0.044  -0.679   2.262  0.00  0.00    +0.312 C 
ATOM      2  O   UNL     1      -1.232  -0.461   2.244  0.00  0.00    -0.250 OA
ENDROOT
BRANCH   1   3
ATOM      3  C   UNL     1       0.611  -1.183   3.522  0.00  0.00    +0.113 C 
ATOM      4  C   UNL     1       1.260  -2.543   3.252  0.00  0.00    +0.017 C 
ATOM      5  C   UNL     1       1.953  -3.041   4.522  0.00  0.00    +0.018 C 
ATOM      6  C   UNL     1       0.912  -3.214   5.633  0.00  0.00    +0.109 C 
ATOM      7  N   UNL     1       0.183  -1.949   5.799  0.00  0.00    -0.176 NA
ATOM      8  C   UNL     1      -0.445  -1.334   4.622  0.00  0.00    +0.124 C 
BRANCH   7   9
ATOM      9  S   UNL     1       0.072  -1.228   7.286  0.00  0.00    +0.061 S 
ATOM     10  O   UNL     1      -1.087  -0.407   7.254  0.00  0.00    -0.153 OA
ATOM     11  O   UNL     1       0.249  -2.257   8.250  0.00  0.00    -0.153 OA
BRANCH   9  12
ATOM     12  C   UNL     1       1.453  -0.145   7.445  0.00  0.00    +0.106 A 
ATOM     13  C   UNL     1       2.638  -0.612   7.981  0.00  0.00    +0.030 A 
ATOM     14  C   UNL     1       3.722   0.237   8.107  0.00  0.00    +0.022 A 
ATOM     15  C   UNL     1       3.619   1.554   7.695  0.00  0.00    +0.041 A 
ATOM     16  C   UNL     1       2.433   2.020   7.159  0.00  0.00    +0.022 A 
ATOM     17  C   UNL     1       1.352   1.169   7.029  0.00  0.00    +0.030 A 
ATOM     18 CL   UNL     1       4.980   2.621   7.852  0.00  0.00    -0.084 Cl
ENDBRANCH   9  12
ENDBRANCH   7   9
ENDBRANCH   1   3
BRANCH   1  19
ATOM     19  O   UNL     1       0.693  -0.471   1.159  0.00  0.00    -0.452 OA
BRANCH  19  21
ATOM     20  C   UNL     1       0.005   1.537   0.005  0.00  0.00    +0.062 C 
ATOM     21  C   UNL     1       0.007   0.007   0.001  0.00  0.00    +0.259 C 
BRANCH  21  22
ATOM     22  C   UNL     1       0.706  -0.491  -1.238  0.00  0.00    +0.258 C 
ATOM     23  O   UNL     1       1.744  -1.110  -1.142  0.00  0.00    -0.271 OA
ATOM     24  N   UNL     1       0.177  -0.247  -2.454  0.00  0.00    -0.281 N 
ATOM     25  H   UNL     1      -0.693   0.177  -2.529  0.00  0.00    +0.155 HD
BRANCH  24  26
ATOM     26  C   UNL     1       0.881  -0.607  -3.608  0.00  0.00    +0.064 A 
ATOM     27  C   UNL     1       2.266  -0.713  -3.574  0.00  0.00    +0.025 A 
ATOM     28  C   UNL     1       2.958  -1.068  -4.714  0.00  0.00    +0.002 A 
ATOM     29  C   UNL     1       2.275  -1.317  -5.891  0.00  0.00    +0.002 A 
ATOM     30  C   UNL     1       0.896  -1.212  -5.928  0.00  0.00    +0.034 A 
ATOM     31  C   UNL     1       0.197  -0.864  -4.789  0.00  0.00    +0.147 A 
BRANCH  31  32
ATOM     32  N   UNL     1      -1.278  -0.759  -4.828  0.00  0.00    +0.058 N 
ATOM     33  O   UNL     1      -1.880  -1.069  -5.830  0.00  0.00    -0.126 OA
ATOM     34  O   UNL     1      -1.882  -0.363  -3.859  0.00  0.00    -0.126 OA
ENDBRANCH  31  32
ENDBRANCH  24  26
ENDBRANCH  21  22
ENDBRANCH  19  21
ENDBRANCH   1  19
TORSDOF 8
