REMARK  Name = ZINC19310248
REMARK  5 active torsions:
REMARK  status: ('A' for Active; 'I' for Inactive)
REMARK    1  A    between atoms: C_1  and  C_2
REMARK    2  A    between atoms: C_4  and  O_5
REMARK    3  A    between atoms: C_14  and  C_16
REMARK    4  A    between atoms: C_21  and  S_22
REMARK    5  A    between atoms: S_22  and  C_23
REMARK                            x       y       z     vdW  Elec       q    Type
REMARK                         _______ _______ _______ _____ _____    ______ ____
ROOT
ATOM      1  C   UNL     1       3.613   3.395  -0.664  0.00  0.00    +0.045 C 
ATOM      2  C   UNL     1       2.429   3.765   0.191  0.00  0.00    -0.033 A 
ATOM      3  C   UNL     1       2.508   4.779   1.092  0.00  0.00    +0.091 A 
ATOM      4  C   UNL     1       1.386   5.107   1.880  0.00  0.00    +0.285 A 
ATOM      5  O   UNL     1       0.226   4.441   1.767  0.00  0.00    -0.425 OA
ATOM      6  C   UNL     1       0.080   3.424   0.891  0.00  0.00    +0.141 A 
ATOM      7  C   UNL     1       1.161   3.043   0.073  0.00  0.00    +0.021 A 
ATOM      8  C   UNL     1       1.014   1.989  -0.836  0.00  0.00    +0.013 A 
ATOM      9  C   UNL     1      -0.179   1.333  -0.928  0.00  0.00    +0.024 A 
ATOM     10  C   UNL     1      -1.252   1.701  -0.116  0.00  0.00    +0.037 A 
ATOM     11  C   UNL     1      -1.125   2.747   0.787  0.00  0.00    +0.070 A 
ATOM     12  N   UNL     1      -2.462   1.017  -0.216  0.00  0.00    -0.281 N 
ATOM     13  C   UNL     1      -3.625   1.675  -0.042  0.00  0.00    +0.249 C 
ATOM     14  O   UNL     1      -3.623   2.881   0.118  0.00  0.00    -0.270 OA
ATOM     15  H   UNL     1      -2.468  -0.061  -0.438  0.00  0.00    +0.155 HD
ENDROOT
BRANCH  13  16
ATOM     16  C   UNL     1      -4.899   0.934  -0.044  0.00  0.00    +0.050 A 
ATOM     17  C   UNL     1      -4.907  -0.451  -0.232  0.00  0.00    +0.014 A 
ATOM     18  C   UNL     1      -6.100  -1.138  -0.227  0.00  0.00    +0.001 A 
ATOM     19  C   UNL     1      -7.297  -0.462  -0.048  0.00  0.00    +0.001 A 
ATOM     20  C   UNL     1      -7.308   0.905   0.134  0.00  0.00    +0.015 A 
ATOM     21  C   UNL     1      -6.113   1.616   0.138  0.00  0.00    +0.020 A 
BRANCH  21  22
ATOM     22  S   UNL     1      -6.123   3.363   0.369  0.00  0.00    -0.119 S 
BRANCH  22  23
ATOM     23  C   UNL     1      -7.866   3.754   0.685  0.00  0.00    +0.074 C 
ATOM     24  C   UNL     1      -8.048   5.280   0.720  0.00  0.00    +0.039 C 
ATOM     25  C   UNL     1      -9.460   5.586   1.297  0.00  0.00    +0.167 C 
ATOM     26  S   UNL     1      -9.551   4.337   2.647  0.00  0.00    -0.030 S 
ATOM     27  O   UNL     1      -9.085   4.925   3.854  0.00  0.00    -0.174 OA
ATOM     28  O   UNL     1     -10.829   3.717   2.619  0.00  0.00    -0.174 OA
ATOM     29  C   UNL     1      -8.292   3.140   2.041  0.00  0.00    +0.180 C 
ENDBRANCH  22  23
ENDBRANCH  21  22
ENDBRANCH  13  16
BRANCH   4  30
ATOM     30  O   UNL     1       1.471   6.018   2.684  0.00  0.00    -0.480 OA
ATOM     31  H   UNL     1       0.604   6.286   3.306  0.00  0.00    +0.295 HD
ENDBRANCH   4  30
TORSDOF 4
