REMARK  Name = ZINC38894079
REMARK  11 active torsions:
REMARK  status: ('A' for Active; 'I' for Inactive)
REMARK    1  A    between atoms: C_1  and  C_2
REMARK    2  A    between atoms: C_2  and  C_3
REMARK    3  A    between atoms: C_3  and  C_4
REMARK    4  A    between atoms: C_4  and  O_5
REMARK    5  A    between atoms: O_5  and  C_6
REMARK    6  A    between atoms: C_6  and  C_8
REMARK    7  A    between atoms: C_11  and  N_14
REMARK    8  A    between atoms: C_15  and  C_17
REMARK    9  A    between atoms: N_22  and  C_24
REMARK   10  A    between atoms: C_24  and  C_25
REMARK   11  A    between atoms: C_27  and  C_30
REMARK                            x       y       z     vdW  Elec       q    Type
REMARK                         _______ _______ _______ _____ _____    ______ ____
ROOT
ATOM      1  C   UNL     1      -9.639  -8.043  -0.159  0.00  0.00    +0.059 C 
ATOM      2  C   UNL     1     -10.335  -7.493  -1.407  0.00  0.00    +0.009 C 
ATOM      3  C   UNL     1     -11.710  -8.153  -1.546  0.00  0.00    -0.018 C 
ATOM      4  C   UNL     1     -11.536  -9.672  -1.601  0.00  0.00    -0.078 C 
ATOM      5  N   UNL     1     -10.889 -10.140  -0.370  0.00  0.00    +0.386 N 
ATOM      6  C   UNL     1      -9.542  -9.567  -0.265  0.00  0.00    -0.065 C 
ATOM      7  H   UNL     1     -11.438  -9.853   0.427  0.00  0.00    -0.081 HD
ENDROOT
BRANCH   1   9
ATOM      8  N   UNL     1      -8.093  -6.123   0.046  0.00  0.00    -0.285 N 
ATOM      9  C   UNL     1      -8.254  -7.457  -0.056  0.00  0.00    +0.218 C 
ATOM     10  O   UNL     1      -7.285  -8.186  -0.064  0.00  0.00    -0.275 OA
ATOM     11  H   UNL     1      -8.869  -5.546   0.130  0.00  0.00    +0.155 HD
BRANCH   8  15
ATOM     12  C   UNL     1      -4.267  -4.477   0.000  0.00  0.00    +0.059 A 
ATOM     13  C   UNL     1      -4.547  -5.622  -0.752  0.00  0.00    +0.017 A 
ATOM     14  C   UNL     1      -5.812  -6.163  -0.734  0.00  0.00    +0.024 A 
ATOM     15  C   UNL     1      -6.813  -5.572   0.031  0.00  0.00    +0.033 A 
ATOM     16  C   UNL     1      -6.539  -4.432   0.780  0.00  0.00    +0.024 A 
ATOM     17  C   UNL     1      -5.274  -3.889   0.772  0.00  0.00    +0.017 A 
BRANCH  12  18
ATOM     18  C   UNL     1      -2.913  -3.894  -0.016  0.00  0.00    +0.339 C 
ATOM     19  O   UNL     1      -2.670  -2.902   0.642  0.00  0.00    -0.245 OA
BRANCH  18  20
ATOM     20  O   UNL     1      -1.944  -4.462  -0.760  0.00  0.00    -0.461 OA
BRANCH  20  21
ATOM     21  C   UNL     1      -0.655  -3.845  -0.729  0.00  0.00    +0.232 C 
BRANCH  21  22
ATOM     22  C   UNL     1       0.306  -4.624  -1.629  0.00  0.00    +0.041 C 
BRANCH  22  24
ATOM     23  C   UNL     1       2.646  -4.743  -2.494  0.00  0.00    +0.004 C 
ATOM     24  C   UNL     1       1.685  -3.963  -1.595  0.00  0.00    -0.000 C 
ENDBRANCH  22  24
ENDBRANCH  21  22
ENDBRANCH  20  21
ENDBRANCH  18  20
ENDBRANCH  12  18
ENDBRANCH   8  15
ENDBRANCH   1   9
BRANCH   5  25
ATOM     25  C   UNL     1     -10.795 -11.606  -0.394  0.00  0.00    +0.022 C 
BRANCH  25  26
ATOM     26  C   UNL     1     -12.181 -12.198  -0.367  0.00  0.00    +0.211 A 
ATOM     27  N   UNL     1     -12.905 -12.487  -1.410  0.00  0.00    -0.193 NA
ATOM     28  C   UNL     1     -14.087 -13.000  -1.022  0.00  0.00    +0.202 A 
ATOM     29  N   UNL     1     -14.117 -13.039   0.287  0.00  0.00    -0.056 NA
ATOM     30  O   UNL     1     -12.872 -12.523   0.734  0.00  0.00    -0.340 OA
BRANCH  28  31
ATOM     31  C   UNL     1     -15.175 -13.447  -1.926  0.00  0.00    +0.023 A 
ATOM     32  C   UNL     1     -15.017 -13.357  -3.308  0.00  0.00    +0.014 A 
ATOM     33  C   UNL     1     -16.031 -13.774  -4.145  0.00  0.00    +0.039 A 
ATOM     34  C   UNL     1     -17.206 -14.281  -3.614  0.00  0.00    +0.123 A 
ATOM     35  C   UNL     1     -17.368 -14.372  -2.241  0.00  0.00    +0.039 A 
ATOM     36  C   UNL     1     -16.356 -13.962  -1.397  0.00  0.00    +0.014 A 
ATOM     37  F   UNL     1     -18.196 -14.688  -4.438  0.00  0.00    -0.205 F 
ENDBRANCH  28  31
ENDBRANCH  25  26
ENDBRANCH   5  25
TORSDOF 10
