REMARK  Name = ZINC39469169
REMARK  3 active torsions:
REMARK  status: ('A' for Active; 'I' for Inactive)
REMARK    1  A    between atoms: C_4  and  O_7
REMARK    2  A    between atoms: O_7  and  S_8
REMARK    3  A    between atoms: S_8  and  C_11
REMARK                            x       y       z     vdW  Elec       q    Type
REMARK                         _______ _______ _______ _____ _____    ______ ____
ROOT
ATOM      1  C   UNL     1       3.071  -2.384   1.880  0.00  0.00    +0.138 C 
ATOM      2  C   UNL     1       3.652  -3.562   2.105  0.00  0.00    +0.007 C 
ATOM      3  C   UNL     1       2.799  -4.716   2.552  0.00  0.00    +0.006 C 
ATOM      4  C   UNL     1       3.618  -5.775   3.281  0.00  0.00    -0.046 C 
ATOM      5  N   UNL     1       2.749  -6.903   3.661  0.00  0.00    +0.399 N 
ATOM      6  C   UNL     1       1.669  -6.472   4.546  0.00  0.00    -0.020 C 
ATOM      7  C   UNL     1       0.826  -5.366   3.895  0.00  0.00    -0.003 C 
ATOM      8  C   UNL     1       1.730  -4.195   3.523  0.00  0.00    +0.017 C 
ATOM      9  C   UNL     1       0.958  -3.095   2.848  0.00  0.00    -0.006 C 
ATOM     10  C   UNL     1       1.616  -2.239   2.066  0.00  0.00    +0.042 C 
ATOM     11 BR   UNL     1       0.680  -0.846   1.194  0.00  0.00    -0.049 Br
ATOM     12  C   UNL     1       0.707  -7.625   4.861  0.00  0.00    +0.159 C 
ATOM     13  O   UNL     1       1.422  -8.668   5.547  0.00  0.00    -0.297 OA
ATOM     14  P   UNL     1       2.817  -9.188   4.890  0.00  0.00    +0.421 P 
ATOM     15  O   UNL     1       2.532 -10.189   3.749  0.00  0.00    -0.239 OA
ATOM     16  N   UNL     1       3.560  -7.817   4.301  0.00  0.00    -0.267 NA
ATOM     17  O   UNL     1       3.705  -9.846   5.970  0.00  0.00    -0.128 OA
ATOM     18  H   UNL     1       4.515  -7.669   4.385  0.00  0.00    +0.113 HD
ATOM     19  H   UNL     1       2.359  -7.322   2.830  0.00  0.00    -0.055 HD
ENDROOT
BRANCH   1  20
ATOM     20  S   UNL     1       4.038  -1.003   1.368  0.00  0.00    +0.152 S 
ATOM     21  O   UNL     1       5.394  -1.430   1.381  0.00  0.00    -0.131 OA
ATOM     22  O   UNL     1       3.584   0.113   2.122  0.00  0.00    -0.131 OA
BRANCH  20  23
ATOM     23  O   UNL     1       3.685  -0.720  -0.085  0.00  0.00    -0.342 OA
BRANCH  23  27
ATOM     24  C   UNL     1       5.305  -3.408  -2.762  0.00  0.00    +0.000 A 
ATOM     25  C   UNL     1       4.066  -3.655  -2.200  0.00  0.00    +0.004 A 
ATOM     26  C   UNL     1       3.522  -2.757  -1.303  0.00  0.00    +0.048 A 
ATOM     27  C   UNL     1       4.219  -1.605  -0.967  0.00  0.00    +0.157 A 
ATOM     28  C   UNL     1       5.461  -1.359  -1.532  0.00  0.00    +0.048 A 
ATOM     29  C   UNL     1       6.001  -2.261  -2.429  0.00  0.00    +0.004 A 
ENDBRANCH  23  27
ENDBRANCH  20  23
ENDBRANCH   1  20
TORSDOF 3
