REMARK  Name = ZINC41584630
REMARK  5 active torsions:
REMARK  status: ('A' for Active; 'I' for Inactive)
REMARK    1  A    between atoms: C_5  and  C_7
REMARK    2  A    between atoms: C_14  and  O_32
REMARK    3  A    between atoms: C_15  and  C_18
REMARK    4  A    between atoms: C_18  and  N_19
REMARK    5  A    between atoms: C_24  and  C_26
REMARK                            x       y       z     vdW  Elec       q    Type
REMARK                         _______ _______ _______ _____ _____    ______ ____
ROOT
ATOM      1  C   UNL     1      -8.731  -5.273  -0.796  0.00  0.00    +0.059 C 
ATOM      2  C   UNL     1      -7.395  -5.069  -0.913  0.00  0.00    +0.176 C 
ATOM      3  C   UNL     1      -6.387  -6.085  -1.257  0.00  0.00    +0.231 C 
ATOM      4  O   UNL     1      -6.570  -7.266  -1.494  0.00  0.00    -0.283 OA
ATOM      5  C   UNL     1      -5.108  -5.352  -1.252  0.00  0.00    +0.068 A 
ATOM      6  C   UNL     1      -3.788  -5.735  -1.496  0.00  0.00    +0.019 A 
ATOM      7  C   UNL     1      -2.786  -4.811  -1.415  0.00  0.00    +0.046 A 
ATOM      8  C   UNL     1      -3.078  -3.489  -1.090  0.00  0.00    +0.122 A 
ATOM      9  C   UNL     1      -4.383  -3.095  -0.846  0.00  0.00    +0.020 A 
ATOM     10  C   UNL     1      -5.415  -4.022  -0.924  0.00  0.00    +0.144 A 
ATOM     11  O   UNL     1      -6.747  -3.893  -0.740  0.00  0.00    -0.451 OA
ENDROOT
BRANCH   1  16
ATOM     12  C   UNL     1      -9.968  -1.838   0.058  0.00  0.00    +0.001 A 
ATOM     13  C   UNL     1     -11.329  -1.983  -0.154  0.00  0.00    +0.001 A 
ATOM     14  C   UNL     1     -11.847  -3.196  -0.574  0.00  0.00    +0.016 A 
ATOM     15  C   UNL     1     -11.008  -4.271  -0.786  0.00  0.00    +0.025 A 
ATOM     16  C   UNL     1      -9.631  -4.133  -0.574  0.00  0.00    -0.007 A 
ATOM     17  C   UNL     1      -9.117  -2.902  -0.149  0.00  0.00    +0.009 A 
ATOM     18 BR   UNL     1     -11.718  -5.928  -1.359  0.00  0.00    -0.050 Br
ENDBRANCH   1  16
BRANCH   8  19
ATOM     19  O   UNL     1      -2.074  -2.578  -1.011  0.00  0.00    -0.506 OA
ATOM     20  H   UNL     1      -1.887  -2.126  -1.846  0.00  0.00    +0.292 HD
ENDBRANCH   8  19
BRANCH   9  21
ATOM     21  C   UNL     1      -4.684  -1.660  -0.495  0.00  0.00    -0.035 C 
BRANCH  21  22
ATOM     22  N   UNL     1      -4.401  -1.435   0.929  0.00  0.00    +0.387 N 
ATOM     23  C   UNL     1      -5.316  -2.245   1.742  0.00  0.00    -0.078 C 
ATOM     24  C   UNL     1      -4.973  -2.076   3.224  0.00  0.00    -0.019 C 
ATOM     25  C   UNL     1      -5.114  -0.601   3.610  0.00  0.00    -0.003 C 
ATOM     26  C   UNL     1      -4.210   0.242   2.705  0.00  0.00    -0.011 C 
ATOM     27  C   UNL     1      -4.582  -0.013   1.243  0.00  0.00    -0.036 C 
ATOM     28  H   UNL     1      -3.449  -1.704   1.128  0.00  0.00    -0.080 HD
BRANCH  27  29
ATOM     29  C   UNL     1      -3.696   0.815   0.348  0.00  0.00    -0.043 A 
ATOM     30  C   UNL     1      -4.216   1.891  -0.355  0.00  0.00    +0.005 A 
ATOM     31  C   UNL     1      -3.364   2.624  -1.166  0.00  0.00    +0.020 A 
ATOM     32  C   UNL     1      -2.033   2.261  -1.246  0.00  0.00    +0.111 A 
ATOM     33  N   UNL     1      -1.572   1.232  -0.562  0.00  0.00    -0.263 NA
ATOM     34  C   UNL     1      -2.353   0.516   0.223  0.00  0.00    +0.112 A 
ENDBRANCH  27  29
ENDBRANCH  21  22
ENDBRANCH   9  21
TORSDOF 5
