REMARK  Name = ZINC19475620
REMARK  4 active torsions:
REMARK  status: ('A' for Active; 'I' for Inactive)
REMARK    1  A    between atoms: C_10  and  O_12
REMARK    2  A    between atoms: O_12  and  C_13
REMARK    3  A    between atoms: C_13  and  C_14
REMARK    4  A    between atoms: N_15  and  O_16
REMARK                            x       y       z     vdW  Elec       q    Type
REMARK                         _______ _______ _______ _____ _____    ______ ____
ROOT
ATOM      1  C   UNL     1      -2.328   2.230   3.423  0.00  0.00    +0.000 A 
ATOM      2  C   UNL     1      -2.943   1.749   2.282  0.00  0.00    +0.000 A 
ATOM      3  C   UNL     1      -2.178   1.386   1.193  0.00  0.00    +0.006 A 
ATOM      4  C   UNL     1      -0.794   1.500   1.233  0.00  0.00    -0.016 A 
ATOM      5  C   UNL     1      -0.182   1.982   2.368  0.00  0.00    -0.042 A 
ATOM      6  C   UNL     1      -0.954   2.346   3.464  0.00  0.00    +0.004 A 
ATOM      7  C   UNL     1       1.312   2.139   2.479  0.00  0.00    +0.035 C 
ATOM      8  C   UNL     1       2.019   1.317   1.404  0.00  0.00    +0.007 C 
ATOM      9  C   UNL     1       1.393   1.656   0.046  0.00  0.00    +0.037 C 
ATOM     10  C   UNL     1      -0.021   1.080   0.011  0.00  0.00    +0.149 C 
ENDROOT
BRANCH  10  11
ATOM     11  O   UNL     1      -0.694   1.554  -1.158  0.00  0.00    -0.364 OA
BRANCH  11  12
ATOM     12  C   UNL     1      -0.495   0.739  -2.314  0.00  0.00    +0.235 C 
BRANCH  12  13
ATOM     13  C   UNL     1      -1.152   1.387  -3.505  0.00  0.00    +0.158 C 
ATOM     14  N   UNL     1      -1.772   2.513  -3.368  0.00  0.00    -0.074 NA
ATOM     15  N   UNL     1      -1.093   0.780  -4.740  0.00  0.00    -0.342 N 
ATOM     16  H   UNL     1      -1.573   1.253  -5.609  0.00  0.00    +0.144 HD
ATOM     17  H   UNL     1      -0.565  -0.178  -4.857  0.00  0.00    +0.144 HD
BRANCH  14  18
ATOM     18  O   UNL     1      -2.389   3.122  -4.487  0.00  0.00    -0.408 OA
ATOM     19  H   UNL     1      -2.917   4.080  -4.370  0.00  0.00    +0.328 HD
ENDBRANCH  14  18
ENDBRANCH  12  13
ENDBRANCH  11  12
ENDBRANCH  10  11
TORSDOF 4
