REMARK  Name = ZINC10538590
REMARK  13 active torsions:
REMARK  status: ('A' for Active; 'I' for Inactive)
REMARK    1  A    between atoms: C_1  and  C_2
REMARK    2  A    between atoms: C_2  and  C_3
REMARK    3  A    between atoms: C_3  and  C_4
REMARK    4  A    between atoms: C_4  and  N_5
REMARK    5  A    between atoms: C_9  and  C_31
REMARK    6  A    between atoms: C_10  and  C_30
REMARK    7  A    between atoms: C_14  and  S_15
REMARK    8  A    between atoms: S_15  and  C_16
REMARK    9  A    between atoms: C_16  and  C_17
REMARK   10  A    between atoms: C_22  and  O_28
REMARK   11  A    between atoms: C_24  and  O_26
REMARK   12  A    between atoms: O_26  and  C_27
REMARK   13  A    between atoms: O_28  and  C_29
REMARK                            x       y       z     vdW  Elec       q    Type
REMARK                         _______ _______ _______ _____ _____    ______ ____
ROOT
ATOM      1  N   UNL     1      -0.118   1.163   4.053  0.00  0.00    -0.287 N 
ATOM      2  C   UNL     1       0.649   0.637   5.026  0.00  0.00    +0.263 A 
ATOM      3  O   UNL     1       0.374   0.828   6.199  0.00  0.00    -0.267 OA
ATOM      4  C   UNL     1       1.790  -0.147   4.668  0.00  0.00    +0.075 A 
ATOM      5  C   UNL     1       2.757  -0.810   5.526  0.00  0.00    -0.026 A 
ATOM      6  C   UNL     1       3.762  -1.501   4.968  0.00  0.00    -0.008 A 
ATOM      7  S   UNL     1       3.477  -1.308   3.219  0.00  0.00    -0.073 S 
ATOM      8  C   UNL     1       2.015  -0.304   3.287  0.00  0.00    +0.117 A 
ATOM      9  N   UNL     1       1.216   0.238   2.377  0.00  0.00    -0.216 NA
ATOM     10  C   UNL     1       0.174   0.961   2.735  0.00  0.00    +0.173 A 
ATOM     11  C   UNL     1       4.868  -2.259   5.656  0.00  0.00    +0.052 C 
ATOM     12  C   UNL     1       2.632  -0.722   7.025  0.00  0.00    +0.045 C 
ENDROOT
BRANCH   1  13
ATOM     13  C   UNL     1      -1.287   1.967   4.415  0.00  0.00    +0.127 C 
BRANCH  13  14
ATOM     14  C   UNL     1      -2.512   1.059   4.542  0.00  0.00    +0.021 C 
BRANCH  14  16
ATOM     15  C   UNL     1      -4.958   0.990   5.047  0.00  0.00    +0.004 C 
ATOM     16  C   UNL     1      -3.733   1.899   4.920  0.00  0.00    -0.002 C 
ENDBRANCH  14  16
ENDBRANCH  13  14
ENDBRANCH   1  13
BRANCH  10  17
ATOM     17  S   UNL     1      -0.860   1.669   1.497  0.00  0.00    -0.078 S 
BRANCH  17  18
ATOM     18  C   UNL     1      -0.013   1.086   0.008  0.00  0.00    +0.173 C 
BRANCH  18  19
ATOM     19  C   UNL     1      -0.742   1.585  -1.213  0.00  0.00    +0.230 C 
ATOM     20  O   UNL     1      -1.736   2.268  -1.089  0.00  0.00    -0.274 OA
ATOM     21  N   UNL     1      -0.288   1.272  -2.443  0.00  0.00    -0.254 N 
ATOM     22  C   UNL     1      -0.960   1.732  -3.568  0.00  0.00    +0.228 A 
ATOM     23  N   UNL     1      -2.047   2.473  -3.413  0.00  0.00    -0.179 NA
ATOM     24  C   UNL     1      -2.712   2.935  -4.467  0.00  0.00    +0.223 A 
ATOM     25  C   UNL     1      -2.259   2.622  -5.744  0.00  0.00    +0.134 A 
ATOM     26  C   UNL     1      -1.117   1.838  -5.867  0.00  0.00    +0.223 A 
ATOM     27  N   UNL     1      -0.500   1.415  -4.769  0.00  0.00    -0.179 NA
ATOM     28  H   UNL     1       0.507   0.726  -2.543  0.00  0.00    +0.158 HD
BRANCH  26  29
ATOM     29  O   UNL     1      -0.640   1.509  -7.092  0.00  0.00    -0.479 OA
ATOM     30  C   UNL     1       0.538   0.700  -7.134  0.00  0.00    +0.279 C 
ENDBRANCH  26  29
BRANCH  24  31
ATOM     31  O   UNL     1      -3.820   3.697  -4.299  0.00  0.00    -0.479 OA
ATOM     32  C   UNL     1      -4.220   3.973  -2.955  0.00  0.00    +0.279 C 
ENDBRANCH  24  31
ENDBRANCH  18  19
ENDBRANCH  17  18
ENDBRANCH  10  17
TORSDOF 8
