REMARK  Name = ZINC39503263
REMARK  8 active torsions:
REMARK  status: ('A' for Active; 'I' for Inactive)
REMARK    1  A    between atoms: C_4  and  C_7
REMARK    2  A    between atoms: C_7  and  N_8
REMARK    3  A    between atoms: C_10  and  S_29
REMARK    4  A    between atoms: C_16  and  S_19
REMARK    5  A    between atoms: S_19  and  O_22
REMARK    6  A    between atoms: O_22  and  C_23
REMARK    7  A    between atoms: S_29  and  O_32
REMARK    8  A    between atoms: O_32  and  C_33
REMARK                            x       y       z     vdW  Elec       q    Type
REMARK                         _______ _______ _______ _____ _____    ______ ____
ROOT
ATOM      1  N   UNL     1       4.344  -0.716   1.539  0.00  0.00    +0.388 N 
ATOM      2  C   UNL     1       3.464  -1.733   2.158  0.00  0.00    -0.048 C 
ATOM      3  C   UNL     1       4.388  -2.526   3.116  0.00  0.00    +0.154 C 
ATOM      4  C   UNL     1       5.716  -2.566   2.313  0.00  0.00    +0.016 C 
ATOM      5  C   UNL     1       5.728  -1.203   1.602  0.00  0.00    -0.061 C 
ATOM      6  C   UNL     1       6.322  -1.340   0.196  0.00  0.00    -0.010 C 
ATOM      7  C   UNL     1       7.565  -0.424   0.156  0.00  0.00    +0.028 C 
ATOM      8  C   UNL     1       7.298   0.626   1.264  0.00  0.00    +0.170 C 
ATOM      9  C   UNL     1       6.614  -0.212   2.375  0.00  0.00    +0.018 C 
ATOM     10  H   UNL     1       4.265   0.153   2.046  0.00  0.00    -0.080 HD
ENDROOT
BRANCH   8  11
ATOM     11  S   UNL     1       8.856   1.341   1.860  0.00  0.00    +0.123 S 
ATOM     12  O   UNL     1       8.592   2.401   2.769  0.00  0.00    -0.136 OA
ATOM     13  O   UNL     1       9.771   0.307   2.199  0.00  0.00    -0.136 OA
BRANCH  11  14
ATOM     14  O   UNL     1       9.467   2.017   0.641  0.00  0.00    -0.346 OA
BRANCH  14  15
ATOM     15  C   UNL     1       8.866   3.186   0.298  0.00  0.00    +0.156 A 
ATOM     16  C   UNL     1       7.797   3.184  -0.586  0.00  0.00    +0.048 A 
ATOM     17  C   UNL     1       7.187   4.373  -0.933  0.00  0.00    +0.004 A 
ATOM     18  C   UNL     1       7.641   5.566  -0.401  0.00  0.00    +0.000 A 
ATOM     19  C   UNL     1       8.707   5.571   0.480  0.00  0.00    +0.004 A 
ATOM     20  C   UNL     1       9.316   4.383   0.835  0.00  0.00    +0.048 A 
ENDBRANCH  14  15
ENDBRANCH  11  14
ENDBRANCH   8  11
BRANCH   3  21
ATOM     21  S   UNL     1       3.748  -4.199   3.400  0.00  0.00    +0.122 S 
ATOM     22  O   UNL     1       3.580  -4.875   2.162  0.00  0.00    -0.137 OA
ATOM     23  O   UNL     1       4.446  -4.815   4.473  0.00  0.00    -0.137 OA
BRANCH  21  24
ATOM     24  O   UNL     1       2.334  -3.993   3.924  0.00  0.00    -0.346 OA
BRANCH  24  25
ATOM     25  C   UNL     1       2.278  -3.573   5.215  0.00  0.00    +0.156 A 
ATOM     26  C   UNL     1       2.304  -4.498   6.249  0.00  0.00    +0.048 A 
ATOM     27  C   UNL     1       2.248  -4.069   7.561  0.00  0.00    +0.004 A 
ATOM     28  C   UNL     1       2.166  -2.718   7.844  0.00  0.00    +0.000 A 
ATOM     29  C   UNL     1       2.140  -1.794   6.816  0.00  0.00    +0.004 A 
ATOM     30  C   UNL     1       2.202  -2.218   5.503  0.00  0.00    +0.048 A 
ENDBRANCH  24  25
ENDBRANCH  21  24
ENDBRANCH   3  21
BRANCH   1  31
ATOM     31  C   UNL     1       3.954  -0.511   0.138  0.00  0.00    -0.042 C 
BRANCH  31  35
ATOM     32  C   UNL     1       0.002   1.103  -0.023  0.00  0.00    +0.000 A 
ATOM     33  C   UNL     1       1.085   1.942   0.165  0.00  0.00    +0.000 A 
ATOM     34  C   UNL     1       2.363   1.420   0.217  0.00  0.00    +0.002 A 
ATOM     35  C   UNL     1       2.560   0.059   0.082  0.00  0.00    -0.064 A 
ATOM     36  C   UNL     1       1.478  -0.781  -0.105  0.00  0.00    +0.002 A 
ATOM     37  C   UNL     1       0.199  -0.259  -0.158  0.00  0.00    +0.000 A 
ENDBRANCH  31  35
ENDBRANCH   1  31
TORSDOF 8
