REMARK  Name = ZINC59345128
REMARK  9 active torsions:
REMARK  status: ('A' for Active; 'I' for Inactive)
REMARK    1  A    between atoms: C_1  and  C_2
REMARK    2  A    between atoms: C_2  and  C_3
REMARK    3  A    between atoms: C_3  and  C_4
REMARK    4  A    between atoms: C_4  and  C_5
REMARK    5  A    between atoms: N_7  and  C_8
REMARK    6  A    between atoms: C_11  and  C_14
REMARK    7  A    between atoms: N_16  and  C_17
REMARK    8  A    between atoms: C_20  and  S_23
REMARK    9  A    between atoms: S_23  and  N_26
REMARK                            x       y       z     vdW  Elec       q    Type
REMARK                         _______ _______ _______ _____ _____    ______ ____
ROOT
ATOM      1  C   UNL     1       5.151  -7.716  -8.583  0.00  0.00    +0.034 A 
ATOM      2  C   UNL     1       5.609  -6.609  -9.285  0.00  0.00    +0.025 A 
ATOM      3  C   UNL     1       6.253  -6.779 -10.495  0.00  0.00    +0.030 A 
ATOM      4  C   UNL     1       6.442  -8.049 -11.007  0.00  0.00    +0.109 A 
ATOM      5  C   UNL     1       5.988  -9.154 -10.310  0.00  0.00    +0.030 A 
ATOM      6  C   UNL     1       5.348  -8.991  -9.097  0.00  0.00    +0.025 A 
ENDROOT
BRANCH   1   9
ATOM      7  C   UNL     1       4.587  -8.502  -6.410  0.00  0.00    +0.248 C 
ATOM      8  O   UNL     1       5.311  -9.464  -6.582  0.00  0.00    -0.270 OA
ATOM      9  N   UNL     1       4.498  -7.547  -7.357  0.00  0.00    -0.282 N 
ATOM     10  H   UNL     1       3.982  -6.744  -7.189  0.00  0.00    +0.155 HD
BRANCH   7  14
ATOM     11  C   UNL     1       2.337  -8.150  -2.825  0.00  0.00    +0.033 A 
ATOM     12  C   UNL     1       3.164  -9.252  -3.020  0.00  0.00    +0.024 A 
ATOM     13  C   UNL     1       3.894  -9.369  -4.181  0.00  0.00    +0.015 A 
ATOM     14  C   UNL     1       3.804  -8.380  -5.165  0.00  0.00    +0.037 A 
ATOM     15  C   UNL     1       2.972  -7.275  -4.966  0.00  0.00    +0.015 A 
ATOM     16  C   UNL     1       2.240  -7.167  -3.805  0.00  0.00    +0.024 A 
BRANCH  11  19
ATOM     17  C   UNL     1       2.119  -8.463  -0.481  0.00  0.00    +0.217 C 
ATOM     18  O   UNL     1       3.189  -9.034  -0.468  0.00  0.00    -0.275 OA
ATOM     19  N   UNL     1       1.598  -8.034  -1.648  0.00  0.00    -0.285 N 
ATOM     20  H   UNL     1       0.710  -7.646  -1.669  0.00  0.00    +0.155 HD
BRANCH  17  21
ATOM     21  C   UNL     1       1.371  -8.233   0.807  0.00  0.00    +0.096 C 
BRANCH  21  22
ATOM     22  C   UNL     1       2.175  -8.812   1.973  0.00  0.00    +0.009 C 
BRANCH  22  24
ATOM     23  C   UNL     1       2.220  -9.158   4.447  0.00  0.00    +0.004 C 
ATOM     24  C   UNL     1       1.416  -8.579   3.281  0.00  0.00    -0.003 C 
ENDBRANCH  22  24
ENDBRANCH  21  22
ENDBRANCH  17  21
ENDBRANCH  11  19
ENDBRANCH   7  14
ENDBRANCH   1   9
BRANCH   4  25
ATOM     25  S   UNL     1       7.264  -8.262 -12.551  0.00  0.00    +0.075 S 
ATOM     26  O   UNL     1       6.832  -9.511 -13.072  0.00  0.00    -0.150 OA
ATOM     27  O   UNL     1       7.108  -7.043 -13.265  0.00  0.00    -0.150 OA
BRANCH  25  28
ATOM     28  N   UNL     1       8.881  -8.417 -12.228  0.00  0.00    -0.203 N 
ATOM     29  C   UNL     1       9.771  -7.249 -12.292  0.00  0.00    +0.132 C 
ATOM     30  C   UNL     1      11.041  -7.669 -13.043  0.00  0.00    +0.025 C 
ATOM     31  C   UNL     1      11.753  -8.757 -12.240  0.00  0.00    +0.038 C 
ATOM     32  C   UNL     1      10.794  -9.864 -11.887  0.00  0.00    -0.025 A 
ATOM     33  C   UNL     1       9.421  -9.661 -11.884  0.00  0.00    +0.054 A 
ATOM     34  C   UNL     1       8.563 -10.700 -11.543  0.00  0.00    +0.025 A 
ATOM     35  C   UNL     1       9.076 -11.936 -11.204  0.00  0.00    +0.002 A 
ATOM     36  C   UNL     1      10.444 -12.139 -11.203  0.00  0.00    +0.000 A 
ATOM     37  C   UNL     1      11.301 -11.108 -11.552  0.00  0.00    +0.005 A 
ENDBRANCH  25  28
ENDBRANCH   4  25
TORSDOF 8
