REMARK  Name = ZINC04141584
REMARK  2 active torsions:
REMARK  status: ('A' for Active; 'I' for Inactive)
REMARK    1  A    between atoms: N_21  and  C_24
REMARK    2  A    between atoms: C_27  and  N_30
REMARK                            x       y       z     vdW  Elec       q    Type
REMARK                         _______ _______ _______ _____ _____    ______ ____
ROOT
ATOM      1  C   UNL     1       1.172   1.807   0.001  0.00  0.00    +0.000 A 
ATOM      2  C   UNL     1       1.127   3.189   0.009  0.00  0.00    +0.000 A 
ATOM      3  C   UNL     1      -0.082   3.866   0.056  0.00  0.00    +0.005 A 
ATOM      4  C   UNL     1      -1.252   3.144   0.094  0.00  0.00    -0.022 A 
ATOM      5  C   UNL     1      -1.185   1.756   0.017  0.00  0.00    -0.034 A 
ATOM      6  C   UNL     1      -0.013   1.076   0.008  0.00  0.00    +0.004 A 
ATOM      7  C   UNL     1      -2.585   1.119  -0.149  0.00  0.00    +0.062 C 
ATOM      8  C   UNL     1      -3.217   1.568   1.164  0.00  0.00    -0.034 A 
ATOM      9  C   UNL     1      -3.789   0.695   2.055  0.00  0.00    +0.004 A 
ATOM     10  C   UNL     1      -4.279   1.186   3.256  0.00  0.00    +0.000 A 
ATOM     11  C   UNL     1      -4.192   2.532   3.562  0.00  0.00    +0.000 A 
ATOM     12  C   UNL     1      -3.636   3.453   2.631  0.00  0.00    +0.005 A 
ATOM     13  C   UNL     1      -3.184   2.947   1.453  0.00  0.00    -0.022 A 
ATOM     14  C   UNL     1      -2.609   3.819   0.302  0.00  0.00    +0.088 C 
ATOM     15  C   UNL     1      -3.612   3.303  -0.761  0.00  0.00    +0.114 C 
ATOM     16  C   UNL     1      -3.014   1.975  -1.300  0.00  0.00    +0.101 C 
ATOM     17  C   UNL     1      -3.911   1.719  -2.433  0.00  0.00    +0.231 C 
ATOM     18  O   UNL     1      -4.334   0.654  -2.829  0.00  0.00    -0.274 OA
ATOM     19  N   UNL     1      -4.156   2.975  -2.938  0.00  0.00    -0.210 N 
ATOM     20  C   UNL     1      -3.780   3.982  -2.084  0.00  0.00    +0.232 C 
ATOM     21  O   UNL     1      -3.619   5.155  -2.344  0.00  0.00    -0.274 OA
ATOM     22 BR   UNL     1      -2.559   5.767   0.563  0.00  0.00    -0.073 Br
ENDROOT
BRANCH  19  23
ATOM     23  C   UNL     1      -4.731   3.203  -4.196  0.00  0.00    +0.044 A 
ATOM     24  C   UNL     1      -4.953   4.502  -4.635  0.00  0.00    +0.026 A 
ATOM     25  C   UNL     1      -5.514   4.723  -5.877  0.00  0.00    +0.034 A 
ATOM     26  C   UNL     1      -5.866   3.654  -6.679  0.00  0.00    +0.126 A 
ATOM     27  C   UNL     1      -5.652   2.359  -6.243  0.00  0.00    +0.034 A 
ATOM     28  C   UNL     1      -5.085   2.131  -5.004  0.00  0.00    +0.026 A 
BRANCH  26  29
ATOM     29  N   UNL     1      -6.474   3.894  -8.007  0.00  0.00    +0.056 N 
ATOM     30  O   UNL     1      -6.784   2.953  -8.714  0.00  0.00    -0.126 OA
ATOM     31  O   UNL     1      -6.664   5.034  -8.392  0.00  0.00    -0.126 OA
ENDBRANCH  26  29
ENDBRANCH  19  23
TORSDOF 2
