REMARK  Name = ZINC09503311
REMARK  9 active torsions:
REMARK  status: ('A' for Active; 'I' for Inactive)
REMARK    1  A    between atoms: C_1  and  C_2
REMARK    2  A    between atoms: C_3  and  C_32
REMARK    3  A    between atoms: C_11  and  C_13
REMARK    4  A    between atoms: C_13  and  S_14
REMARK    5  A    between atoms: S_14  and  C_15
REMARK    6  A    between atoms: C_17  and  C_31
REMARK    7  A    between atoms: C_18  and  C_30
REMARK    8  A    between atoms: C_22  and  C_24
REMARK    9  A    between atoms: C_24  and  N_57
REMARK                            x       y       z     vdW  Elec       q    Type
REMARK                         _______ _______ _______ _____ _____    ______ ____
ROOT
ATOM      1  C   UNL     1       1.692  -1.701  -0.086  0.00  0.00    +0.109 A 
ATOM      2  C   UNL     1       1.379  -0.313  -0.043  0.00  0.00    +0.043 A 
ATOM      3  C   UNL     1       2.264   0.838  -0.015  0.00  0.00    -0.029 A 
ATOM      4  C   UNL     1       1.736   2.070   0.025  0.00  0.00    -0.008 A 
ATOM      5  S   UNL     1      -0.022   1.769   0.027  0.00  0.00    -0.074 S 
ATOM      6  C   UNL     1       0.002  -0.004  -0.025  0.00  0.00    +0.113 A 
ATOM      7  N   UNL     1      -0.916  -0.950  -0.047  0.00  0.00    -0.227 NA
ATOM      8  C   UNL     1      -0.564  -2.221  -0.087  0.00  0.00    +0.115 A 
ATOM      9  N   UNL     1       0.706  -2.584  -0.106  0.00  0.00    -0.227 NA
ATOM     10  C   UNL     1       2.455   3.393   0.058  0.00  0.00    +0.052 C 
ATOM     11  C   UNL     1       3.760   0.650  -0.030  0.00  0.00    +0.045 C 
ENDROOT
BRANCH   1  12
ATOM     12  S   UNL     1       3.370  -2.237  -0.112  0.00  0.00    -0.097 S 
BRANCH  12  13
ATOM     13  C   UNL     1       3.127  -4.030  -0.163  0.00  0.00    +0.150 C 
BRANCH  13  24
ATOM     14  C   UNL     1       8.591  -7.911  -0.311  0.00  0.00    +0.045 C 
ATOM     15  C   UNL     1       8.286  -6.436  -0.266  0.00  0.00    -0.026 A 
ATOM     16  C   UNL     1       9.282  -5.536  -0.246  0.00  0.00    -0.008 A 
ATOM     17  S   UNL     1       8.426  -3.973  -0.195  0.00  0.00    -0.073 S 
ATOM     18  C   UNL     1       6.757  -4.574  -0.202  0.00  0.00    +0.116 A 
ATOM     19  C   UNL     1       6.912  -5.971  -0.244  0.00  0.00    +0.075 A 
ATOM     20  C   UNL     1       5.695  -6.729  -0.259  0.00  0.00    +0.260 A 
ATOM     21  O   UNL     1       5.725  -7.947  -0.295  0.00  0.00    -0.267 OA
ATOM     22  N   UNL     1       4.519  -6.074  -0.226  0.00  0.00    -0.310 N 
ATOM     23  H   UNL     1       3.693  -6.582  -0.232  0.00  0.00    +0.170 HD
ATOM     24  C   UNL     1       4.467  -4.718  -0.192  0.00  0.00    +0.121 A 
ATOM     25  N   UNL     1       5.558  -3.999  -0.178  0.00  0.00    -0.226 NA
ATOM     26  C   UNL     1      10.768  -5.787  -0.262  0.00  0.00    +0.052 C 
ENDBRANCH  13  24
ENDBRANCH  12  13
ENDBRANCH   1  12
BRANCH   8  27
ATOM     27  C   UNL     1      -1.634  -3.281  -0.112  0.00  0.00    -0.001 C 
BRANCH  27  33
ATOM     28  C   UNL     1      -2.637  -2.431  -2.146  0.00  0.00    -0.050 C 
ATOM     29  C   UNL     1      -2.937  -2.769  -3.609  0.00  0.00    +0.141 C 
ATOM     30  O   UNL     1      -3.750  -3.945  -3.664  0.00  0.00    -0.383 OA
ATOM     31  C   UNL     1      -3.151  -5.088  -3.048  0.00  0.00    +0.141 C 
ATOM     32  C   UNL     1      -2.853  -4.773  -1.580  0.00  0.00    -0.050 C 
ATOM     33  N   UNL     1      -1.969  -3.591  -1.519  0.00  0.00    +0.387 N 
ATOM     34  H   UNL     1      -1.103  -3.795  -2.030  0.00  0.00    -0.081 HD
ENDBRANCH  27  33
ENDBRANCH   8  27
TORSDOF 5
