REMARK  Name = ZINC39976198
REMARK  7 active torsions:
REMARK  status: ('A' for Active; 'I' for Inactive)
REMARK    1  A    between atoms: C_4  and  C_7
REMARK    2  A    between atoms: C_7  and  C_9
REMARK    3  A    between atoms: C_7  and  N_24
REMARK    4  A    between atoms: C_9  and  N_10
REMARK    5  A    between atoms: C_11  and  C_13
REMARK    6  A    between atoms: C_13  and  N_14
REMARK    7  A    between atoms: C_15  and  C_17
REMARK                            x       y       z     vdW  Elec       q    Type
REMARK                         _______ _______ _______ _____ _____    ______ ____
ROOT
ATOM      1  N   UNL     1       4.190   0.014   2.241  0.00  0.00    -0.315 N 
ATOM      2  C   UNL     1       4.465  -0.155   3.550  0.00  0.00    +0.230 C 
ATOM      3  O   UNL     1       4.438  -1.265   4.037  0.00  0.00    -0.274 OA
ATOM      4  H   UNL     1       4.211   0.902   1.852  0.00  0.00    +0.149 HD
ENDROOT
BRANCH   1   5
ATOM      5  C   UNL     1       3.858  -1.144   1.407  0.00  0.00    +0.093 C 
BRANCH   5   6
ATOM      6  C   UNL     1       3.463  -0.668   0.008  0.00  0.00    -0.020 C 
BRANCH   6  10
ATOM      7  C   UNL     1      -0.150   1.598   0.238  0.00  0.00    +0.000 A 
ATOM      8  C   UNL     1       1.068   2.246   0.153  0.00  0.00    +0.000 A 
ATOM      9  C   UNL     1       2.237   1.513   0.079  0.00  0.00    +0.002 A 
ATOM     10  C   UNL     1       2.189   0.131   0.090  0.00  0.00    -0.059 A 
ATOM     11  C   UNL     1       0.971  -0.517   0.175  0.00  0.00    +0.002 A 
ATOM     12  C   UNL     1      -0.199   0.217   0.247  0.00  0.00    +0.000 A 
ENDBRANCH   6  10
BRANCH   6  13
ATOM     13  N   UNL     1       3.256  -1.832  -0.865  0.00  0.00    +0.385 N 
ATOM     14  C   UNL     1       2.886  -1.387  -2.232  0.00  0.00    -0.078 C 
ATOM     15  C   UNL     1       3.255  -2.607  -3.114  0.00  0.00    -0.020 C 
ATOM     16  C   UNL     1       4.553  -3.129  -2.456  0.00  0.00    -0.020 C 
ATOM     17  C   UNL     1       4.519  -2.588  -1.014  0.00  0.00    -0.078 C 
ATOM     18  H   UNL     1       2.537  -2.429  -0.485  0.00  0.00    -0.081 HD
ENDBRANCH   6  13
ENDBRANCH   5   6
ENDBRANCH   1   5
BRANCH   2  19
ATOM     19  C   UNL     1       4.807   1.036   4.407  0.00  0.00    +0.200 C 
BRANCH  19  20
ATOM     20  N   UNL     1       5.063   0.593   5.780  0.00  0.00    -0.303 N 
ATOM     21  C   UNL     1       5.389   1.492   6.729  0.00  0.00    +0.244 C 
ATOM     22  O   UNL     1       5.471   2.671   6.447  0.00  0.00    -0.270 OA
ATOM     23  H   UNL     1       4.997  -0.348   6.005  0.00  0.00    +0.150 HD
BRANCH  21  24
ATOM     24  C   UNL     1       5.647   1.044   8.114  0.00  0.00    +0.038 A 
ATOM     25  C   UNL     1       5.559  -0.310   8.441  0.00  0.00    +0.013 A 
ATOM     26  C   UNL     1       5.801  -0.722   9.735  0.00  0.00    +0.002 A 
ATOM     27  C   UNL     1       6.130   0.204  10.709  0.00  0.00    +0.015 A 
ATOM     28  C   UNL     1       6.218   1.549  10.393  0.00  0.00    +0.019 A 
ATOM     29  C   UNL     1       5.985   1.973   9.100  0.00  0.00    +0.028 A 
ATOM     30 BR   UNL     1       6.667   2.806  11.732  0.00  0.00    -0.050 Br
ENDBRANCH  21  24
ENDBRANCH  19  20
ENDBRANCH   2  19
TORSDOF 7
