REMARK  Name = ZINC39760491
REMARK  9 active torsions:
REMARK  status: ('A' for Active; 'I' for Inactive)
REMARK    1  A    between atoms: C_1  and  C_2
REMARK    2  A    between atoms: C_2  and  C_3
REMARK    3  A    between atoms: C_2  and  C_4
REMARK    4  A    between atoms: C_4  and  N_5
REMARK    5  A    between atoms: C_9  and  C_11
REMARK    6  A    between atoms: C_11  and  S_12
REMARK    7  A    between atoms: S_12  and  C_13
REMARK    8  A    between atoms: C_17  and  C_22
REMARK    9  A    between atoms: N_18  and  C_19
REMARK                            x       y       z     vdW  Elec       q    Type
REMARK                         _______ _______ _______ _____ _____    ______ ____
ROOT
ATOM      1  C   UNL     1      -5.170  -8.569  -0.563  0.00  0.00    +0.237 C 
ATOM      2  N   UNL     1      -4.244  -8.945   0.518  0.00  0.00    -0.237 N 
ATOM      3  N   UNL     1      -3.215  -9.683  -0.078  0.00  0.00    -0.169 NA
ATOM      4  C   UNL     1      -3.399  -9.799  -1.367  0.00  0.00    +0.147 C 
ATOM      5  N   UNL     1      -4.572  -9.153  -1.775  0.00  0.00    -0.282 N 
ATOM      6  H   UNL     1      -4.330  -8.725   1.459  0.00  0.00    +0.171 HD
ENDROOT
BRANCH   4   7
ATOM      7  C   UNL     1      -2.532 -10.483  -2.231  0.00  0.00    +0.022 C 
ATOM      8  C   UNL     1      -1.405 -11.229  -1.881  0.00  0.00    +0.006 A 
ATOM      9  C   UNL     1      -0.807 -11.523  -0.637  0.00  0.00    +0.010 A 
ATOM     10  C   UNL     1       0.311 -12.293  -0.593  0.00  0.00    +0.001 A 
ATOM     11  C   UNL     1       0.891 -12.807  -1.755  0.00  0.00    +0.002 A 
ATOM     12  C   UNL     1       0.369 -12.565  -2.982  0.00  0.00    +0.026 A 
ATOM     13  C   UNL     1      -0.798 -11.768  -3.108  0.00  0.00    +0.043 A 
ATOM     14  N   UNL     1      -1.489 -11.394  -4.167  0.00  0.00    -0.380 N 
ATOM     15  C   UNL     1      -2.626 -10.573  -3.739  0.00  0.00    +0.152 C 
ATOM     16  H   UNL     1      -1.280 -11.628  -5.085  0.00  0.00    +0.160 HD
ENDBRANCH   4   7
BRANCH   5  17
ATOM     17  C   UNL     1      -5.102  -9.072  -3.138  0.00  0.00    +0.078 C 
ATOM     18  C   UNL     1      -6.363  -8.234  -3.358  0.00  0.00    +0.024 C 
ATOM     19  C   UNL     1      -6.440  -9.761  -3.418  0.00  0.00    +0.024 C 
ENDBRANCH   5  17
BRANCH   1  20
ATOM     20  S   UNL     1      -5.272  -6.764  -0.711  0.00  0.00    -0.109 S 
BRANCH  20  21
ATOM     21  C   UNL     1      -3.554  -6.248  -0.982  0.00  0.00    +0.168 C 
BRANCH  21  26
ATOM     22  N   UNL     1      -1.080  -2.185  -1.670  0.00  0.00    -0.299 N 
ATOM     23  C   UNL     1      -2.262  -2.797  -1.461  0.00  0.00    +0.306 C 
ATOM     24  O   UNL     1      -3.282  -2.139  -1.387  0.00  0.00    -0.252 OA
ATOM     25  N   UNL     1      -2.314  -4.137  -1.334  0.00  0.00    -0.240 N 
ATOM     26  C   UNL     1      -3.496  -4.749  -1.124  0.00  0.00    +0.230 C 
ATOM     27  O   UNL     1      -4.513  -4.094  -1.050  0.00  0.00    -0.274 OA
ATOM     28  H   UNL     1      -0.266  -2.709  -1.729  0.00  0.00    +0.150 HD
ATOM     29  H   UNL     1      -1.500  -4.662  -1.393  0.00  0.00    +0.159 HD
BRANCH  22  30
ATOM     30  C   UNL     1      -1.024  -0.727  -1.808  0.00  0.00    +0.108 C 
BRANCH  30  32
ATOM     31  C   UNL     1       0.469   1.214  -2.305  0.00  0.00    +0.009 C 
ATOM     32  C   UNL     1       0.425  -0.292  -2.037  0.00  0.00    -0.000 C 
ATOM     33  C   UNL     1       1.256  -0.613  -0.793  0.00  0.00    +0.009 C 
ENDBRANCH  30  32
ENDBRANCH  22  30
ENDBRANCH  21  26
ENDBRANCH  20  21
ENDBRANCH   1  20
TORSDOF 7
