REMARK  Name = ZINC39666599
REMARK  7 active torsions:
REMARK  status: ('A' for Active; 'I' for Inactive)
REMARK    1  A    between atoms: C_1  and  C_2
REMARK    2  A    between atoms: C_2  and  C_4
REMARK    3  A    between atoms: C_2  and  O_30
REMARK    4  A    between atoms: C_4  and  N_5
REMARK    5  A    between atoms: C_6  and  C_8
REMARK    6  A    between atoms: C_19  and  C_21
REMARK    7  A    between atoms: O_30  and  C_31
REMARK                            x       y       z     vdW  Elec       q    Type
REMARK                         _______ _______ _______ _____ _____    ______ ____
ROOT
ATOM      1  C   UNL     1       1.594  -3.980   2.433  0.00  0.00    +0.100 C 
ATOM      2  C   UNL     1       2.614  -4.420   1.359  0.00  0.00    +0.121 C 
ATOM      3  N   UNL     1       3.882  -4.612   2.102  0.00  0.00    -0.296 N 
ATOM      4  C   UNL     1       3.468  -5.240   3.379  0.00  0.00    +0.115 C 
ATOM      5  C   UNL     1       2.157  -4.524   3.757  0.00  0.00    -0.004 C 
ATOM      6  C   UNL     1       1.176  -5.511   4.382  0.00  0.00    -0.010 C 
ATOM      7  C   UNL     1       1.730  -5.994   5.725  0.00  0.00    -0.082 C 
ATOM      8  N   UNL     1       1.931  -4.843   6.615  0.00  0.00    +0.379 N 
ATOM      9  C   UNL     1       2.945  -3.945   6.051  0.00  0.00    -0.082 C 
ATOM     10  C   UNL     1       2.442  -3.376   4.721  0.00  0.00    -0.010 C 
ATOM     11  C   UNL     1       5.129  -4.288   1.706  0.00  0.00    +0.248 C 
ATOM     12  O   UNL     1       5.298  -3.679   0.666  0.00  0.00    -0.270 OA
ATOM     13  H   UNL     1       1.060  -4.344   6.718  0.00  0.00    -0.086 HD
ATOM     14  H   UNL     1       2.238  -5.169   7.519  0.00  0.00    -0.086 HD
ENDROOT
BRANCH  11  15
ATOM     15  C   UNL     1       6.283  -4.671   2.528  0.00  0.00    +0.052 A 
ATOM     16  C   UNL     1       6.221  -5.736   3.370  0.00  0.00    +0.059 A 
ATOM     17  S   UNL     1       7.728  -5.816   4.101  0.00  0.00    -0.096 S 
ATOM     18  C   UNL     1       8.525  -4.436   3.327  0.00  0.00    +0.020 A 
ATOM     19  C   UNL     1       7.539  -3.921   2.463  0.00  0.00    +0.001 A 
ATOM     20  C   UNL     1       7.883  -2.797   1.689  0.00  0.00    +0.010 A 
ATOM     21  C   UNL     1       9.136  -2.244   1.784  0.00  0.00    +0.001 A 
ATOM     22  C   UNL     1      10.091  -2.773   2.640  0.00  0.00    +0.001 A 
ATOM     23  C   UNL     1       9.779  -3.870   3.419  0.00  0.00    +0.015 A 
ENDBRANCH  11  15
BRANCH   1  25
ATOM     24  N   UNL     1       0.412  -1.888   3.019  0.00  0.00    -0.312 N 
ATOM     25  C   UNL     1       1.498  -2.477   2.481  0.00  0.00    +0.218 C 
ATOM     26  O   UNL     1       2.399  -1.797   2.036  0.00  0.00    -0.275 OA
ATOM     27  H   UNL     1      -0.308  -2.432   3.376  0.00  0.00    +0.149 HD
BRANCH  24  28
ATOM     28  C   UNL     1       0.319  -0.427   3.066  0.00  0.00    +0.148 C 
BRANCH  28  30
ATOM     29  C   UNL     1      -1.158   1.500   3.658  0.00  0.00    +0.053 C 
ATOM     30  C   UNL     1      -1.003  -0.021   3.721  0.00  0.00    +0.187 C 
BRANCH  30  31
ATOM     31  O   UNL     1      -1.008  -0.444   5.086  0.00  0.00    -0.486 OA
BRANCH  31  32
ATOM     32  C   UNL     1      -2.222  -0.644   5.665  0.00  0.00    +0.139 A 
ATOM     33  C   UNL     1      -3.379  -0.534   4.909  0.00  0.00    +0.047 A 
ATOM     34  C   UNL     1      -4.611  -0.737   5.500  0.00  0.00    +0.004 A 
ATOM     35  C   UNL     1      -4.692  -1.050   6.845  0.00  0.00    +0.002 A 
ATOM     36  C   UNL     1      -3.540  -1.161   7.601  0.00  0.00    +0.023 A 
ATOM     37  C   UNL     1      -2.304  -0.964   7.013  0.00  0.00    +0.083 A 
ATOM     38 CL   UNL     1      -0.858  -1.109   7.962  0.00  0.00    -0.080 Cl
ENDBRANCH  31  32
ENDBRANCH  30  31
ENDBRANCH  28  30
ENDBRANCH  24  28
ENDBRANCH   1  25
TORSDOF 6
