REMARK  Name = ZINC28932877
REMARK  8 active torsions:
REMARK  status: ('A' for Active; 'I' for Inactive)
REMARK    1  A    between atoms: C_1  and  C_2
REMARK    2  A    between atoms: C_9  and  C_16
REMARK    3  A    between atoms: C_11  and  O_12
REMARK    4  A    between atoms: C_16  and  O_17
REMARK    5  A    between atoms: O_17  and  C_18
REMARK    6  A    between atoms: C_18  and  C_20
REMARK    7  A    between atoms: C_20  and  S_21
REMARK    8  A    between atoms: S_21  and  C_22
REMARK                            x       y       z     vdW  Elec       q    Type
REMARK                         _______ _______ _______ _____ _____    ______ ____
ROOT
ATOM      1  C   UNL     1      -0.617   1.507  -2.165  0.00  0.00    +0.109 C 
ATOM      2  C   UNL     1      -0.606  -0.000  -2.168  0.00  0.00    +0.214 C 
ATOM      3  O   UNL     1      -1.141  -0.609  -3.070  0.00  0.00    -0.276 OA
ATOM      4  N   UNL     1       0.000  -0.672  -1.169  0.00  0.00    -0.286 N 
ATOM      5  C   UNL     1      -0.071  -2.064  -1.121  0.00  0.00    +0.037 A 
ATOM      6  C   UNL     1      -0.140  -2.712   0.113  0.00  0.00    +0.024 A 
ATOM      7  C   UNL     1      -0.216  -4.072   0.175  0.00  0.00    +0.014 A 
ATOM      8  C   UNL     1      -0.211  -4.825  -1.005  0.00  0.00    +0.024 A 
ATOM      9  C   UNL     1      -0.286  -6.287  -0.967  0.00  0.00    +0.007 A 
ATOM     10  C   UNL     1      -0.279  -6.961  -2.147  0.00  0.00    +0.095 A 
ATOM     11  C   UNL     1      -0.200  -6.248  -3.361  0.00  0.00    +0.285 A 
ATOM     12  O   UNL     1      -0.132  -4.908  -3.389  0.00  0.00    -0.425 OA
ATOM     13  C   UNL     1      -0.136  -4.178  -2.253  0.00  0.00    +0.141 A 
ATOM     14  C   UNL     1      -0.065  -2.794  -2.300  0.00  0.00    +0.070 A 
ATOM     15  H   UNL     1       0.550  -0.122  -0.391  0.00  0.00    +0.155 HD
ENDROOT
BRANCH  11  16
ATOM     16  O   UNL     1      -0.194  -6.865  -4.412  0.00  0.00    -0.480 OA
ATOM     17  H   UNL     1      -0.133  -6.323  -5.367  0.00  0.00    +0.295 HD
ENDBRANCH  11  16
BRANCH   9  18
ATOM     18  C   UNL     1      -0.369  -7.024   0.344  0.00  0.00    +0.268 C 
BRANCH  18  19
ATOM     19  O   UNL     1      -0.431  -8.452   0.094  0.00  0.00    -0.459 OA
BRANCH  19  20
ATOM     20  C   UNL     1      -0.509  -9.256   1.166  0.00  0.00    +0.318 C 
ATOM     21  O   UNL     1      -0.524  -8.782   2.277  0.00  0.00    -0.250 OA
BRANCH  20  22
ATOM     22  C   UNL     1      -0.577 -10.751   0.984  0.00  0.00    +0.194 C 
BRANCH  22  23
ATOM     23  S   UNL     1      -0.674 -11.554   2.608  0.00  0.00    -0.114 S 
BRANCH  23  24
ATOM     24  C   UNL     1      -0.746 -13.273   2.229  0.00  0.00    +0.009 A 
ATOM     25  C   UNL     1      -0.726 -13.690   0.892  0.00  0.00    +0.015 A 
ATOM     26  C   UNL     1      -0.774 -15.010   0.571  0.00  0.00    +0.009 A 
ATOM     27  C   UNL     1      -0.859 -15.976   1.590  0.00  0.00    -0.018 A 
ATOM     28  C   UNL     1      -0.917 -17.347   1.287  0.00  0.00    +0.008 A 
ATOM     29  C   UNL     1      -0.999 -18.258   2.295  0.00  0.00    +0.001 A 
ATOM     30  C   UNL     1      -1.025 -17.852   3.628  0.00  0.00    +0.001 A 
ATOM     31  C   UNL     1      -0.970 -16.533   3.960  0.00  0.00    +0.008 A 
ATOM     32  C   UNL     1      -0.885 -15.563   2.945  0.00  0.00    -0.017 A 
ATOM     33  C   UNL     1      -0.828 -14.194   3.251  0.00  0.00    +0.023 A 
ENDBRANCH  23  24
ENDBRANCH  22  23
ENDBRANCH  20  22
ENDBRANCH  19  20
ENDBRANCH  18  19
ENDBRANCH   9  18
TORSDOF 7
