REMARK  Name = ZINC35531591
REMARK  10 active torsions:
REMARK  status: ('A' for Active; 'I' for Inactive)
REMARK    1  A    between atoms: C_1  and  C_2
REMARK    2  A    between atoms: C_2  and  C_3
REMARK    3  A    between atoms: C_3  and  N_4
REMARK    4  A    between atoms: C_16  and  S_17
REMARK    5  A    between atoms: S_17  and  C_18
REMARK    6  A    between atoms: C_18  and  C_19
REMARK    7  A    between atoms: N_21  and  C_22
REMARK    8  A    between atoms: C_25  and  C_28
REMARK    9  A    between atoms: C_28  and  O_30
REMARK   10  A    between atoms: O_30  and  C_31
REMARK                            x       y       z     vdW  Elec       q    Type
REMARK                         _______ _______ _______ _____ _____    ______ ____
ROOT
ATOM      1  N   UNL     1      -1.389  -1.997   0.005  0.00  0.00    -0.276 N 
ATOM      2  C   UNL     1      -1.393  -2.667  -1.167  0.00  0.00    +0.270 A 
ATOM      3  O   UNL     1      -1.405  -2.058  -2.222  0.00  0.00    -0.266 OA
ATOM      4  C   UNL     1      -1.385  -4.068  -1.162  0.00  0.00    +0.101 A 
ATOM      5  C   UNL     1      -1.371  -4.801   0.025  0.00  0.00    +0.071 A 
ATOM      6  C   UNL     1      -1.364  -6.180  -0.168  0.00  0.00    +0.035 A 
ATOM      7  C   UNL     1      -1.370  -6.681  -1.422  0.00  0.00    +0.048 A 
ATOM      8  S   UNL     1      -1.386  -5.324  -2.413  0.00  0.00    -0.090 S 
ATOM      9  N   UNL     1      -1.368  -4.064   1.222  0.00  0.00    -0.255 N 
ATOM     10  C   UNL     1      -1.370  -2.699   1.202  0.00  0.00    +0.240 A 
ATOM     11  N   UNL     1      -1.357  -2.278   2.447  0.00  0.00    -0.109 NA
ATOM     12  N   UNL     1      -1.340  -3.401   3.284  0.00  0.00    -0.120 NA
ATOM     13  C   UNL     1      -1.356  -4.472   2.527  0.00  0.00    +0.198 A 
ENDROOT
BRANCH   1  14
ATOM     14  C   UNL     1      -1.397  -0.532   0.014  0.00  0.00    +0.128 C 
BRANCH  14  16
ATOM     15  C   UNL     1       0.034   1.516   0.008  0.00  0.00    +0.005 C 
ATOM     16  C   UNL     1       0.042  -0.014  -0.001  0.00  0.00    +0.018 C 
ENDBRANCH  14  16
ENDBRANCH   1  14
BRANCH  13  17
ATOM     17  S   UNL     1      -1.341  -6.141   3.091  0.00  0.00    -0.076 S 
BRANCH  17  18
ATOM     18  C   UNL     1      -1.329  -5.993   4.899  0.00  0.00    +0.173 C 
BRANCH  18  19
ATOM     19  C   UNL     1      -1.315  -7.368   5.515  0.00  0.00    +0.227 C 
ATOM     20  O   UNL     1      -1.314  -8.351   4.805  0.00  0.00    -0.275 OA
ATOM     21  N   UNL     1      -1.305  -7.506   6.856  0.00  0.00    -0.285 N 
ATOM     22  H   UNL     1      -1.238  -6.722   7.423  0.00  0.00    +0.155 HD
BRANCH  21  23
ATOM     23  C   UNL     1      -1.389  -8.774   7.427  0.00  0.00    +0.033 A 
ATOM     24  C   UNL     1      -0.778  -9.858   6.804  0.00  0.00    +0.024 A 
ATOM     25  C   UNL     1      -0.860 -11.113   7.366  0.00  0.00    +0.017 A 
ATOM     26  C   UNL     1      -1.557 -11.297   8.563  0.00  0.00    +0.059 A 
ATOM     27  C   UNL     1      -2.170 -10.205   9.187  0.00  0.00    +0.017 A 
ATOM     28  C   UNL     1      -2.080  -8.953   8.622  0.00  0.00    +0.024 A 
BRANCH  26  29
ATOM     29  C   UNL     1      -1.647 -12.639   9.167  0.00  0.00    +0.339 C 
ATOM     30  O   UNL     1      -1.115 -13.586   8.624  0.00  0.00    -0.245 OA
BRANCH  29  31
ATOM     31  O   UNL     1      -2.320 -12.815  10.322  0.00  0.00    -0.464 OA
ATOM     32  C   UNL     1      -2.366 -14.141  10.850  0.00  0.00    +0.280 C 
ENDBRANCH  29  31
ENDBRANCH  26  29
ENDBRANCH  21  23
ENDBRANCH  18  19
ENDBRANCH  17  18
ENDBRANCH  13  17
TORSDOF 8
