REMARK  Name = ZINC00989275
REMARK  3 active torsions:
REMARK  status: ('A' for Active; 'I' for Inactive)
REMARK    1  A    between atoms: C_12  and  C_20
REMARK    2  A    between atoms: C_14  and  C_18
REMARK    3  A    between atoms: C_15  and  N_17
REMARK                            x       y       z     vdW  Elec       q    Type
REMARK                         _______ _______ _______ _____ _____    ______ ____
ROOT
ATOM      1  C   UNL     1      -1.212   1.752   0.017  0.00  0.00    +0.001 A 
ATOM      2  C   UNL     1      -1.234   3.139   0.030  0.00  0.00    +0.004 A 
ATOM      3  C   UNL     1      -0.059   3.861   0.023  0.00  0.00    +0.047 A 
ATOM      4  C   UNL     1       1.162   3.198   0.008  0.00  0.00    +0.143 A 
ATOM      5  C   UNL     1       1.185   1.795   0.000  0.00  0.00    +0.060 A 
ATOM      6  C   UNL     1      -0.013   1.076   0.008  0.00  0.00    +0.015 A 
ATOM      7  C   UNL     1       2.485   1.106  -0.016  0.00  0.00    +0.152 A 
ATOM      8  C   UNL     1       3.617   1.865  -0.022  0.00  0.00    +0.092 A 
ATOM      9  C   UNL     1       3.512   3.267  -0.013  0.00  0.00    +0.345 A 
ATOM     10  O   UNL     1       4.530   3.937  -0.018  0.00  0.00    -0.245 OA
ATOM     11  O   UNL     1       2.322   3.889   0.001  0.00  0.00    -0.422 OA
ATOM     12  C   UNL     1       4.975   1.218  -0.039  0.00  0.00    +0.108 C 
ATOM     13  C   UNL     1       4.865  -0.229   0.355  0.00  0.00    +0.098 C 
ATOM     14  C   UNL     1       3.671  -0.869   0.340  0.00  0.00    +0.199 C 
ATOM     15  O   UNL     1       2.539  -0.240  -0.024  0.00  0.00    -0.440 OA
ENDROOT
BRANCH  12  16
ATOM     16  C   UNL     1       5.557   1.315  -1.426  0.00  0.00    +0.001 A 
ATOM     17  C   UNL     1       4.905   0.725  -2.492  0.00  0.00    +0.008 A 
ATOM     18  C   UNL     1       5.438   0.814  -3.764  0.00  0.00    +0.016 A 
ATOM     19  C   UNL     1       6.625   1.494  -3.972  0.00  0.00    +0.021 A 
ATOM     20  C   UNL     1       7.279   2.084  -2.906  0.00  0.00    +0.054 A 
ATOM     21  C   UNL     1       6.742   1.999  -1.633  0.00  0.00    +0.129 A 
ATOM     22  F   UNL     1       7.378   2.580  -0.592  0.00  0.00    -0.205 F 
ATOM     23 BR   UNL     1       7.353   1.615  -5.713  0.00  0.00    -0.050 Br
ENDBRANCH  12  16
BRANCH  14  24
ATOM     24  N   UNL     1       3.615  -2.190   0.706  0.00  0.00    -0.328 N 
ATOM     25  H   UNL     1       2.765  -2.659   0.700  0.00  0.00    +0.145 HD
ATOM     26  H   UNL     1       4.424  -2.655   0.971  0.00  0.00    +0.145 HD
ENDBRANCH  14  24
BRANCH  13  27
ATOM     27  C   UNL     1       6.041  -0.942   0.752  0.00  0.00    +0.101 C 
ATOM     28  N   UNL     1       6.974  -1.508   1.068  0.00  0.00    -0.191 NA
ENDBRANCH  13  27
TORSDOF 3
