REMARK  Name = ZINC19853976
REMARK  11 active torsions:
REMARK  status: ('A' for Active; 'I' for Inactive)
REMARK    1  A    between atoms: C_1  and  C_2
REMARK    2  A    between atoms: C_2  and  C_3
REMARK    3  A    between atoms: C_5  and  C_38
REMARK    4  A    between atoms: C_7  and  O_9
REMARK    5  A    between atoms: O_9  and  C_10
REMARK    6  A    between atoms: C_10  and  C_11
REMARK    7  A    between atoms: C_11  and  O_12
REMARK    8  A    between atoms: O_12  and  C_13
REMARK    9  A    between atoms: C_16  and  C_19
REMARK   10  A    between atoms: C_29  and  C_31
REMARK   11  A    between atoms: C_34  and  C_37
REMARK                            x       y       z     vdW  Elec       q    Type
REMARK                         _______ _______ _______ _____ _____    ______ ____
ROOT
ATOM      1  C   UNL     1      11.697  -4.253  -1.127  0.00  0.00    +0.024 C 
ATOM      2  C   UNL     1      12.031  -4.639   0.151  0.00  0.00    +0.079 C 
ATOM      3  C   UNL     1      13.448  -4.856   0.561  0.00  0.00    +0.132 C 
ATOM      4  N   UNL     1      14.448  -4.170   0.075  0.00  0.00    -0.385 N 
ATOM      5  N   UNL     1      13.603  -5.874   1.525  0.00  0.00    -0.153 N 
ATOM      6  C   UNL     1      12.511  -6.178   2.311  0.00  0.00    +0.181 C 
ATOM      7  N   UNL     1      11.297  -5.698   2.210  0.00  0.00    -0.152 NA
ATOM      8  C   UNL     1      11.002  -4.855   1.198  0.00  0.00    +0.273 C 
ATOM      9  O   UNL     1       9.921  -4.291   1.141  0.00  0.00    -0.268 OA
ATOM     10  S   UNL     1      13.180  -7.373   3.437  0.00  0.00    -0.033 S 
ATOM     11  C   UNL     1      14.821  -7.466   2.736  0.00  0.00    +0.130 C 
ATOM     12  N   UNL     1      14.757  -6.590   1.762  0.00  0.00    -0.164 NA
ATOM     13  H   UNL     1      14.287  -3.479  -0.587  0.00  0.00    +0.157 HD
ATOM     14  H   UNL     1      15.352  -4.351   0.376  0.00  0.00    +0.157 HD
ENDROOT
BRANCH  11  15
ATOM     15  C   UNL     1      15.962  -8.314   3.148  0.00  0.00    +0.009 A 
ATOM     16  C   UNL     1      17.177  -8.233   2.468  0.00  0.00    +0.011 A 
ATOM     17  C   UNL     1      18.236  -9.027   2.857  0.00  0.00    +0.004 A 
ATOM     18  C   UNL     1      18.095  -9.901   3.920  0.00  0.00    -0.050 A 
ATOM     19  C   UNL     1      16.892  -9.986   4.599  0.00  0.00    +0.004 A 
ATOM     20  C   UNL     1      15.828  -9.193   4.223  0.00  0.00    +0.011 A 
ATOM     21  C   UNL     1      19.256 -10.765   4.340  0.00  0.00    +0.044 C 
ENDBRANCH  11  15
BRANCH   1  25
ATOM     22  C   UNL     1       7.642  -4.179  -2.320  0.00  0.00    +0.121 A 
ATOM     23  C   UNL     1       8.518  -3.203  -2.784  0.00  0.00    +0.046 A 
ATOM     24  C   UNL     1       9.830  -3.222  -2.402  0.00  0.00    +0.011 A 
ATOM     25  C   UNL     1      10.292  -4.227  -1.540  0.00  0.00    -0.024 A 
ATOM     26  C   UNL     1       9.403  -5.207  -1.075  0.00  0.00    +0.011 A 
ATOM     27  C   UNL     1       8.093  -5.175  -1.460  0.00  0.00    +0.046 A 
BRANCH  22  28
ATOM     28  O   UNL     1       6.340  -4.155  -2.702  0.00  0.00    -0.489 OA
BRANCH  28  29
ATOM     29  C   UNL     1       5.943  -3.104  -3.586  0.00  0.00    +0.270 C 
BRANCH  29  30
ATOM     30  C   UNL     1       4.452  -3.241  -3.903  0.00  0.00    +0.270 C 
BRANCH  30  31
ATOM     31  O   UNL     1       3.691  -3.040  -2.711  0.00  0.00    -0.489 OA
BRANCH  31  36
ATOM     32  C   UNL     1       0.165  -3.034  -1.815  0.00  0.00    -0.044 A 
ATOM     33  C   UNL     1      -0.412  -3.308  -3.041  0.00  0.00    +0.007 A 
ATOM     34  C   UNL     1       0.383  -3.492  -4.157  0.00  0.00    -0.047 A 
ATOM     35  C   UNL     1       1.758  -3.403  -4.049  0.00  0.00    +0.049 A 
ATOM     36  C   UNL     1       2.339  -3.128  -2.820  0.00  0.00    +0.121 A 
ATOM     37  C   UNL     1       1.538  -2.938  -1.703  0.00  0.00    +0.049 A 
ATOM     38  C   UNL     1      -0.249  -3.790  -5.491  0.00  0.00    +0.044 C 
BRANCH  32  40
ATOM     39  C   UNL     1      -1.075  -1.355  -0.476  0.00  0.00    +0.009 C 
ATOM     40  C   UNL     1      -0.705  -2.834  -0.600  0.00  0.00    +0.032 C 
ENDBRANCH  32  40
ENDBRANCH  31  36
ENDBRANCH  30  31
ENDBRANCH  29  30
ENDBRANCH  28  29
ENDBRANCH  22  28
ENDBRANCH   1  25
TORSDOF 8
