REMARK  Name = ZINC23375143
REMARK  6 active torsions:
REMARK  status: ('A' for Active; 'I' for Inactive)
REMARK    1  A    between atoms: C_6  and  N_7
REMARK    2  A    between atoms: C_10  and  N_13
REMARK    3  A    between atoms: N_16  and  C_23
REMARK    4  A    between atoms: C_17  and  C_20
REMARK    5  A    between atoms: C_20  and  C_21
REMARK    6  A    between atoms: C_21  and  O_22
REMARK                            x       y       z     vdW  Elec       q    Type
REMARK                         _______ _______ _______ _____ _____    ______ ____
ROOT
ATOM      1  N   UNL     1      -4.506  -2.606  -2.151  0.00  0.00    -0.303 NA
ATOM      2  C   UNL     1      -4.021  -2.315  -3.507  0.00  0.00    +0.066 C 
ATOM      3  C   UNL     1      -5.083  -2.731  -4.527  0.00  0.00    -0.062 C 
ATOM      4  N   UNL     1      -6.328  -1.996  -4.265  0.00  0.00    +0.385 N 
ATOM      5  C   UNL     1      -6.813  -2.316  -2.916  0.00  0.00    -0.052 C 
ATOM      6  C   UNL     1      -5.765  -1.897  -1.883  0.00  0.00    +0.069 C 
ATOM      7  H   UNL     1      -6.153  -1.004  -4.332  0.00  0.00    -0.081 HD
ENDROOT
BRANCH   1  11
ATOM      8  N   UNL     1      -0.949  -1.347  -0.314  0.00  0.00    -0.330 N 
ATOM      9  C   UNL     1      -1.194  -2.796  -0.311  0.00  0.00    +0.106 C 
ATOM     10  C   UNL     1      -2.239  -3.122  -1.383  0.00  0.00    +0.038 C 
ATOM     11  C   UNL     1      -3.489  -2.273  -1.145  0.00  0.00    +0.059 C 
ATOM     12  C   UNL     1      -3.130  -0.789  -1.256  0.00  0.00    +0.038 C 
ATOM     13  C   UNL     1      -2.094  -0.437  -0.177  0.00  0.00    +0.106 C 
BRANCH   8  19
ATOM     14  C   UNL     1       0.558   0.524  -0.551  0.00  0.00    +0.027 A 
ATOM     15  C   UNL     1       1.841   1.022  -0.674  0.00  0.00    +0.051 A 
ATOM     16  C   UNL     1       2.924   0.159  -0.686  0.00  0.00    +0.166 A 
ATOM     17  C   UNL     1       2.720  -1.214  -0.573  0.00  0.00    +0.168 A 
ATOM     18  C   UNL     1       1.434  -1.713  -0.449  0.00  0.00    +0.072 A 
ATOM     19  C   UNL     1       0.351  -0.844  -0.439  0.00  0.00    +0.033 A 
ATOM     20  O   UNL     1       3.932  -1.841  -0.611  0.00  0.00    -0.453 OA
ATOM     21  C   UNL     1       4.848  -0.873  -1.158  0.00  0.00    +0.466 C 
ATOM     22  O   UNL     1       4.266   0.393  -0.795  0.00  0.00    -0.453 OA
ENDBRANCH   8  19
ENDBRANCH   1  11
BRANCH   4  23
ATOM     23  C   UNL     1      -7.342  -2.382  -5.255  0.00  0.00    -0.068 C 
ATOM     24  C   UNL     1      -6.853  -2.013  -6.657  0.00  0.00    -0.015 C 
ATOM     25  C   UNL     1      -7.909  -2.415  -7.688  0.00  0.00    -0.002 C 
ATOM     26  C   UNL     1      -8.147  -3.925  -7.611  0.00  0.00    -0.000 C 
ATOM     27  C   UNL     1      -8.636  -4.293  -6.209  0.00  0.00    -0.002 C 
ATOM     28  C   UNL     1      -7.580  -3.891  -5.178  0.00  0.00    -0.015 C 
ENDBRANCH   4  23
BRANCH   5  29
ATOM     29  C   UNL     1      -8.119  -1.564  -2.652  0.00  0.00    +0.014 C 
BRANCH  29  30
ATOM     30  C   UNL     1      -8.676  -1.972  -1.286  0.00  0.00    +0.154 C 
BRANCH  30  31
ATOM     31  O   UNL     1      -9.840  -1.197  -0.996  0.00  0.00    -0.395 OA
ATOM     32  H   UNL     1     -10.247  -1.403  -0.143  0.00  0.00    +0.209 HD
ENDBRANCH  30  31
ENDBRANCH  29  30
ENDBRANCH   5  29
TORSDOF 6
