REMARK  Name = ZINC19959964
REMARK  6 active torsions:
REMARK  status: ('A' for Active; 'I' for Inactive)
REMARK    1  A    between atoms: C_1  and  C_2
REMARK    2  A    between atoms: C_2  and  O_3
REMARK    3  A    between atoms: O_3  and  C_4
REMARK    4  A    between atoms: C_8  and  C_10
REMARK    5  A    between atoms: C_15  and  C_20
REMARK    6  A    between atoms: C_29  and  C_31
REMARK                            x       y       z     vdW  Elec       q    Type
REMARK                         _______ _______ _______ _____ _____    ______ ____
ROOT
ATOM      1  C   UNL     1       2.275  -4.298   3.754  0.00  0.00    +0.176 C 
ATOM      2  C   UNL     1       3.453  -5.125   3.290  0.00  0.00    +0.041 C 
ATOM      3  C   UNL     1       3.444  -6.474   3.331  0.00  0.00    +0.020 C 
ATOM      4  C   UNL     1       4.636  -7.274   2.862  0.00  0.00    +0.063 C 
ATOM      5  C   UNL     1       5.360  -6.515   1.748  0.00  0.00    +0.068 C 
ATOM      6  C   UNL     1       5.789  -5.149   2.295  0.00  0.00    +0.091 C 
ATOM      7  C   UNL     1       4.574  -4.426   2.806  0.00  0.00    +0.164 C 
ATOM      8  O   UNL     1       4.560  -3.211   2.801  0.00  0.00    -0.292 OA
ATOM      9  N   UNL     1       2.361  -7.177   3.804  0.00  0.00    -0.287 N 
ATOM     10  C   UNL     1       1.399  -6.484   4.521  0.00  0.00    +0.219 A 
ATOM     11  N   UNL     1       1.349  -5.131   4.510  0.00  0.00    -0.221 N 
ATOM     12  N   UNL     1       0.281  -4.771   5.330  0.00  0.00    -0.153 NA
ATOM     13  C   UNL     1      -0.246  -5.885   5.774  0.00  0.00    +0.150 A 
ATOM     14  N   UNL     1       0.433  -6.918   5.282  0.00  0.00    -0.198 NA
ATOM     15  C   UNL     1      -1.432  -5.982   6.699  0.00  0.00    +0.090 C 
ATOM     16  H   UNL     1       2.274  -8.129   3.641  0.00  0.00    +0.155 HD
ENDROOT
BRANCH   1  21
ATOM     17  C   UNL     1       0.802  -1.824   1.306  0.00  0.00    +0.121 A 
ATOM     18  C   UNL     1       0.260  -2.673   0.351  0.00  0.00    +0.045 A 
ATOM     19  C   UNL     1       0.372  -4.041   0.501  0.00  0.00    +0.004 A 
ATOM     20  C   UNL     1       1.024  -4.566   1.602  0.00  0.00    +0.006 A 
ATOM     21  C   UNL     1       1.565  -3.723   2.555  0.00  0.00    -0.015 A 
ATOM     22  C   UNL     1       1.460  -2.353   2.406  0.00  0.00    +0.051 A 
BRANCH  17  23
ATOM     23  O   UNL     1       0.693  -0.477   1.160  0.00  0.00    -0.492 OA
BRANCH  23  25
ATOM     24  C   UNL     1      -0.019   1.526   0.010  0.00  0.00    +0.048 C 
ATOM     25  C   UNL     1       0.002  -0.004   0.002  0.00  0.00    +0.225 C 
ENDBRANCH  23  25
ENDBRANCH  17  23
ENDBRANCH   1  21
BRANCH   5  26
ATOM     26  C   UNL     1       6.575  -7.292   1.310  0.00  0.00    +0.109 A 
ATOM     27  C   UNL     1       6.806  -7.756   0.069  0.00  0.00    +0.045 A 
ATOM     28  C   UNL     1       8.054  -8.421   0.107  0.00  0.00    +0.041 A 
ATOM     29  C   UNL     1       8.509  -8.323   1.369  0.00  0.00    +0.195 A 
ATOM     30  O   UNL     1       7.612  -7.633   2.092  0.00  0.00    -0.468 OA
ENDBRANCH   5  26
TORSDOF 4
