REMARK  Name = ZINC00986217
REMARK  11 active torsions:
REMARK  status: ('A' for Active; 'I' for Inactive)
REMARK    1  A    between atoms: C_1  and  C_2
REMARK    2  A    between atoms: C_7  and  N_8
REMARK    3  A    between atoms: C_17  and  S_18
REMARK    4  A    between atoms: S_18  and  C_19
REMARK    5  A    between atoms: C_19  and  C_20
REMARK    6  A    between atoms: N_22  and  C_23
REMARK    7  A    between atoms: C_28  and  O_29
REMARK    8  A    between atoms: O_29  and  C_30
REMARK    9  A    between atoms: C_33  and  C_36
REMARK   10  A    between atoms: C_36  and  C_37
REMARK   11  A    between atoms: C_36  and  C_38
REMARK                            x       y       z     vdW  Elec       q    Type
REMARK                         _______ _______ _______ _____ _____    ______ ____
ROOT
ATOM      1  N   UNL     1       2.387   1.071  -0.015  0.00  0.00    -0.255 N 
ATOM      2  C   UNL     1       2.972   0.738   1.149  0.00  0.00    +0.268 A 
ATOM      3  O   UNL     1       2.448   1.030   2.210  0.00  0.00    -0.267 OA
ATOM      4  C   UNL     1       4.217   0.032   1.127  0.00  0.00    +0.076 A 
ATOM      5  C   UNL     1       5.020  -0.430   2.256  0.00  0.00    -0.018 A 
ATOM      6  C   UNL     1       6.171  -1.076   1.970  0.00  0.00    +0.021 A 
ATOM      7  S   UNL     1       6.253  -1.106   0.202  0.00  0.00    -0.071 S 
ATOM      8  C   UNL     1       4.737  -0.250  -0.149  0.00  0.00    +0.117 A 
ATOM      9  N   UNL     1       4.111   0.111  -1.263  0.00  0.00    -0.215 NA
ATOM     10  C   UNL     1       2.963   0.756  -1.214  0.00  0.00    +0.178 A 
ATOM     11  C   UNL     1       7.144  -1.636   2.961  0.00  0.00    +0.203 C 
ATOM     12  O   UNL     1       6.503  -1.655   4.246  0.00  0.00    -0.371 OA
ATOM     13  C   UNL     1       5.863  -0.421   4.583  0.00  0.00    +0.126 C 
ATOM     14  C   UNL     1       4.619  -0.217   3.714  0.00  0.00    +0.068 C 
ENDROOT
BRANCH   1  21
ATOM     15  C   UNL     1       2.444   3.916   0.018  0.00  0.00    +0.046 C 
ATOM     16  C   UNL     1       1.148   3.146   0.017  0.00  0.00    -0.026 A 
ATOM     17  C   UNL     1      -0.057   3.820   0.033  0.00  0.00    +0.005 A 
ATOM     18  C   UNL     1      -1.246   3.114   0.032  0.00  0.00    +0.000 A 
ATOM     19  C   UNL     1      -1.232   1.731   0.010  0.00  0.00    +0.002 A 
ATOM     20  C   UNL     1      -0.030   1.051   0.000  0.00  0.00    +0.026 A 
ATOM     21  C   UNL     1       1.165   1.758   0.001  0.00  0.00    +0.055 A 
ENDBRANCH   1  21
BRANCH  13  22
ATOM     22  C   UNL     1       5.454  -0.449   6.057  0.00  0.00    +0.012 C 
ATOM     23  C   UNL     1       6.697  -0.636   6.929  0.00  0.00    +0.010 C 
ATOM     24  C   UNL     1       4.769   0.871   6.421  0.00  0.00    +0.010 C 
ENDBRANCH  13  22
BRANCH  10  25
ATOM     25  S   UNL     1       2.161   1.219  -2.713  0.00  0.00    -0.078 S 
BRANCH  25  26
ATOM     26  C   UNL     1       3.343   0.564  -3.917  0.00  0.00    +0.173 C 
BRANCH  26  27
ATOM     27  C   UNL     1       2.851   0.852  -5.312  0.00  0.00    +0.228 C 
ATOM     28  O   UNL     1       1.804   1.442  -5.476  0.00  0.00    -0.275 OA
ATOM     29  N   UNL     1       3.574   0.454  -6.378  0.00  0.00    -0.282 N 
ATOM     30  H   UNL     1       4.449   0.055  -6.248  0.00  0.00    +0.155 HD
BRANCH  29  31
ATOM     31  C   UNL     1       3.063   0.617  -7.672  0.00  0.00    +0.076 A 
ATOM     32  C   UNL     1       1.692   0.687  -7.875  0.00  0.00    +0.027 A 
ATOM     33  C   UNL     1       1.191   0.853  -9.152  0.00  0.00    +0.002 A 
ATOM     34  C   UNL     1       2.051   0.940 -10.230  0.00  0.00    +0.004 A 
ATOM     35  C   UNL     1       3.418   0.866 -10.037  0.00  0.00    +0.047 A 
ATOM     36  C   UNL     1       3.929   0.704  -8.759  0.00  0.00    +0.141 A 
BRANCH  36  37
ATOM     37  O   UNL     1       5.273   0.630  -8.567  0.00  0.00    -0.493 OA
ATOM     38  C   UNL     1       6.101   0.727  -9.728  0.00  0.00    +0.277 C 
ENDBRANCH  36  37
ENDBRANCH  29  31
ENDBRANCH  26  27
ENDBRANCH  25  26
ENDBRANCH  10  25
TORSDOF 7
