REMARK  Name = ZINC57447967
REMARK  4 active torsions:
REMARK  status: ('A' for Active; 'I' for Inactive)
REMARK    1  A    between atoms: C_4  and  C_7
REMARK    2  A    between atoms: C_7  and  N_8
REMARK    3  A    between atoms: C_15  and  C_25
REMARK    4  A    between atoms: C_25  and  O_32
REMARK                            x       y       z     vdW  Elec       q    Type
REMARK                         _______ _______ _______ _____ _____    ______ ____
ROOT
ATOM      1  N   UNL     1       4.153  -0.953   1.342  0.00  0.00    -0.288 NA
ATOM      2  C   UNL     1       3.247  -1.887   2.026  0.00  0.00    +0.107 C 
ATOM      3  C   UNL     1       3.461  -1.858   3.545  0.00  0.00    +0.137 C 
ATOM      4  N   UNL     1       4.902  -1.988   3.808  0.00  0.00    -0.341 N 
ATOM      5  C   UNL     1       5.562  -2.284   4.963  0.00  0.00    +0.050 A 
ATOM      6  C   UNL     1       5.106  -2.588   6.244  0.00  0.00    +0.027 A 
ATOM      7  C   UNL     1       6.061  -2.840   7.212  0.00  0.00    +0.008 A 
ATOM      8  C   UNL     1       7.418  -2.797   6.938  0.00  0.00    -0.015 A 
ATOM      9  C   UNL     1       7.900  -2.503   5.688  0.00  0.00    +0.016 A 
ATOM     10  C   UNL     1       6.961  -2.244   4.684  0.00  0.00    +0.004 A 
ATOM     11  C   UNL     1       7.080  -1.917   3.290  0.00  0.00    -0.017 A 
ATOM     12  C   UNL     1       5.824  -1.791   2.818  0.00  0.00    +0.040 A 
ATOM     13  C   UNL     1       5.542  -1.456   1.371  0.00  0.00    +0.104 C 
ATOM     14  C   UNL     1       6.517  -0.373   0.938  0.00  0.00    +0.025 C 
ATOM     15  C   UNL     1       7.928  -0.500   1.457  0.00  0.00    +0.007 C 
ATOM     16  C   UNL     1       8.232  -1.695   2.350  0.00  0.00    +0.037 C 
ENDROOT
BRANCH   8  17
ATOM     17  C   UNL     1       8.396  -3.083   8.049  0.00  0.00    +0.091 C 
ATOM     18  C   UNL     1       8.752  -4.583   8.028  0.00  0.00    +0.039 C 
ATOM     19  C   UNL     1      10.056  -4.776   8.753  0.00  0.00    +0.003 C 
ATOM     20  C   UNL     1       9.859  -5.136  10.238  0.00  0.00    +0.000 C 
ATOM     21  C   UNL     1       8.741  -4.314  10.908  0.00  0.00    +0.000 C 
ATOM     22  C   UNL     1       8.770  -2.865  10.502  0.00  0.00    +0.003 C 
ATOM     23  C   UNL     1       7.807  -2.670   9.314  0.00  0.00    +0.039 C 
BRANCH  17  24
ATOM     24  O   UNL     1       9.586  -2.324   7.823  0.00  0.00    -0.384 OA
ATOM     25  H   UNL     1      10.029  -2.526   6.987  0.00  0.00    +0.211 HD
ENDBRANCH  17  24
ENDBRANCH   8  17
BRANCH   1  26
ATOM     26  C   UNL     1       3.711  -0.707  -0.038  0.00  0.00    +0.120 C 
BRANCH  26  30
ATOM     27  C   UNL     1      -0.017   1.378   0.010  0.00  0.00    +0.000 A 
ATOM     28  C   UNL     1       1.171   2.086   0.002  0.00  0.00    +0.000 A 
ATOM     29  C   UNL     1       2.377   1.411  -0.013  0.00  0.00    +0.005 A 
ATOM     30  C   UNL     1       2.396   0.029  -0.020  0.00  0.00    -0.033 A 
ATOM     31  C   UNL     1       1.208  -0.679  -0.012  0.00  0.00    +0.005 A 
ATOM     32  C   UNL     1       0.002  -0.004   0.002  0.00  0.00    +0.000 A 
ENDBRANCH  26  30
ENDBRANCH   1  26
TORSDOF 4
