REMARK  Name = ZINC08695369
REMARK  17 active torsions:
REMARK  status: ('A' for Active; 'I' for Inactive)
REMARK    1  A    between atoms: C_1  and  C_2
REMARK    2  A    between atoms: C_2  and  C_3
REMARK    3  A    between atoms: C_3  and  C_4
REMARK    4  A    between atoms: C_4  and  N_72
REMARK    5  A    between atoms: C_5  and  C_6
REMARK    6  A    between atoms: C_5  and  N_72
REMARK    7  A    between atoms: C_6  and  C_7
REMARK    8  A    between atoms: C_7  and  C_8
REMARK    9  A    between atoms: C_9  and  C_10
REMARK   10  A    between atoms: C_9  and  N_72
REMARK   11  A    between atoms: C_10  and  C_11
REMARK   12  A    between atoms: C_11  and  N_12
REMARK   13  A    between atoms: C_13  and  C_29
REMARK   14  A    between atoms: C_15  and  C_20
REMARK   15  A    between atoms: C_16  and  O_19
REMARK   16  A    between atoms: C_20  and  C_22
REMARK   17  A    between atoms: C_32  and  C_35
REMARK                            x       y       z     vdW  Elec       q    Type
REMARK                         _______ _______ _______ _____ _____    ______ ____
ROOT
ATOM      1  N   UNL     1      -3.727  -6.487   0.942  0.00  0.00    -0.284 N 
ATOM      2  C   UNL     1      -3.704  -7.488   2.016  0.00  0.00    +0.144 C 
ATOM      3  C   UNL     1      -3.056  -8.720   1.430  0.00  0.00    +0.071 C 
ATOM      4  C   UNL     1      -2.747  -8.426   0.145  0.00  0.00    +0.188 C 
ATOM      5  C   UNL     1      -3.172  -7.042  -0.151  0.00  0.00    +0.282 C 
ATOM      6  O   UNL     1      -3.037  -6.486  -1.223  0.00  0.00    -0.267 OA
ENDROOT
BRANCH   2   7
ATOM      7  C   UNL     1      -5.109  -7.803   2.460  0.00  0.00    -0.022 A 
ATOM      8  C   UNL     1      -6.119  -7.923   1.524  0.00  0.00    +0.006 A 
ATOM      9  C   UNL     1      -7.407  -8.217   1.931  0.00  0.00    +0.004 A 
ATOM     10  C   UNL     1      -7.687  -8.380   3.275  0.00  0.00    -0.050 A 
ATOM     11  C   UNL     1      -6.678  -8.255   4.211  0.00  0.00    +0.004 A 
ATOM     12  C   UNL     1      -5.389  -7.966   3.804  0.00  0.00    +0.006 A 
ATOM     13  C   UNL     1      -9.092  -8.695   3.719  0.00  0.00    +0.044 C 
ENDBRANCH   2   7
BRANCH   4  14
ATOM     14  O   UNL     1      -2.150  -9.268  -0.730  0.00  0.00    -0.502 OA
ATOM     15  H   UNL     1      -2.035  -8.807  -1.610  0.00  0.00    +0.292 HD
ENDBRANCH   4  14
BRANCH   3  16
ATOM     16  C   UNL     1      -2.809  -9.990   2.120  0.00  0.00    +0.195 C 
ATOM     17  O   UNL     1      -3.383 -11.000   1.759  0.00  0.00    -0.287 OA
BRANCH  16  18
ATOM     18  C   UNL     1      -1.862 -10.043   3.253  0.00  0.00    +0.022 A 
ATOM     19  C   UNL     1      -1.131  -8.908   3.609  0.00  0.00    +0.014 A 
ATOM     20  C   UNL     1      -0.254  -8.961   4.671  0.00  0.00    +0.039 A 
ATOM     21  C   UNL     1      -0.088 -10.143   5.378  0.00  0.00    +0.123 A 
ATOM     22  C   UNL     1      -0.807 -11.275   5.024  0.00  0.00    +0.039 A 
ATOM     23  C   UNL     1      -1.691 -11.231   3.968  0.00  0.00    +0.014 A 
ATOM     24  F   UNL     1       0.777 -10.191   6.414  0.00  0.00    -0.205 F 
ENDBRANCH  16  18
ENDBRANCH   3  16
BRANCH   1  25
ATOM     25  C   UNL     1      -4.264  -5.128   1.041  0.00  0.00    +0.107 C 
BRANCH  25  26
ATOM     26  C   UNL     1      -3.157  -4.175   1.496  0.00  0.00    +0.000 C 
BRANCH  26  27
ATOM     27  C   UNL     1      -3.718  -2.755   1.600  0.00  0.00    -0.077 C 
BRANCH  27  28
ATOM     28  N   UNL     1      -2.644  -1.850   2.060  0.00  0.00    +0.380 N 
ATOM     29  H   UNL     1      -2.219  -2.242   2.909  0.00  0.00    -0.082 HD
BRANCH  28  30
ATOM     30  C   UNL     1      -3.205  -0.519   2.376  0.00  0.00    -0.079 C 
BRANCH  30  31
ATOM     31  C   UNL     1      -3.926  -0.597   3.723  0.00  0.00    -0.019 C 
BRANCH  31  33
ATOM     32  C   UNL     1      -5.106   0.724   5.485  0.00  0.00    +0.004 C 
ATOM     33  C   UNL     1      -4.385   0.802   4.137  0.00  0.00    -0.005 C 
ENDBRANCH  31  33
ENDBRANCH  30  31
ENDBRANCH  28  30
BRANCH  28  34
ATOM     34  C   UNL     1      -1.606  -1.726   1.016  0.00  0.00    -0.079 C 
BRANCH  34  35
ATOM     35  C   UNL     1      -0.336  -1.156   1.652  0.00  0.00    -0.019 C 
BRANCH  35  36
ATOM     36  C   UNL     1       0.723  -0.939   0.569  0.00  0.00    -0.005 C 
ATOM     37  C   UNL     1       1.993  -0.369   1.205  0.00  0.00    +0.004 C 
ENDBRANCH  35  36
ENDBRANCH  34  35
ENDBRANCH  28  34
ENDBRANCH  27  28
ENDBRANCH  26  27
ENDBRANCH  25  26
ENDBRANCH   1  25
TORSDOF 14
