REMARK  Name = ZINC39565467
REMARK  14 active torsions:
REMARK  status: ('A' for Active; 'I' for Inactive)
REMARK    1  A    between atoms: C_1  and  C_2
REMARK    2  A    between atoms: C_2  and  C_3
REMARK    3  A    between atoms: C_3  and  C_36
REMARK    4  A    between atoms: N_6  and  C_10
REMARK    5  A    between atoms: C_10  and  C_11
REMARK    6  A    between atoms: C_11  and  O_13
REMARK    7  A    between atoms: O_13  and  C_14
REMARK    8  A    between atoms: C_14  and  C_15
REMARK    9  A    between atoms: C_15  and  C_17
REMARK   10  A    between atoms: C_19  and  C_35
REMARK   11  A    between atoms: N_20  and  C_23
REMARK   12  A    between atoms: C_21  and  C_22
REMARK   13  A    between atoms: C_23  and  C_24
REMARK   14  A    between atoms: C_36  and  C_37
REMARK                            x       y       z     vdW  Elec       q    Type
REMARK                         _______ _______ _______ _____ _____    ______ ____
ROOT
ATOM      1  C   UNL     1      -0.475   5.982  -5.877  0.00  0.00    +0.202 C 
ATOM      2  O   UNL     1      -0.273   5.502  -6.973  0.00  0.00    -0.288 OA
ENDROOT
BRANCH   1   3
ATOM      3  C   UNL     1      -0.924   7.371  -5.757  0.00  0.00    +0.042 A 
ATOM      4  C   UNL     1      -1.208   8.105  -4.517  0.00  0.00    +0.034 A 
ATOM      5  C   UNL     1      -1.588   9.340  -4.888  0.00  0.00    +0.017 A 
ATOM      6  N   UNL     1      -1.562   9.427  -6.249  0.00  0.00    -0.344 N 
ATOM      7  C   UNL     1      -1.162   8.261  -6.787  0.00  0.00    +0.027 A 
ATOM      8  C   UNL     1      -1.003   7.974  -8.258  0.00  0.00    +0.064 C 
ATOM      9  C   UNL     1      -1.982  10.451  -3.949  0.00  0.00    +0.063 C 
BRANCH   6  10
ATOM     10  C   UNL     1      -1.915  10.624  -7.017  0.00  0.00    +0.169 C 
BRANCH  10  11
ATOM     11  C   UNL     1      -0.664  11.479  -7.231  0.00  0.00    +0.230 C 
ATOM     12  C   UNL     1      -1.004  12.678  -8.127  0.00  0.00    +0.275 C 
ATOM     13  O   UNL     1       0.181  13.463  -8.294  0.00  0.00    -0.485 OA
ATOM     14  C   UNL     1       0.901  13.730  -7.171  0.00  0.00    +0.162 A 
ATOM     15  C   UNL     1       1.832  14.758  -7.187  0.00  0.00    +0.049 A 
ATOM     16  C   UNL     1       2.573  15.040  -6.055  0.00  0.00    +0.004 A 
ATOM     17  C   UNL     1       2.389  14.297  -4.903  0.00  0.00    +0.004 A 
ATOM     18  C   UNL     1       1.462  13.272  -4.880  0.00  0.00    +0.049 A 
ATOM     19  C   UNL     1       0.714  12.986  -6.012  0.00  0.00    +0.163 A 
ATOM     20  O   UNL     1      -0.200  11.978  -5.971  0.00  0.00    -0.480 OA
ENDBRANCH  10  11
ENDBRANCH   6  10
ENDBRANCH   1   3
BRANCH   1  21
ATOM     21  C   UNL     1      -0.265   5.148  -4.639  0.00  0.00    +0.311 C 
BRANCH  21  22
ATOM     22  O   UNL     1       0.170   3.840  -5.014  0.00  0.00    -0.455 OA
BRANCH  22  23
ATOM     23  C   UNL     1       0.403   2.967  -4.021  0.00  0.00    +0.326 C 
ATOM     24  O   UNL     1       0.244   3.304  -2.872  0.00  0.00    -0.249 OA
BRANCH  23  25
ATOM     25  C   UNL     1       0.864   1.569  -4.340  0.00  0.00    +0.238 C 
BRANCH  25  29
ATOM     26  C   UNL     1       0.718  -0.497  -1.257  0.00  0.00    +0.112 C 
ATOM     27  C   UNL     1       0.081   0.093  -2.499  0.00  0.00    +0.247 C 
ATOM     28  O   UNL     1      -1.061  -0.057  -2.878  0.00  0.00    -0.273 OA
ATOM     29  N   UNL     1       1.047   0.819  -3.095  0.00  0.00    -0.213 N 
ATOM     30  C   UNL     1       2.195   0.770  -2.408  0.00  0.00    +0.310 C 
ATOM     31  O   UNL     1       3.210   1.345  -2.748  0.00  0.00    -0.252 OA
ATOM     32  N   UNL     1       2.099   0.013  -1.301  0.00  0.00    -0.285 N 
ATOM     33  H   UNL     1       2.803  -0.163  -0.657  0.00  0.00    +0.151 HD
BRANCH  26  35
ATOM     34  C   UNL     1      -0.019   1.526   0.010  0.00  0.00    +0.006 C 
ATOM     35  C   UNL     1       0.002  -0.004   0.002  0.00  0.00    +0.032 C 
ENDBRANCH  26  35
BRANCH  26  36
ATOM     36  C   UNL     1       0.707  -2.026  -1.316  0.00  0.00    +0.032 C 
ATOM     37  C   UNL     1       1.534  -2.496  -2.515  0.00  0.00    +0.006 C 
ENDBRANCH  26  36
ENDBRANCH  25  29
ENDBRANCH  23  25
ENDBRANCH  22  23
ENDBRANCH  21  22
ENDBRANCH   1  21
TORSDOF 10
