REMARK  Name = ZINC36312918
REMARK  13 active torsions:
REMARK  status: ('A' for Active; 'I' for Inactive)
REMARK    1  A    between atoms: C_1  and  C_2
REMARK    2  A    between atoms: N_8  and  C_9
REMARK    3  A    between atoms: C_10  and  C_20
REMARK    4  A    between atoms: C_11  and  C_14
REMARK    5  A    between atoms: C_20  and  N_21
REMARK    6  A    between atoms: N_21  and  C_22
REMARK    7  A    between atoms: N_21  and  C_27
REMARK    8  A    between atoms: C_22  and  C_23
REMARK    9  A    between atoms: C_23  and  N_24
REMARK   10  A    between atoms: N_24  and  C_25
REMARK   11  A    between atoms: N_24  and  C_26
REMARK   12  A    between atoms: C_27  and  N_29
REMARK   13  A    between atoms: N_29  and  C_30
REMARK                            x       y       z     vdW  Elec       q    Type
REMARK                         _______ _______ _______ _____ _____    ______ ____
ROOT
ATOM      1  C   UNL     1       2.422  -1.042   4.236  0.00  0.00    +0.149 C 
ENDROOT
BRANCH   1   3
ATOM      2  C   UNL     1       2.402   1.422   3.570  0.00  0.00    +0.226 A 
ATOM      3  C   UNL     1       1.957   0.388   4.328  0.00  0.00    +0.059 A 
ATOM      4  C   UNL     1       0.982   0.888   5.216  0.00  0.00    +0.120 A 
ATOM      5  N   UNL     1       0.853   2.175   4.993  0.00  0.00    -0.076 NA
ATOM      6  O   UNL     1       1.749   2.531   3.956  0.00  0.00    -0.339 OA
BRANCH   2  13
ATOM      7  C   UNL     1       1.488   0.763   1.113  0.00  0.00    +0.028 C 
ATOM      8  C   UNL     1       3.006   0.917   1.220  0.00  0.00    +0.073 C 
ATOM      9  C   UNL     1       3.487   1.974   0.221  0.00  0.00    +0.022 C 
ATOM     10  C   UNL     1       4.982   2.224   0.429  0.00  0.00    +0.003 C 
ATOM     11  C   UNL     1       5.222   2.753   1.845  0.00  0.00    +0.019 C 
ATOM     12  C   UNL     1       4.761   1.704   2.862  0.00  0.00    +0.108 C 
ATOM     13  N   UNL     1       3.363   1.349   2.579  0.00  0.00    -0.296 N 
ENDBRANCH   2  13
BRANCH   4  14
ATOM     14  C   UNL     1       0.233   0.097   6.225  0.00  0.00    +0.004 A 
ATOM     15  C   UNL     1      -0.234  -1.177   5.909  0.00  0.00    +0.010 A 
ATOM     16  C   UNL     1      -0.929  -1.908   6.851  0.00  0.00    +0.001 A 
ATOM     17  C   UNL     1      -1.163  -1.377   8.107  0.00  0.00    +0.000 A 
ATOM     18  C   UNL     1      -0.702  -0.113   8.426  0.00  0.00    +0.001 A 
ATOM     19  C   UNL     1      -0.001   0.625   7.493  0.00  0.00    +0.010 A 
ENDBRANCH   4  14
ENDBRANCH   1   3
BRANCH   1  20
ATOM     20  N   UNL     1       3.774  -1.081   3.672  0.00  0.00    -0.310 N 
BRANCH  20  21
ATOM     21  C   UNL     1       3.964  -1.494   2.403  0.00  0.00    +0.137 C 
ATOM     22  S   UNL     1       2.617  -1.870   1.415  0.00  0.00    -0.018 S 
BRANCH  21  23
ATOM     23  N   UNL     1       5.213  -1.610   1.912  0.00  0.00    -0.297 N 
ATOM     24  H   UNL     1       5.574  -0.918   1.336  0.00  0.00    +0.154 HD
BRANCH  23  25
ATOM     25  C   UNL     1       5.990  -2.730   2.233  0.00  0.00    +0.033 A 
ATOM     26  C   UNL     1       5.416  -3.809   2.892  0.00  0.00    +0.026 A 
ATOM     27  C   UNL     1       6.184  -4.912   3.209  0.00  0.00    +0.040 A 
ATOM     28  C   UNL     1       7.526  -4.943   2.869  0.00  0.00    +0.124 A 
ATOM     29  C   UNL     1       8.101  -3.868   2.213  0.00  0.00    +0.040 A 
ATOM     30  C   UNL     1       7.335  -2.765   1.889  0.00  0.00    +0.026 A 
ATOM     31  F   UNL     1       8.276  -6.023   3.180  0.00  0.00    -0.205 F 
ENDBRANCH  23  25
ENDBRANCH  21  23
ENDBRANCH  20  21
BRANCH  20  32
ATOM     32  C   UNL     1       4.920  -0.671   4.488  0.00  0.00    +0.088 C 
BRANCH  32  33
ATOM     33  C   UNL     1       5.352  -1.834   5.383  0.00  0.00    -0.060 C 
BRANCH  33  34
ATOM     34  N   UNL     1       6.429  -1.390   6.277  0.00  0.00    +0.377 N 
ATOM     35  C   UNL     1       5.912  -0.366   7.195  0.00  0.00    -0.097 C 
ATOM     36  C   UNL     1       6.925  -2.536   7.052  0.00  0.00    -0.097 C 
ATOM     37  H   UNL     1       7.183  -1.002   5.730  0.00  0.00    -0.083 HD
ENDBRANCH  33  34
ENDBRANCH  32  33
ENDBRANCH  20  32
ENDBRANCH   1  20
TORSDOF 10
