REMARK  Name = ZINC16001700
REMARK  8 active torsions:
REMARK  status: ('A' for Active; 'I' for Inactive)
REMARK    1  A    between atoms: C_1  and  C_2
REMARK    2  A    between atoms: C_7  and  C_8
REMARK    3  A    between atoms: N_25  and  C_28
REMARK    4  A    between atoms: C_29  and  C_35
REMARK    5  A    between atoms: C_30  and  C_34
REMARK    6  A    between atoms: C_31  and  C_33
REMARK    7  A    between atoms: C_35  and  O_37
REMARK    8  A    between atoms: O_37  and  C_38
REMARK                            x       y       z     vdW  Elec       q    Type
REMARK                         _______ _______ _______ _____ _____    ______ ____
ROOT
ATOM      1  C   UNL     1       0.397  -6.108   3.238  0.00  0.00    +0.044 C 
ATOM      2  C   UNL     1       0.623  -4.894   2.374  0.00  0.00    -0.046 A 
ATOM      3  C   UNL     1      -0.458  -4.162   1.919  0.00  0.00    +0.004 A 
ATOM      4  C   UNL     1      -0.251  -3.048   1.125  0.00  0.00    +0.005 A 
ATOM      5  C   UNL     1       1.030  -2.668   0.791  0.00  0.00    -0.027 A 
ATOM      6  C   UNL     1       2.126  -3.397   1.244  0.00  0.00    +0.039 A 
ATOM      7  C   UNL     1       1.908  -4.518   2.042  0.00  0.00    -0.026 A 
ATOM      8  C   UNL     1       3.080  -5.322   2.544  0.00  0.00    +0.046 C 
ATOM      9  N   UNL     1       3.312  -2.825   0.779  0.00  0.00    -0.286 N 
ATOM     10  C   UNL     1       3.087  -1.732   0.025  0.00  0.00    +0.212 C 
ATOM     11  O   UNL     1       3.925  -1.035  -0.508  0.00  0.00    -0.277 OA
ATOM     12  C   UNL     1       1.595  -1.542  -0.028  0.00  0.00    +0.053 C 
ATOM     13  C   UNL     1       1.081  -1.583  -1.471  0.00  0.00    +0.089 C 
ATOM     14  C   UNL     1      -0.069  -0.540  -1.510  0.00  0.00    +0.074 C 
ATOM     15  C   UNL     1      -0.141   0.035  -0.083  0.00  0.00    -0.054 C 
ATOM     16  N   UNL     1       1.203  -0.230   0.514  0.00  0.00    +0.395 N 
ATOM     17  C   UNL     1       2.078   0.827  -0.048  0.00  0.00    -0.076 C 
ATOM     18  C   UNL     1       1.197   2.091  -0.114  0.00  0.00    -0.020 C 
ATOM     19  C   UNL     1      -0.253   1.568  -0.156  0.00  0.00    -0.016 C 
ATOM     20  C   UNL     1       0.454   0.521  -2.453  0.00  0.00    +0.229 C 
ATOM     21  O   UNL     1      -0.137   1.531  -2.768  0.00  0.00    -0.275 OA
ATOM     22  N   UNL     1       1.670   0.169  -2.885  0.00  0.00    -0.203 N 
ATOM     23  C   UNL     1       2.119  -0.994  -2.399  0.00  0.00    +0.230 C 
ATOM     24  O   UNL     1       3.190  -1.497  -2.663  0.00  0.00    -0.275 OA
ATOM     25  H   UNL     1       4.280  -3.275   1.043  0.00  0.00    +0.155 HD
ATOM     26  H   UNL     1       1.253  -0.235   1.613  0.00  0.00    -0.079 HD
ENDROOT
BRANCH  22  27
ATOM     27  C   UNL     1       2.408   0.950  -3.768  0.00  0.00    +0.096 A 
ATOM     28  C   UNL     1       2.410   0.915  -5.157  0.00  0.00    +0.091 A 
ATOM     29  C   UNL     1       3.280   1.850  -5.829  0.00  0.00    -0.025 A 
ATOM     30  C   UNL     1       4.021   2.665  -5.056  0.00  0.00    -0.008 A 
ATOM     31  S   UNL     1       3.554   2.195  -3.402  0.00  0.00    -0.077 S 
ATOM     32  C   UNL     1       5.006   3.721  -5.485  0.00  0.00    +0.052 C 
ATOM     33  C   UNL     1       3.362   1.906  -7.333  0.00  0.00    +0.045 C 
BRANCH  28  34
ATOM     34  C   UNL     1       1.566  -0.022  -5.904  0.00  0.00    +0.342 C 
ATOM     35  O   UNL     1       0.441   0.302  -6.232  0.00  0.00    -0.245 OA
BRANCH  34  36
ATOM     36  O   UNL     1       2.037  -1.244  -6.226  0.00  0.00    -0.464 OA
ATOM     37  C   UNL     1       1.146  -2.120  -6.966  0.00  0.00    +0.280 C 
ENDBRANCH  34  36
ENDBRANCH  28  34
ENDBRANCH  22  27
TORSDOF 3
