REMARK  Name = ZINC16509494
REMARK  9 active torsions:
REMARK  status: ('A' for Active; 'I' for Inactive)
REMARK    1  A    between atoms: C_1  and  C_2
REMARK    2  A    between atoms: C_2  and  C_3
REMARK    3  A    between atoms: C_2  and  N_4
REMARK    4  A    between atoms: N_4  and  C_5
REMARK    5  A    between atoms: C_5  and  C_6
REMARK    6  A    between atoms: C_6  and  C_7
REMARK    7  A    between atoms: C_12  and  N_15
REMARK    8  A    between atoms: C_28  and  C_31
REMARK    9  A    between atoms: C_31  and  C_32
REMARK                            x       y       z     vdW  Elec       q    Type
REMARK                         _______ _______ _______ _____ _____    ______ ____
ROOT
ATOM      1  C   UNL     1      -5.138   5.619   0.104  0.00  0.00    +0.217 C 
ATOM      2  O   UNL     1      -5.715   5.849  -0.938  0.00  0.00    -0.276 OA
ATOM      3  N   UNL     1      -3.886   5.120   0.084  0.00  0.00    -0.301 N 
ATOM      4  C   UNL     1      -3.208   4.849  -1.192  0.00  0.00    +0.110 C 
ATOM      5  C   UNL     1      -2.720   3.397  -1.192  0.00  0.00    +0.044 C 
ATOM      6  C   UNL     1      -1.852   3.155   0.045  0.00  0.00    +0.095 C 
ATOM      7  C   UNL     1      -2.685   3.383   1.308  0.00  0.00    +0.044 C 
ATOM      8  C   UNL     1      -3.173   4.835   1.337  0.00  0.00    +0.110 C 
ENDROOT
BRANCH   6   9
ATOM      9  N   UNL     1      -1.355   1.776   0.030  0.00  0.00    -0.289 N 
ATOM     10  C   UNL     1      -0.017   1.392   0.010  0.00  0.00    +0.070 A 
ATOM     11  C   UNL     1       1.176   2.099   0.002  0.00  0.00    +0.028 A 
ATOM     12  C   UNL     1       2.378   1.419  -0.012  0.00  0.00    +0.002 A 
ATOM     13  C   UNL     1       2.397   0.035  -0.020  0.00  0.00    +0.002 A 
ATOM     14  C   UNL     1       1.214  -0.678  -0.013  0.00  0.00    +0.028 A 
ATOM     15  C   UNL     1       0.002  -0.004   0.002  0.00  0.00    +0.067 A 
ATOM     16  N   UNL     1      -1.326  -0.425   0.012  0.00  0.00    -0.306 N 
ATOM     17  H   UNL     1      -1.629  -1.346   0.011  0.00  0.00    +0.170 HD
ATOM     18  C   UNL     1      -2.116   0.665   0.026  0.00  0.00    +0.328 A 
ATOM     19  O   UNL     1      -3.333   0.649   0.037  0.00  0.00    -0.247 OA
ENDBRANCH   6   9
BRANCH   1  20
ATOM     20  C   UNL     1      -5.820   5.890   1.420  0.00  0.00    +0.115 C 
BRANCH  20  21
ATOM     21  C   UNL     1      -7.221   6.449   1.163  0.00  0.00    +0.116 C 
BRANCH  21  22
ATOM     22  N   UNL     1      -7.883   6.713   2.442  0.00  0.00    -0.305 N 
ATOM     23  C   UNL     1      -8.640   5.725   3.046  0.00  0.00    +0.181 A 
ATOM     24  N   UNL     1      -8.891   4.490   2.633  0.00  0.00    -0.208 NA
ATOM     25  C   UNL     1      -9.642   3.717   3.382  0.00  0.00    +0.145 A 
ATOM     26  N   UNL     1     -10.134   4.178   4.507  0.00  0.00    -0.192 NA
ATOM     27  S   UNL     1      -9.518   5.775   4.542  0.00  0.00    +0.049 S 
BRANCH  22  29
ATOM     28  C   UNL     1      -6.267   8.298   3.367  0.00  0.00    +0.028 C 
ATOM     29  C   UNL     1      -7.745   8.024   3.082  0.00  0.00    +0.069 C 
ATOM     30  C   UNL     1      -8.294   9.106   2.150  0.00  0.00    +0.028 C 
ENDBRANCH  22  29
BRANCH  25  31
ATOM     31  C   UNL     1      -9.943   2.305   2.948  0.00  0.00    +0.112 C 
BRANCH  31  32
ATOM     32  C   UNL     1     -11.195   2.294   2.110  0.00  0.00    -0.040 A 
ATOM     33  C   UNL     1     -12.427   2.120   2.712  0.00  0.00    +0.004 A 
ATOM     34  C   UNL     1     -13.577   2.114   1.944  0.00  0.00    +0.000 A 
ATOM     35  C   UNL     1     -13.493   2.272   0.573  0.00  0.00    +0.000 A 
ATOM     36  C   UNL     1     -12.260   2.441  -0.029  0.00  0.00    +0.000 A 
ATOM     37  C   UNL     1     -11.111   2.452   0.739  0.00  0.00    +0.004 A 
ENDBRANCH  31  32
ENDBRANCH  25  31
ENDBRANCH  21  22
ENDBRANCH  20  21
ENDBRANCH   1  20
TORSDOF 7
