REMARK  Name = ZINC08751209
REMARK  8 active torsions:
REMARK  status: ('A' for Active; 'I' for Inactive)
REMARK    1  A    between atoms: C_1  and  C_2
REMARK    2  A    between atoms: C_6  and  C_15
REMARK    3  A    between atoms: C_10  and  C_11
REMARK    4  A    between atoms: C_11  and  O_13
REMARK    5  A    between atoms: O_13  and  C_14
REMARK    6  A    between atoms: C_26  and  C_27
REMARK    7  A    between atoms: C_26  and  C_33
REMARK    8  A    between atoms: C_26  and  N_69
REMARK                            x       y       z     vdW  Elec       q    Type
REMARK                         _______ _______ _______ _____ _____    ______ ____
ROOT
ATOM      1  C   UNL     1       1.884   3.304  -3.212  0.00  0.00    +0.046 C 
ATOM      2  C   UNL     1       1.738   1.810  -3.087  0.00  0.00    -0.017 A 
ATOM      3  C   UNL     1       1.245   1.250  -1.903  0.00  0.00    +0.051 A 
ATOM      4  C   UNL     1       0.826   1.902  -0.703  0.00  0.00    +0.134 A 
ATOM      5  N   UNL     1       0.388   1.175   0.309  0.00  0.00    -0.212 NA
ATOM      6  C   UNL     1       0.323  -0.151   0.252  0.00  0.00    +0.163 A 
ATOM      7  N   UNL     1       0.698  -0.814  -0.836  0.00  0.00    -0.220 NA
ATOM      8  C   UNL     1       1.146  -0.165  -1.888  0.00  0.00    +0.115 A 
ATOM      9  S   UNL     1       1.734  -0.632  -3.496  0.00  0.00    -0.062 S 
ATOM     10  C   UNL     1       2.086   1.000  -4.127  0.00  0.00    +0.102 A 
ATOM     11  N   UNL     1       0.877   3.277  -0.603  0.00  0.00    -0.318 N 
ATOM     12  C   UNL     1       1.767   3.693   0.491  0.00  0.00    +0.088 C 
ATOM     13  C   UNL     1       1.858   5.221   0.518  0.00  0.00    -0.058 C 
ATOM     14  C   UNL     1      -0.376   5.371  -0.400  0.00  0.00    -0.058 C 
ATOM     15  C   UNL     1      -0.468   3.843  -0.427  0.00  0.00    +0.088 C 
ATOM     16  N   UNL     1       0.503   5.776   0.717  0.00  0.00    +0.389 N 
ATOM     17  H   UNL     1       0.117   5.409   1.595  0.00  0.00    -0.080 HD
ENDROOT
BRANCH   6  18
ATOM     18  C   UNL     1      -0.178  -0.906   1.425  0.00  0.00    +0.019 A 
ATOM     19  C   UNL     1      -0.572  -0.227   2.578  0.00  0.00    +0.011 A 
ATOM     20  C   UNL     1      -1.042  -0.934   3.665  0.00  0.00    +0.001 A 
ATOM     21  C   UNL     1      -1.115  -2.314   3.617  0.00  0.00    +0.000 A 
ATOM     22  C   UNL     1      -0.721  -2.994   2.479  0.00  0.00    +0.001 A 
ATOM     23  C   UNL     1      -0.254  -2.297   1.383  0.00  0.00    +0.011 A 
ENDBRANCH   6  18
BRANCH  10  24
ATOM     24  C   UNL     1       2.618   1.378  -5.440  0.00  0.00    +0.346 C 
ATOM     25  O   UNL     1       2.798   2.550  -5.709  0.00  0.00    -0.244 OA
BRANCH  24  26
ATOM     26  O   UNL     1       2.906   0.425  -6.350  0.00  0.00    -0.464 OA
ATOM     27  C   UNL     1       3.429   0.871  -7.629  0.00  0.00    +0.280 C 
ENDBRANCH  24  26
ENDBRANCH  10  24
BRANCH  16  28
ATOM     28  C   UNL     1       0.568   7.250   0.800  0.00  0.00    -0.007 C 
BRANCH  28  29
ATOM     29  C   UNL     1      -0.823   7.791   1.014  0.00  0.00    -0.057 A 
ATOM     30  C   UNL     1      -1.673   7.175   1.912  0.00  0.00    +0.002 A 
ATOM     31  C   UNL     1      -2.947   7.673   2.112  0.00  0.00    +0.000 A 
ATOM     32  C   UNL     1      -3.374   8.782   1.405  0.00  0.00    +0.000 A 
ATOM     33  C   UNL     1      -2.525   9.394   0.501  0.00  0.00    +0.000 A 
ATOM     34  C   UNL     1      -1.250   8.899   0.306  0.00  0.00    +0.002 A 
ENDBRANCH  28  29
BRANCH  28  35
ATOM     35  C   UNL     1       1.441   7.637   1.966  0.00  0.00    -0.057 A 
ATOM     36  C   UNL     1       1.303   6.987   3.178  0.00  0.00    +0.002 A 
ATOM     37  C   UNL     1       2.107   7.338   4.246  0.00  0.00    +0.000 A 
ATOM     38  C   UNL     1       3.043   8.346   4.105  0.00  0.00    +0.000 A 
ATOM     39  C   UNL     1       3.178   8.999   2.894  0.00  0.00    +0.000 A 
ATOM     40  C   UNL     1       2.377   8.645   1.824  0.00  0.00    +0.002 A 
ENDBRANCH  28  35
ENDBRANCH  16  28
TORSDOF 6
