REMARK  Name = ZINC33457739
REMARK  8 active torsions:
REMARK  status: ('A' for Active; 'I' for Inactive)
REMARK    1  A    between atoms: C_1  and  C_2
REMARK    2  A    between atoms: C_2  and  C_3
REMARK    3  A    between atoms: C_3  and  C_4
REMARK    4  A    between atoms: C_4  and  N_5
REMARK    5  A    between atoms: C_10  and  C_25
REMARK    6  A    between atoms: C_13  and  C_18
REMARK    7  A    between atoms: C_13  and  C_22
REMARK    8  A    between atoms: C_18  and  C_19
REMARK                            x       y       z     vdW  Elec       q    Type
REMARK                         _______ _______ _______ _____ _____    ______ ____
ROOT
ATOM      1  N   UNL     1      -1.372  -0.511   0.012  0.00  0.00    -0.242 N 
ATOM      2  C   UNL     1      -2.062  -0.756  -1.108  0.00  0.00    +0.224 C 
ATOM      3  O   UNL     1      -1.647  -0.593  -2.235  0.00  0.00    -0.275 OA
ATOM      4  C   UNL     1      -3.439  -1.268  -0.748  0.00  0.00    +0.077 C 
ATOM      5  C   UNL     1      -4.490  -0.205  -1.128  0.00  0.00    -0.020 C 
ATOM      6  N   UNL     1      -5.400  -0.144   0.053  0.00  0.00    +0.396 N 
ATOM      7  C   UNL     1      -4.480  -0.229   1.216  0.00  0.00    +0.058 C 
ATOM      8  C   UNL     1      -3.424  -1.276   0.804  0.00  0.00    +0.086 C 
ATOM      9  C   UNL     1      -2.039  -0.773   1.143  0.00  0.00    +0.225 C 
ATOM     10  O   UNL     1      -1.601  -0.626   2.264  0.00  0.00    -0.275 OA
ATOM     11  H   UNL     1      -5.961   0.802   0.035  0.00  0.00    -0.083 HD
ATOM     12  H   UNL     1      -6.104  -0.988   0.017  0.00  0.00    -0.083 HD
ENDROOT
BRANCH   5  13
ATOM     13  C   UNL     1      -5.264  -0.643  -2.345  0.00  0.00    -0.022 A 
ATOM     14  C   UNL     1      -5.109  -0.264  -3.637  0.00  0.00    +0.011 A 
ATOM     15  C   UNL     1      -5.939  -0.807  -4.600  0.00  0.00    +0.028 A 
ATOM     16  C   UNL     1      -6.893  -1.694  -4.220  0.00  0.00    +0.078 A 
ATOM     17  S   UNL     1      -6.627  -1.791  -2.458  0.00  0.00    -0.083 S 
ATOM     18 CL   UNL     1      -8.067  -2.521  -5.196  0.00  0.00    -0.076 Cl
ENDBRANCH   5  13
BRANCH   7  19
ATOM     19  C   UNL     1      -5.225  -0.689   2.442  0.00  0.00    +0.347 C 
ATOM     20  O   UNL     1      -4.707  -1.466   3.208  0.00  0.00    -0.248 OA
ATOM     21  O   UNL     1      -6.465  -0.234   2.684  0.00  0.00    -0.248 OA
ENDBRANCH   7  19
BRANCH   1  22
ATOM     22  C   UNL     1       0.002  -0.004   0.002  0.00  0.00    +0.116 C 
BRANCH  22  23
ATOM     23  C   UNL     1      -0.019   1.526   0.010  0.00  0.00    +0.019 C 
BRANCH  23  25
ATOM     24  C   UNL     1       1.396   3.585   0.008  0.00  0.00    +0.004 C 
ATOM     25  C   UNL     1       1.417   2.055  -0.000  0.00  0.00    -0.002 C 
ENDBRANCH  23  25
ENDBRANCH  22  23
ENDBRANCH   1  22
BRANCH   7  26
ATOM     26  C   UNL     1      -3.816   1.126   1.470  0.00  0.00    +0.125 C 
BRANCH  26  27
ATOM     27  C   UNL     1      -4.865   2.132   1.870  0.00  0.00    +0.355 C 
ATOM     28  O   UNL     1      -6.024   1.799   1.944  0.00  0.00    -0.246 OA
ATOM     29  O   UNL     1      -4.511   3.397   2.144  0.00  0.00    -0.246 OA
ENDBRANCH  26  27
ENDBRANCH   7  26
TORSDOF 7
