REMARK  Name = ZINC64031748
REMARK  12 active torsions:
REMARK  status: ('A' for Active; 'I' for Inactive)
REMARK    1  A    between atoms: C_1  and  C_2
REMARK    2  A    between atoms: C_10  and  C_12
REMARK    3  A    between atoms: N_14  and  C_15
REMARK    4  A    between atoms: C_18  and  C_33
REMARK    5  A    between atoms: N_20  and  C_22
REMARK    6  A    between atoms: C_22  and  C_23
REMARK    7  A    between atoms: C_25  and  O_31
REMARK    8  A    between atoms: C_27  and  O_29
REMARK    9  A    between atoms: O_29  and  C_30
REMARK   10  A    between atoms: O_31  and  C_32
REMARK   11  A    between atoms: C_33  and  O_35
REMARK   12  A    between atoms: O_35  and  C_36
REMARK                            x       y       z     vdW  Elec       q    Type
REMARK                         _______ _______ _______ _____ _____    ______ ____
ROOT
ATOM      1  C   UNL     1      -2.462   0.552   3.715  0.00  0.00    +0.089 C 
ATOM      2  C   UNL     1      -2.128   1.404   4.967  0.00  0.00    +0.054 C 
ATOM      3  C   UNL     1      -3.498   2.056   5.278  0.00  0.00    +0.168 C 
ATOM      4  N   UNL     1      -4.090   2.341   3.953  0.00  0.00    -0.284 NA
ATOM      5  C   UNL     1      -3.492   1.422   2.963  0.00  0.00    +0.107 C 
ENDROOT
BRANCH   1   8
ATOM      6  C   UNL     1      -1.205  -0.703   2.047  0.00  0.00    +0.240 C 
ATOM      7  O   UNL     1      -2.141  -1.470   1.961  0.00  0.00    -0.273 OA
ATOM      8  N   UNL     1      -1.266   0.342   2.896  0.00  0.00    -0.309 N 
ATOM      9  H   UNL     1      -0.517   0.954   2.966  0.00  0.00    +0.149 HD
BRANCH   6  19
ATOM     10  C   UNL     1      -0.018   1.503   0.010  0.00  0.00    +0.042 C 
ATOM     11  C   UNL     1       0.002  -0.004   0.002  0.00  0.00    -0.033 C 
ATOM     12  C   UNL     1       0.009  -0.811  -1.083  0.00  0.00    +0.001 A 
ATOM     13  C   UNL     1      -0.002  -0.538  -2.525  0.00  0.00    +0.030 A 
ATOM     14  C   UNL     1       0.009  -1.579  -3.390  0.00  0.00    +0.042 A 
ATOM     15  C   UNL     1       0.028  -2.909  -2.944  0.00  0.00    +0.022 A 
ATOM     16  C   UNL     1       0.038  -3.238  -1.635  0.00  0.00    +0.027 A 
ATOM     17  C   UNL     1       0.030  -2.223  -0.638  0.00  0.00    +0.043 A 
ATOM     18  N   UNL     1       0.036  -2.286   0.671  0.00  0.00    -0.370 N 
ATOM     19  C   UNL     1       0.026  -0.920   1.206  0.00  0.00    +0.193 C 
ATOM     20 CL   UNL     1      -0.004  -1.260  -5.097  0.00  0.00    -0.084 Cl
ATOM     21  H   UNL     1       0.049  -3.100   1.199  0.00  0.00    +0.161 HD
ENDBRANCH   6  19
ENDBRANCH   1   8
BRANCH   3  22
ATOM     22  C   UNL     1      -3.308   3.333   6.055  0.00  0.00    +0.324 C 
ATOM     23  O   UNL     1      -3.680   4.384   5.591  0.00  0.00    -0.249 OA
BRANCH  22  24
ATOM     24  O   UNL     1      -2.724   3.302   7.264  0.00  0.00    -0.467 OA
ATOM     25  C   UNL     1      -2.576   4.550   7.944  0.00  0.00    +0.280 C 
ENDBRANCH  22  24
ENDBRANCH   3  22
BRANCH   4  26
ATOM     26  C   UNL     1      -5.551   2.195   3.986  0.00  0.00    +0.120 C 
BRANCH  26  27
ATOM     27  C   UNL     1      -6.138   2.725   2.704  0.00  0.00    -0.026 A 
ATOM     28  C   UNL     1      -6.498   4.056   2.608  0.00  0.00    +0.050 A 
ATOM     29  C   UNL     1      -7.039   4.547   1.428  0.00  0.00    +0.124 A 
ATOM     30  C   UNL     1      -7.218   3.701   0.344  0.00  0.00    +0.091 A 
ATOM     31  C   UNL     1      -6.856   2.366   0.443  0.00  0.00    +0.124 A 
ATOM     32  C   UNL     1      -6.310   1.882   1.623  0.00  0.00    +0.050 A 
BRANCH  31  33
ATOM     33  O   UNL     1      -7.030   1.534  -0.618  0.00  0.00    -0.495 OA
ATOM     34  C   UNL     1      -7.592   2.102  -1.802  0.00  0.00    +0.277 C 
ENDBRANCH  31  33
BRANCH  29  35
ATOM     35  O   UNL     1      -7.394   5.855   1.335  0.00  0.00    -0.495 OA
ATOM     36  C   UNL     1      -7.944   6.291   0.090  0.00  0.00    +0.277 C 
ENDBRANCH  29  35
ENDBRANCH  26  27
ENDBRANCH   4  26
TORSDOF 8
