REMARK  Name = ZINC34788148
REMARK  6 active torsions:
REMARK  status: ('A' for Active; 'I' for Inactive)
REMARK    1  A    between atoms: C_1  and  C_2
REMARK    2  A    between atoms: C_7  and  C_8
REMARK    3  A    between atoms: N_17  and  C_18
REMARK    4  A    between atoms: C_18  and  C_19
REMARK    5  A    between atoms: C_28  and  C_30
REMARK    6  A    between atoms: C_33  and  C_35
REMARK                            x       y       z     vdW  Elec       q    Type
REMARK                         _______ _______ _______ _____ _____    ______ ____
ROOT
ATOM      1  C   UNL     1      -1.577  -2.406   4.623  0.00  0.00    +0.199 C 
ATOM      2  O   UNL     1      -0.664  -2.703   5.365  0.00  0.00    -0.278 OA
ATOM      3  N   UNL     1      -2.777  -3.005   4.759  0.00  0.00    -0.301 N 
ATOM      4  C   UNL     1      -3.009  -3.983   5.763  0.00  0.00    +0.109 C 
ATOM      5  C   UNL     1      -2.567  -5.432   5.374  0.00  0.00    +0.038 C 
ATOM      6  C   UNL     1      -2.906  -5.631   3.861  0.00  0.00    +0.109 C 
ATOM      7  N   UNL     1      -4.124  -5.030   3.443  0.00  0.00    -0.300 N 
ATOM      8  C   UNL     1      -4.035  -3.683   2.823  0.00  0.00    +0.126 C 
ATOM      9  C   UNL     1      -3.917  -2.666   3.869  0.00  0.00    +0.126 C 
ATOM     10  C   UNL     1      -5.308  -5.654   3.602  0.00  0.00    +0.219 C 
ATOM     11  O   UNL     1      -5.350  -6.754   4.111  0.00  0.00    -0.275 OA
ENDROOT
BRANCH  10  12
ATOM     12  C   UNL     1      -6.580  -4.986   3.147  0.00  0.00    +0.083 C 
ATOM     13  C   UNL     1      -7.563  -4.529   4.226  0.00  0.00    +0.022 C 
ATOM     14  C   UNL     1      -7.891  -5.745   3.356  0.00  0.00    +0.032 C 
BRANCH  14  15
ATOM     15  C   UNL     1      -8.964  -5.584   2.310  0.00  0.00    -0.044 A 
ATOM     16  C   UNL     1      -9.481  -4.331   2.038  0.00  0.00    +0.004 A 
ATOM     17  C   UNL     1     -10.465  -4.183   1.078  0.00  0.00    +0.000 A 
ATOM     18  C   UNL     1     -10.931  -5.287   0.391  0.00  0.00    +0.000 A 
ATOM     19  C   UNL     1     -10.414  -6.540   0.662  0.00  0.00    +0.000 A 
ATOM     20  C   UNL     1      -9.427  -6.688   1.619  0.00  0.00    +0.004 A 
ENDBRANCH  14  15
ENDBRANCH  10  12
BRANCH   1  21
ATOM     21  C   UNL     1      -1.369  -1.368   3.551  0.00  0.00    +0.020 C 
BRANCH  21  30
ATOM     22  C   UNL     1       0.243   0.050   2.492  0.00  0.00    -0.005 C 
ATOM     23  C   UNL     1       1.644   0.640   2.620  0.00  0.00    -0.047 A 
ATOM     24  C   UNL     1       2.341   1.229   1.568  0.00  0.00    +0.010 A 
ATOM     25  C   UNL     1       3.583   1.725   1.772  0.00  0.00    +0.045 A 
ATOM     26  S   UNL     1       3.839   1.376   3.506  0.00  0.00    -0.101 S 
ATOM     27  C   UNL     1       2.280   0.602   3.825  0.00  0.00    -0.010 A 
ATOM     28  C   UNL     1       1.740   0.030   5.095  0.00  0.00    +0.024 C 
ATOM     29  C   UNL     1       0.230  -0.194   4.897  0.00  0.00    -0.072 C 
ATOM     30  N   UNL     1       0.012  -0.871   3.611  0.00  0.00    +0.393 N 
ATOM     31  H   UNL     1       0.648  -1.651   3.536  0.00  0.00    -0.080 HD
BRANCH  22  38
ATOM     32  C   UNL     1      -0.648   1.422   0.111  0.00  0.00    +0.044 C 
ATOM     33  C   UNL     1      -0.299  -0.043   0.050  0.00  0.00    -0.049 A 
ATOM     34  C   UNL     1      -0.400  -0.728  -1.146  0.00  0.00    +0.003 A 
ATOM     35  C   UNL     1      -0.080  -2.072  -1.202  0.00  0.00    +0.000 A 
ATOM     36  C   UNL     1       0.341  -2.730  -0.061  0.00  0.00    +0.000 A 
ATOM     37  C   UNL     1       0.443  -2.044   1.134  0.00  0.00    +0.002 A 
ATOM     38  C   UNL     1       0.127  -0.699   1.189  0.00  0.00    -0.054 A 
ENDBRANCH  22  38
ENDBRANCH  21  30
ENDBRANCH   1  21
TORSDOF 5
