REMARK  Name = ZINC39966279
REMARK  9 active torsions:
REMARK  status: ('A' for Active; 'I' for Inactive)
REMARK    1  A    between atoms: C_1  and  C_2
REMARK    2  A    between atoms: C_2  and  C_3
REMARK    3  A    between atoms: C_10  and  N_14
REMARK    4  A    between atoms: C_11  and  C_12
REMARK    5  A    between atoms: C_15  and  C_17
REMARK    6  A    between atoms: C_17  and  S_18
REMARK    7  A    between atoms: S_18  and  C_19
REMARK    8  A    between atoms: C_22  and  C_25
REMARK    9  A    between atoms: N_23  and  C_24
REMARK                            x       y       z     vdW  Elec       q    Type
REMARK                         _______ _______ _______ _____ _____    ______ ____
ROOT
ATOM      1  C   UNL     1       7.922  -1.517  -5.890  0.00  0.00    +0.173 C 
ENDROOT
BRANCH   1   3
ATOM      2  N   UNL     1       5.675  -1.982  -4.968  0.00  0.00    -0.278 N 
ATOM      3  C   UNL     1       6.742  -1.162  -5.023  0.00  0.00    +0.228 C 
ATOM      4  O   UNL     1       6.753  -0.137  -4.373  0.00  0.00    -0.275 OA
ATOM      5  H   UNL     1       5.666  -2.801  -5.488  0.00  0.00    +0.155 HD
BRANCH   2  12
ATOM      6  C   UNL     1       0.531  -0.303  -1.611  0.00  0.00    -0.006 C 
ATOM      7  C   UNL     1       0.528  -1.830  -1.495  0.00  0.00    +0.008 C 
ATOM      8  C   UNL     1       1.080  -2.452  -2.779  0.00  0.00    +0.037 C 
ATOM      9  C   UNL     1       2.422  -1.808  -3.095  0.00  0.00    -0.018 A 
ATOM     10  C   UNL     1       2.784  -0.631  -2.539  0.00  0.00    -0.004 A 
ATOM     11  S   UNL     1       4.392  -0.300  -3.197  0.00  0.00    -0.077 S 
ATOM     12  C   UNL     1       4.588  -1.655  -4.170  0.00  0.00    +0.090 A 
ATOM     13  C   UNL     1       3.415  -2.371  -3.992  0.00  0.00    +0.084 A 
ATOM     14  C   UNL     1       1.982   0.198  -1.582  0.00  0.00    +0.046 C 
BRANCH   6  16
ATOM     15  C   UNL     1      -0.341   1.818  -0.620  0.00  0.00    +0.004 C 
ATOM     16  C   UNL     1      -0.244   0.302  -0.439  0.00  0.00    +0.000 C 
ENDBRANCH   6  16
BRANCH  13  17
ATOM     17  C   UNL     1       3.192  -3.615  -4.666  0.00  0.00    +0.102 C 
ATOM     18  N   UNL     1       3.015  -4.601  -5.200  0.00  0.00    -0.191 NA
ENDBRANCH  13  17
ENDBRANCH   2  12
ENDBRANCH   1   3
BRANCH   1  19
ATOM     19  S   UNL     1       9.187  -0.224  -5.749  0.00  0.00    -0.077 S 
BRANCH  19  20
ATOM     20  C   UNL     1      10.483  -0.779  -6.807  0.00  0.00    +0.192 A 
ATOM     21  N   UNL     1      10.488  -1.880  -7.521  0.00  0.00    -0.122 NA
ATOM     22  N   UNL     1      11.588  -1.976  -8.177  0.00  0.00    -0.128 NA
ATOM     23  C   UNL     1      12.355  -0.942  -7.922  0.00  0.00    +0.165 A 
ATOM     24  N   UNL     1      11.669  -0.139  -7.041  0.00  0.00    -0.305 N 
ATOM     25  C   UNL     1      12.117   1.133  -6.470  0.00  0.00    +0.153 C 
BRANCH  23  26
ATOM     26  C   UNL     1      13.699  -0.685  -8.481  0.00  0.00    +0.030 A 
ATOM     27  C   UNL     1      14.727  -0.328  -7.658  0.00  0.00    +0.057 A 
ATOM     28  S   UNL     1      16.076  -0.149  -8.814  0.00  0.00    -0.101 S 
ATOM     29  C   UNL     1      15.189  -0.563 -10.294  0.00  0.00    -0.006 A 
ATOM     30  C   UNL     1      13.927  -0.813  -9.866  0.00  0.00    -0.026 A 
ATOM     31  C   UNL     1      12.806  -1.193 -10.830  0.00  0.00    +0.036 C 
ATOM     32  C   UNL     1      13.389  -1.866 -12.067  0.00  0.00    +0.005 C 
ATOM     33  C   UNL     1      13.722  -0.830 -13.139  0.00  0.00    +0.001 C 
ATOM     34  C   UNL     1      14.791   0.130 -12.627  0.00  0.00    +0.005 C 
ATOM     35  C   UNL     1      15.723  -0.634 -11.688  0.00  0.00    +0.043 C 
ENDBRANCH  23  26
ENDBRANCH  19  20
ENDBRANCH   1  19
TORSDOF 7
