REMARK  Name = ZINC35745330
REMARK  15 active torsions:
REMARK  status: ('A' for Active; 'I' for Inactive)
REMARK    1  A    between atoms: C_1  and  C_2
REMARK    2  A    between atoms: C_2  and  C_3
REMARK    3  A    between atoms: C_2  and  N_4
REMARK    4  A    between atoms: N_4  and  C_5
REMARK    5  A    between atoms: N_4  and  C_13
REMARK    6  A    between atoms: C_5  and  C_6
REMARK    7  A    between atoms: C_13  and  C_14
REMARK    8  A    between atoms: C_17  and  C_19
REMARK    9  A    between atoms: C_19  and  C_20
REMARK   10  A    between atoms: C_19  and  C_28
REMARK   11  A    between atoms: C_19  and  O_36
REMARK   12  A    between atoms: C_23  and  O_26
REMARK   13  A    between atoms: O_26  and  C_27
REMARK   14  A    between atoms: C_31  and  O_34
REMARK   15  A    between atoms: O_34  and  C_35
REMARK                            x       y       z     vdW  Elec       q    Type
REMARK                         _______ _______ _______ _____ _____    ______ ____
ROOT
ATOM      1  C   UNL     1      -0.793  -2.851   1.777  0.00  0.00    +0.089 A 
ATOM      2  C   UNL     1      -1.427  -3.419   2.819  0.00  0.00    +0.043 A 
ATOM      3  C   UNL     1      -0.440  -3.722   3.784  0.00  0.00    +0.048 A 
ATOM      4  C   UNL     1       0.739  -3.322   3.275  0.00  0.00    +0.146 A 
ATOM      5  O   UNL     1       0.520  -2.800   2.057  0.00  0.00    -0.463 OA
ENDROOT
BRANCH   1   6
ATOM      6  C   UNL     1      -1.443  -2.362   0.509  0.00  0.00    -0.002 C 
BRANCH   6   7
ATOM      7  N   UNL     1      -1.994  -1.018   0.729  0.00  0.00    +0.389 N 
ATOM      8  H   UNL     1      -2.363  -0.955   1.666  0.00  0.00    -0.080 HD
BRANCH   7  10
ATOM      9  C   UNL     1       0.196  -0.291   1.548  0.00  0.00    -0.013 C 
ATOM     10  C   UNL     1      -0.933  -0.018   0.552  0.00  0.00    -0.074 C 
ATOM     11  C   UNL     1      -0.386  -0.102  -0.874  0.00  0.00    -0.013 C 
ENDBRANCH   7  10
BRANCH   7  12
ATOM     12  C   UNL     1      -3.071  -0.766  -0.238  0.00  0.00    -0.042 C 
BRANCH  12  13
ATOM     13  C   UNL     1      -3.715   0.563   0.062  0.00  0.00    -0.061 A 
ATOM     14  C   UNL     1      -4.717   0.646   1.012  0.00  0.00    +0.002 A 
ATOM     15  C   UNL     1      -5.309   1.863   1.289  0.00  0.00    +0.003 A 
ATOM     16  C   UNL     1      -4.901   3.000   0.617  0.00  0.00    +0.038 A 
ATOM     17  C   UNL     1      -3.898   2.918  -0.334  0.00  0.00    +0.124 A 
ATOM     18  C   UNL     1      -3.301   1.699  -0.607  0.00  0.00    +0.040 A 
ATOM     19  F   UNL     1      -3.498   4.029  -0.992  0.00  0.00    -0.205 F 
ENDBRANCH  12  13
ENDBRANCH   7  12
ENDBRANCH   6   7
ENDBRANCH   1   6
BRANCH   4  20
ATOM     20  C   UNL     1       2.079  -3.443   3.954  0.00  0.00    +0.174 C 
BRANCH  20  21
ATOM     21  C   UNL     1       3.157  -3.601   2.914  0.00  0.00    -0.004 A 
ATOM     22  C   UNL     1       3.449  -2.555   2.058  0.00  0.00    +0.011 A 
ATOM     23  C   UNL     1       4.437  -2.697   1.103  0.00  0.00    +0.046 A 
ATOM     24  C   UNL     1       5.136  -3.892   1.003  0.00  0.00    +0.120 A 
ATOM     25  C   UNL     1       4.841  -4.940   1.862  0.00  0.00    +0.046 A 
ATOM     26  C   UNL     1       3.856  -4.790   2.819  0.00  0.00    +0.011 A 
BRANCH  24  27
ATOM     27  O   UNL     1       6.108  -4.034   0.063  0.00  0.00    -0.495 OA
ATOM     28  C   UNL     1       6.786  -5.292   0.017  0.00  0.00    +0.277 C 
ENDBRANCH  24  27
ENDBRANCH  20  21
BRANCH  20  29
ATOM     29  C   UNL     1       2.344  -2.203   4.768  0.00  0.00    -0.004 A 
ATOM     30  C   UNL     1       1.429  -1.165   4.762  0.00  0.00    +0.011 A 
ATOM     31  C   UNL     1       1.670  -0.027   5.507  0.00  0.00    +0.046 A 
ATOM     32  C   UNL     1       2.830   0.075   6.261  0.00  0.00    +0.120 A 
ATOM     33  C   UNL     1       3.746  -0.967   6.265  0.00  0.00    +0.046 A 
ATOM     34  C   UNL     1       3.498  -2.106   5.523  0.00  0.00    +0.011 A 
BRANCH  32  35
ATOM     35  O   UNL     1       3.070   1.194   6.993  0.00  0.00    -0.495 OA
ATOM     36  C   UNL     1       4.284   1.230   7.745  0.00  0.00    +0.277 C 
ENDBRANCH  32  35
ENDBRANCH  20  29
BRANCH  20  37
ATOM     37  O   UNL     1       2.075  -4.585   4.814  0.00  0.00    -0.372 OA
ATOM     38  H   UNL     1       1.405  -4.551   5.510  0.00  0.00    +0.212 HD
ENDBRANCH  20  37
ENDBRANCH   4  20
TORSDOF 11
