REMARK  Name = ZINC29557007
REMARK  7 active torsions:
REMARK  status: ('A' for Active; 'I' for Inactive)
REMARK    1  A    between atoms: C_1  and  N_2
REMARK    2  A    between atoms: N_2  and  C_3
REMARK    3  A    between atoms: N_2  and  S_9
REMARK    4  A    between atoms: S_9  and  C_12
REMARK    5  A    between atoms: C_15  and  C_18
REMARK    6  A    between atoms: N_20  and  C_21
REMARK    7  A    between atoms: C_21  and  C_22
REMARK                            x       y       z     vdW  Elec       q    Type
REMARK                         _______ _______ _______ _____ _____    ______ ____
ROOT
ATOM      1  C   UNL     1      -0.022   1.758   0.012  0.00  0.00    +0.106 A 
ATOM      2  C   UNL     1      -1.231   2.430   0.021  0.00  0.00    +0.029 A 
ATOM      3  C   UNL     1      -1.257   3.809   0.034  0.00  0.00    +0.015 A 
ATOM      4  C   UNL     1      -0.059   4.527   0.026  0.00  0.00    +0.037 A 
ATOM      5  C   UNL     1       1.157   3.842   0.011  0.00  0.00    +0.015 A 
ATOM      6  C   UNL     1       1.169   2.463   0.004  0.00  0.00    +0.029 A 
ENDROOT
BRANCH   4   7
ATOM      7  C   UNL     1      -0.079   6.005   0.033  0.00  0.00    +0.244 C 
ATOM      8  O   UNL     1       0.965   6.627   0.026  0.00  0.00    -0.270 OA
ATOM      9  N   UNL     1      -1.256   6.663   0.048  0.00  0.00    -0.307 N 
ATOM     10  H   UNL     1      -2.201   6.100   0.054  0.00  0.00    +0.149 HD
BRANCH   9  11
ATOM     11  C   UNL     1      -1.276   8.128   0.055  0.00  0.00    +0.140 C 
BRANCH  11  12
ATOM     12  C   UNL     1      -2.703   8.611   0.070  0.00  0.00    -0.026 A 
ATOM     13  C   UNL     1      -3.364   8.833   1.272  0.00  0.00    +0.023 A 
ATOM     14  C   UNL     1      -4.671   9.275   1.252  0.00  0.00    +0.084 A 
ATOM     15  N   UNL     1      -5.296   9.489   0.110  0.00  0.00    -0.350 N 
ATOM     16  C   UNL     1      -4.701   9.289  -1.056  0.00  0.00    +0.099 A 
ATOM     17  C   UNL     1      -3.382   8.848  -1.111  0.00  0.00    +0.047 A 
ATOM     18  N   UNL     1      -5.397   9.528  -2.235  0.00  0.00    -0.317 N 
ATOM     19  C   UNL     1      -5.546   8.280  -3.027  0.00  0.00    +0.106 C 
ATOM     20  C   UNL     1      -6.736   8.596  -3.967  0.00  0.00    +0.020 C 
ATOM     21  C   UNL     1      -7.676   9.429  -3.066  0.00  0.00    +0.020 C 
ATOM     22  C   UNL     1      -6.772   9.993  -1.954  0.00  0.00    +0.106 C 
ATOM     23  H   UNL     1      -6.338   9.842   0.110  0.00  0.00    +0.166 HD
ENDBRANCH  11  12
ENDBRANCH   9  11
ENDBRANCH   4   7
BRANCH   1  24
ATOM     24  S   UNL     1       0.002  -0.004   0.002  0.00  0.00    +0.061 S 
ATOM     25  O   UNL     1      -1.243  -0.424  -0.539  0.00  0.00    -0.153 OA
ATOM     26  O   UNL     1       1.248  -0.390  -0.563  0.00  0.00    -0.153 OA
BRANCH  24  28
ATOM     27  C   UNL     1      -1.235  -0.740   2.292  0.00  0.00    +0.132 C 
ATOM     28  N   UNL     1       0.024  -0.502   1.581  0.00  0.00    -0.177 NA
BRANCH  28  29
ATOM     29  C   UNL     1       1.302  -0.705   2.268  0.00  0.00    +0.080 C 
ATOM     30  C   UNL     1       1.407  -2.160   2.730  0.00  0.00    +0.020 C 
ATOM     31  C   UNL     1       2.742  -2.372   3.447  0.00  0.00    +0.002 C 
ATOM     32  C   UNL     1       2.822  -1.444   4.661  0.00  0.00    +0.000 C 
ATOM     33  C   UNL     1       2.717   0.011   4.199  0.00  0.00    +0.002 C 
ATOM     34  C   UNL     1       1.382   0.223   3.482  0.00  0.00    +0.020 C 
ENDBRANCH  28  29
ENDBRANCH  24  28
ENDBRANCH   1  24
TORSDOF 6
