REMARK  Name = ZINC65743010
REMARK  11 active torsions:
REMARK  status: ('A' for Active; 'I' for Inactive)
REMARK    1  A    between atoms: C_1  and  C_2
REMARK    2  A    between atoms: C_2  and  C_3
REMARK    3  A    between atoms: N_5  and  C_6
REMARK    4  A    between atoms: C_6  and  C_7
REMARK    5  A    between atoms: C_7  and  C_8
REMARK    6  A    between atoms: C_16  and  O_18
REMARK    7  A    between atoms: O_18  and  C_19
REMARK    8  A    between atoms: C_21  and  O_35
REMARK    9  A    between atoms: C_23  and  O_34
REMARK   10  A    between atoms: C_25  and  O_33
REMARK   11  A    between atoms: C_27  and  C_30
REMARK                            x       y       z     vdW  Elec       q    Type
REMARK                         _______ _______ _______ _____ _____    ______ ____
ROOT
ATOM      1  C   UNL     1      -4.429  -4.420   0.021  0.00  0.00    +0.021 C 
ATOM      2  C   UNL     1      -5.108  -4.099   1.369  0.00  0.00    +0.013 C 
ATOM      3  C   UNL     1      -4.822  -5.371   2.195  0.00  0.00    +0.036 C 
ATOM      4  C   UNL     1      -4.659  -6.477   1.176  0.00  0.00    -0.040 A 
ATOM      5  C   UNL     1      -4.432  -5.931  -0.078  0.00  0.00    -0.034 A 
ATOM      6  C   UNL     1      -4.256  -6.760  -1.169  0.00  0.00    +0.005 A 
ATOM      7  C   UNL     1      -4.292  -8.139  -1.034  0.00  0.00    +0.166 A 
ATOM      8  C   UNL     1      -4.524  -8.685   0.231  0.00  0.00    +0.166 A 
ATOM      9  C   UNL     1      -4.705  -7.853   1.327  0.00  0.00    +0.053 A 
ATOM     10  O   UNL     1      -4.073  -8.759  -2.227  0.00  0.00    -0.488 OA
ATOM     11  C   UNL     1      -4.319  -7.828  -3.295  0.00  0.00    +0.234 C 
ATOM     12  C   UNL     1      -4.011  -6.462  -2.636  0.00  0.00    +0.080 C 
ENDROOT
BRANCH   1  13
ATOM     13  C   UNL     1      -2.994  -3.891   0.010  0.00  0.00    +0.027 C 
BRANCH  13  14
ATOM     14  C   UNL     1      -3.014  -2.361   0.018  0.00  0.00    +0.105 C 
BRANCH  14  17
ATOM     15  C   UNL     1      -1.412  -0.526   0.013  0.00  0.00    +0.213 C 
ATOM     16  O   UNL     1      -2.344   0.250   0.026  0.00  0.00    -0.276 OA
ATOM     17  N   UNL     1      -1.640  -1.854   0.008  0.00  0.00    -0.315 N 
ATOM     18  H   UNL     1      -0.894  -2.474  -0.003  0.00  0.00    +0.149 HD
BRANCH  15  20
ATOM     19  C   UNL     1      -0.019   1.526   0.010  0.00  0.00    +0.013 C 
ATOM     20  C   UNL     1       0.002  -0.004   0.002  0.00  0.00    +0.092 C 
ENDBRANCH  15  20
ENDBRANCH  14  17
ENDBRANCH  13  14
ENDBRANCH   1  13
BRANCH   8  21
ATOM     21  O   UNL     1      -4.571 -10.035   0.389  0.00  0.00    -0.457 OA
BRANCH  21  22
ATOM     22  C   UNL     1      -4.812 -10.525   1.710  0.00  0.00    +0.340 C 
ATOM     23  C   UNL     1      -4.585 -12.039   1.742  0.00  0.00    +0.214 C 
ATOM     24  C   UNL     1      -4.903 -12.566   3.145  0.00  0.00    +0.180 C 
ATOM     25  C   UNL     1      -6.342 -12.185   3.507  0.00  0.00    +0.186 C 
ATOM     26  C   UNL     1      -6.500 -10.666   3.407  0.00  0.00    +0.266 C 
ATOM     27  O   UNL     1      -6.160 -10.238   2.087  0.00  0.00    -0.322 OA
BRANCH  26  28
ATOM     28  C   UNL     1      -7.928 -10.289   3.705  0.00  0.00    +0.387 C 
ATOM     29  O   UNL     1      -8.391 -10.483   4.816  0.00  0.00    -0.243 OA
ATOM     30  O   UNL     1      -8.621  -9.790   2.835  0.00  0.00    -0.243 OA
ENDBRANCH  26  28
BRANCH  25  31
ATOM     31  O   UNL     1      -7.246 -12.821   2.602  0.00  0.00    -0.386 OA
ATOM     32  H   UNL     1      -8.178 -12.624   2.773  0.00  0.00    +0.210 HD
ENDBRANCH  25  31
BRANCH  24  33
ATOM     33  O   UNL     1      -4.763 -13.988   3.164  0.00  0.00    -0.386 OA
ATOM     34  H   UNL     1      -4.950 -14.389   4.024  0.00  0.00    +0.210 HD
ENDBRANCH  24  33
BRANCH  23  35
ATOM     35  O   UNL     1      -5.442 -12.670   0.788  0.00  0.00    -0.383 OA
ATOM     36  H   UNL     1      -5.298 -12.380  -0.123  0.00  0.00    +0.210 HD
ENDBRANCH  23  35
ENDBRANCH  21  22
ENDBRANCH   8  21
TORSDOF 10
