REMARK  Name = ZINC38733211
REMARK  6 active torsions:
REMARK  status: ('A' for Active; 'I' for Inactive)
REMARK    1  A    between atoms: C_1  and  C_2
REMARK    2  A    between atoms: C_9  and  C_10
REMARK    3  A    between atoms: C_9  and  C_11
REMARK    4  A    between atoms: C_13  and  N_15
REMARK    5  A    between atoms: C_16  and  C_18
REMARK    6  A    between atoms: C_24  and  C_26
REMARK                            x       y       z     vdW  Elec       q    Type
REMARK                         _______ _______ _______ _____ _____    ______ ____
ROOT
ATOM      1  C   UNL     1       7.384  -0.855   1.274  0.00  0.00    +0.091 C 
ATOM      2  C   UNL     1       7.702  -2.166   0.552  0.00  0.00    +0.040 C 
ATOM      3  C   UNL     1       9.185  -2.308   0.368  0.00  0.00    -0.030 C 
ATOM      4  C   UNL     1      10.066  -1.625   1.026  0.00  0.00    -0.030 C 
ATOM      5  C   UNL     1       9.728  -0.590   2.058  0.00  0.00    +0.040 C 
ATOM      6  C   UNL     1       8.277  -0.751   2.517  0.00  0.00    +0.091 C 
ENDROOT
BRANCH   6   7
ATOM      7  C   UNL     1       7.866   0.444   3.338  0.00  0.00    +0.220 C 
ATOM      8  O   UNL     1       7.340   1.396   2.802  0.00  0.00    -0.275 OA
ATOM      9  N   UNL     1       8.082   0.454   4.668  0.00  0.00    -0.298 N 
ATOM     10  C   UNL     1       8.822  -0.639   5.314  0.00  0.00    +0.126 C 
ATOM     11  C   UNL     1      10.000  -0.041   6.093  0.00  0.00    +0.125 C 
ATOM     12  N   UNL     1       9.502   1.064   6.923  0.00  0.00    -0.314 N 
ATOM     13  C   UNL     1       8.762   2.158   6.277  0.00  0.00    +0.125 C 
ATOM     14  C   UNL     1       7.589   1.562   5.497  0.00  0.00    +0.126 C 
ATOM     15  C   UNL     1       9.725   1.075   8.295  0.00  0.00    +0.099 A 
ATOM     16  C   UNL     1      10.303  -0.033   8.908  0.00  0.00    +0.042 A 
ATOM     17  C   UNL     1      10.519  -0.008  10.274  0.00  0.00    +0.005 A 
ATOM     18  C   UNL     1      10.149   1.127  10.984  0.00  0.00    +0.018 A 
ATOM     19  C   UNL     1       9.581   2.189  10.311  0.00  0.00    +0.084 A 
ATOM     20  N   UNL     1       9.391   2.141   9.006  0.00  0.00    -0.350 N 
ATOM     21  H   UNL     1       8.993   2.903   8.557  0.00  0.00    +0.166 HD
ENDBRANCH   6   7
BRANCH   1  23
ATOM     22  N   UNL     1       4.966  -0.935   0.757  0.00  0.00    -0.312 N 
ATOM     23  C   UNL     1       5.936  -0.844   1.690  0.00  0.00    +0.217 C 
ATOM     24  O   UNL     1       5.642  -0.754   2.863  0.00  0.00    -0.275 OA
ATOM     25  H   UNL     1       5.201  -1.008  -0.181  0.00  0.00    +0.149 HD
BRANCH  22  35
ATOM     26  C   UNL     1       2.518   1.097   0.083  0.00  0.00    +0.009 C 
ATOM     27  C   UNL     1       2.707  -0.421  -0.002  0.00  0.00    +0.010 C 
ATOM     28  C   UNL     1       1.358  -1.132  -0.096  0.00  0.00    -0.000 C 
ATOM     29  C   UNL     1       1.592  -2.641  -0.355  0.00  0.00    +0.008 C 
ATOM     30  C   UNL     1       1.749  -2.722   1.178  0.00  0.00    -0.003 C 
ATOM     31  C   UNL     1       0.738  -1.568   1.233  0.00  0.00    -0.029 C 
ATOM     32  C   UNL     1      -0.723  -2.041   1.095  0.00  0.00    +0.011 C 
ATOM     33  C   UNL     1       0.892  -0.619   2.417  0.00  0.00    +0.011 C 
ATOM     34  C   UNL     1       3.158  -2.327   1.616  0.00  0.00    +0.026 C 
ATOM     35  C   UNL     1       3.547  -0.925   1.164  0.00  0.00    +0.076 C 
ENDBRANCH  22  35
ENDBRANCH   1  23
TORSDOF 3
