REMARK  Name = ZINC25512379
REMARK  5 active torsions:
REMARK  status: ('A' for Active; 'I' for Inactive)
REMARK    1  A    between atoms: C_1  and  C_2
REMARK    2  A    between atoms: C_3  and  C_20
REMARK    3  A    between atoms: N_7  and  C_8
REMARK    4  A    between atoms: C_8  and  C_10
REMARK    5  A    between atoms: C_20  and  C_21
REMARK                            x       y       z     vdW  Elec       q    Type
REMARK                         _______ _______ _______ _____ _____    ______ ____
ROOT
ATOM      1  C   UNL     1      -1.321   2.104   0.020  0.00  0.00    +0.064 C 
ATOM      2  C   UNL     1      -0.016   1.351   0.009  0.00  0.00    +0.025 A 
ATOM      3  C   UNL     1       0.002  -0.004   0.002  0.00  0.00    +0.016 A 
ATOM      4  S   UNL     1       1.762  -0.312  -0.016  0.00  0.00    -0.057 S 
ATOM      5  C   UNL     1       2.281   1.345  -0.013  0.00  0.00    +0.164 A 
ATOM      6  N   UNL     1       1.134   1.996   0.002  0.00  0.00    -0.339 N 
ATOM      7  N   UNL     1       3.574   1.854  -0.022  0.00  0.00    -0.152 NA
ATOM      8  H   UNL     1       1.149   3.095   0.008  0.00  0.00    +0.167 HD
ENDROOT
BRANCH   7   9
ATOM      9  C   UNL     1       3.772   3.187  -0.017  0.00  0.00    +0.272 C 
ATOM     10  O   UNL     1       2.820   3.944  -0.004  0.00  0.00    -0.268 OA
BRANCH   9  11
ATOM     11  C   UNL     1       5.143   3.728  -0.027  0.00  0.00    +0.065 A 
ATOM     12  C   UNL     1       6.235   2.871  -0.042  0.00  0.00    +0.015 A 
ATOM     13  C   UNL     1       7.530   3.372  -0.052  0.00  0.00    +0.001 A 
ATOM     14  C   UNL     1       7.765   4.715  -0.047  0.00  0.00    +0.010 A 
ATOM     15  C   UNL     1       6.689   5.618  -0.032  0.00  0.00    +0.001 A 
ATOM     16  C   UNL     1       5.361   5.129  -0.028  0.00  0.00    +0.083 A 
ATOM     17  N   UNL     1       4.337   5.984  -0.019  0.00  0.00    -0.254 NA
ATOM     18  C   UNL     1       4.531   7.282  -0.020  0.00  0.00    +0.111 A 
ATOM     19  C   UNL     1       5.811   7.830  -0.030  0.00  0.00    +0.020 A 
ATOM     20  C   UNL     1       6.904   7.009  -0.026  0.00  0.00    +0.011 A 
ENDBRANCH   9  11
ENDBRANCH   7   9
BRANCH   3  21
ATOM     21  C   UNL     1      -1.145  -0.981   0.007  0.00  0.00    +0.079 C 
BRANCH  21  22
ATOM     22  C   UNL     1      -1.540  -1.299  -1.412  0.00  0.00    -0.039 A 
ATOM     23  C   UNL     1      -0.944  -2.357  -2.073  0.00  0.00    +0.008 A 
ATOM     24  C   UNL     1      -1.304  -2.653  -3.375  0.00  0.00    +0.050 A 
ATOM     25  C   UNL     1      -2.263  -1.889  -4.020  0.00  0.00    +0.166 A 
ATOM     26  C   UNL     1      -2.863  -0.824  -3.354  0.00  0.00    +0.166 A 
ATOM     27  C   UNL     1      -2.502  -0.537  -2.048  0.00  0.00    +0.053 A 
ATOM     28  O   UNL     1      -3.764  -0.236  -4.194  0.00  0.00    -0.453 OA
ATOM     29  C   UNL     1      -4.004  -1.200  -5.236  0.00  0.00    +0.466 C 
ATOM     30  O   UNL     1      -2.787  -1.969  -5.278  0.00  0.00    -0.453 OA
ENDBRANCH  21  22
ENDBRANCH   3  21
TORSDOF 4
