REMARK  Name = ZINC63714882
REMARK  5 active torsions:
REMARK  status: ('A' for Active; 'I' for Inactive)
REMARK    1  A    between atoms: C_1  and  C_2
REMARK    2  A    between atoms: C_5  and  C_8
REMARK    3  A    between atoms: C_8  and  C_9
REMARK    4  A    between atoms: N_11  and  C_12
REMARK    5  A    between atoms: C_15  and  C_22
REMARK                            x       y       z     vdW  Elec       q    Type
REMARK                         _______ _______ _______ _____ _____    ______ ____
ROOT
ATOM      1  C   UNL     1       1.486  -4.759  -0.036  0.00  0.00    +0.222 C 
ATOM      2  O   UNL     1       2.398  -3.959  -0.030  0.00  0.00    -0.275 OA
ATOM      3  N   UNL     1       1.750  -6.081  -0.041  0.00  0.00    -0.284 N 
ATOM      4  H   UNL     1       1.025  -6.721   0.036  0.00  0.00    +0.155 HD
ENDROOT
BRANCH   3   5
ATOM      5  C   UNL     1       3.070  -6.531  -0.156  0.00  0.00    +0.059 A 
ATOM      6  C   UNL     1       4.026  -5.735  -0.760  0.00  0.00    +0.026 A 
ATOM      7  C   UNL     1       5.338  -6.175  -0.878  0.00  0.00    +0.006 A 
ATOM      8  C   UNL     1       5.709  -7.398  -0.402  0.00  0.00    -0.040 A 
ATOM      9  C   UNL     1       4.761  -8.226   0.215  0.00  0.00    +0.024 A 
ATOM     10  C   UNL     1       3.432  -7.785   0.344  0.00  0.00    +0.087 A 
ATOM     11  N   UNL     1       2.746  -8.786   0.983  0.00  0.00    -0.275 N 
ATOM     12  H   UNL     1       1.803  -8.775   1.211  0.00  0.00    +0.189 HD
ATOM     13  N   UNL     1       3.645  -9.827   1.250  0.00  0.00    -0.181 NA
ATOM     14  C   UNL     1       4.825  -9.516   0.797  0.00  0.00    +0.143 A 
ATOM     15  C   UNL     1       7.137  -7.859  -0.540  0.00  0.00    +0.044 C 
ENDBRANCH   3   5
BRANCH   1  16
ATOM     16  C   UNL     1       0.059  -4.276  -0.037  0.00  0.00    +0.131 C 
BRANCH  16  21
ATOM     17  C   UNL     1      -0.020   1.502  -0.012  0.00  0.00    +0.044 C 
ATOM     18  C   UNL     1       0.001  -0.004  -0.019  0.00  0.00    -0.050 A 
ATOM     19  C   UNL     1       0.014  -0.690  -1.219  0.00  0.00    +0.003 A 
ATOM     20  C   UNL     1       0.033  -2.072  -1.225  0.00  0.00    +0.004 A 
ATOM     21  C   UNL     1       0.039  -2.769  -0.031  0.00  0.00    -0.039 A 
ATOM     22  C   UNL     1       0.027  -2.083   1.169  0.00  0.00    +0.004 A 
ATOM     23  C   UNL     1       0.012  -0.701   1.175  0.00  0.00    +0.003 A 
ENDBRANCH  16  21
ENDBRANCH   1  16
TORSDOF 3
