REMARK  Name = ZINC36207815
REMARK  10 active torsions:
REMARK  status: ('A' for Active; 'I' for Inactive)
REMARK    1  A    between atoms: C_5  and  C_7
REMARK    2  A    between atoms: C_16  and  C_18
REMARK    3  A    between atoms: C_18  and  N_19
REMARK    4  A    between atoms: N_19  and  C_20
REMARK    5  A    between atoms: N_19  and  C_33
REMARK    6  A    between atoms: C_20  and  C_21
REMARK    7  A    between atoms: C_21  and  C_23
REMARK    8  A    between atoms: C_21  and  O_32
REMARK    9  A    between atoms: C_23  and  O_24
REMARK   10  A    between atoms: O_24  and  C_25
REMARK                            x       y       z     vdW  Elec       q    Type
REMARK                         _______ _______ _______ _____ _____    ______ ____
ROOT
ATOM      1  C   UNL     1       3.296  -5.501   3.837  0.00  0.00    -0.003 C 
ENDROOT
BRANCH   1  11
ATOM      2  C   UNL     1       8.931  -4.657   3.988  0.00  0.00    +0.006 A 
ATOM      3  C   UNL     1       9.630  -5.753   3.607  0.00  0.00    +0.056 A 
ATOM      4  S   UNL     1       8.358  -6.944   3.232  0.00  0.00    -0.076 S 
ATOM      5  C   UNL     1       6.932  -5.953   3.593  0.00  0.00    +0.116 A 
ATOM      6  C   UNL     1       7.475  -4.724   4.001  0.00  0.00    +0.080 A 
ATOM      7  C   UNL     1       6.525  -3.716   4.364  0.00  0.00    +0.260 A 
ATOM      8  O   UNL     1       6.900  -2.615   4.727  0.00  0.00    -0.267 OA
ATOM      9  N   UNL     1       5.212  -4.003   4.298  0.00  0.00    -0.312 N 
ATOM     10  H   UNL     1       4.564  -3.325   4.543  0.00  0.00    +0.170 HD
ATOM     11  C   UNL     1       4.777  -5.225   3.895  0.00  0.00    +0.094 A 
ATOM     12  N   UNL     1       5.619  -6.161   3.548  0.00  0.00    -0.229 NA
BRANCH   2  17
ATOM     13  C   UNL     1      11.043  -1.550   3.841  0.00  0.00    +0.001 A 
ATOM     14  C   UNL     1      10.949  -1.096   5.144  0.00  0.00    +0.003 A 
ATOM     15  C   UNL     1      10.201  -1.795   6.074  0.00  0.00    +0.039 A 
ATOM     16  C   UNL     1       9.543  -2.953   5.705  0.00  0.00    +0.131 A 
ATOM     17  C   UNL     1       9.634  -3.416   4.391  0.00  0.00    +0.019 A 
ATOM     18  C   UNL     1      10.390  -2.705   3.460  0.00  0.00    +0.011 A 
ATOM     19  F   UNL     1       8.813  -3.636   6.614  0.00  0.00    -0.205 F 
ENDBRANCH   2  17
ENDBRANCH   1  11
BRANCH   1  20
ATOM     20  N   UNL     1       3.075  -6.915   3.507  0.00  0.00    +0.388 N 
ATOM     21  H   UNL     1       3.582  -7.147   2.666  0.00  0.00    -0.081 HD
BRANCH  20  22
ATOM     22  C   UNL     1       1.640  -7.149   3.293  0.00  0.00    -0.068 C 
ATOM     23  C   UNL     1       1.214  -7.746   1.950  0.00  0.00    -0.017 C 
ATOM     24  C   UNL     1       0.928  -6.275   2.260  0.00  0.00    -0.017 C 
ENDBRANCH  20  22
BRANCH  20  25
ATOM     25  C   UNL     1       3.549  -7.757   4.613  0.00  0.00    -0.043 C 
BRANCH  25  26
ATOM     26  C   UNL     1       3.434  -9.231   4.219  0.00  0.00    +0.135 C 
BRANCH  26  27
ATOM     27  O   UNL     1       2.068  -9.542   3.934  0.00  0.00    -0.390 OA
ATOM     28  H   UNL     1       1.469  -9.399   4.679  0.00  0.00    +0.210 HD
ENDBRANCH  26  27
BRANCH  26  29
ATOM     29  C   UNL     1       3.928 -10.107   5.371  0.00  0.00    +0.258 C 
BRANCH  29  30
ATOM     30  O   UNL     1       3.930 -11.476   4.961  0.00  0.00    -0.489 OA
BRANCH  30  31
ATOM     31  C   UNL     1       4.345 -12.393   5.875  0.00  0.00    +0.121 A 
ATOM     32  C   UNL     1       4.736 -11.984   7.141  0.00  0.00    +0.047 A 
ATOM     33  C   UNL     1       5.158 -12.918   8.068  0.00  0.00    +0.023 A 
ATOM     34  C   UNL     1       5.190 -14.260   7.734  0.00  0.00    +0.041 A 
ATOM     35  C   UNL     1       4.800 -14.670   6.471  0.00  0.00    +0.023 A 
ATOM     36  C   UNL     1       4.372 -13.740   5.544  0.00  0.00    +0.047 A 
ATOM     37 CL   UNL     1       5.721 -15.431   8.900  0.00  0.00    -0.084 Cl
ENDBRANCH  30  31
ENDBRANCH  29  30
ENDBRANCH  26  29
ENDBRANCH  25  26
ENDBRANCH  20  25
ENDBRANCH   1  20
TORSDOF 10
