REMARK  Name = ZINC20287102
REMARK  10 active torsions:
REMARK  status: ('A' for Active; 'I' for Inactive)
REMARK    1  A    between atoms: C_1  and  C_2
REMARK    2  A    between atoms: C_2  and  C_3
REMARK    3  A    between atoms: C_3  and  C_4
REMARK    4  A    between atoms: N_6  and  C_30
REMARK    5  A    between atoms: C_10  and  C_11
REMARK    6  A    between atoms: C_10  and  N_12
REMARK    7  A    between atoms: N_12  and  C_13
REMARK    8  A    between atoms: C_16  and  S_19
REMARK    9  A    between atoms: S_19  and  N_22
REMARK   10  A    between atoms: N_22  and  C_23
REMARK                            x       y       z     vdW  Elec       q    Type
REMARK                         _______ _______ _______ _____ _____    ______ ____
ROOT
ATOM      1  N   UNL     1      -4.314  -1.306   0.063  0.00  0.00    -0.317 N 
ATOM      2  H   UNL     1      -4.383  -0.857  -0.794  0.00  0.00    +0.152 HD
ENDROOT
BRANCH   1   9
ATOM      3  C   UNL     1      -1.417  -0.879  -0.335  0.00  0.00    +0.074 C 
ATOM      4  N   UNL     1      -0.144  -1.127  -0.402  0.00  0.00    -0.176 NA
ATOM      5  N   UNL     1       0.128  -2.464  -0.113  0.00  0.00    -0.156 N 
ATOM      6  C   UNL     1      -1.018  -3.122   0.154  0.00  0.00    +0.274 C 
ATOM      7  O   UNL     1      -1.136  -4.301   0.444  0.00  0.00    -0.268 OA
ATOM      8  C   UNL     1      -2.094  -2.131   0.032  0.00  0.00    +0.078 C 
ATOM      9  C   UNL     1      -3.451  -2.333   0.219  0.00  0.00    +0.019 C 
ATOM     10  C   UNL     1      -3.966  -3.698   0.596  0.00  0.00    +0.061 C 
BRANCH   5  11
ATOM     11  C   UNL     1       1.405  -3.038  -0.104  0.00  0.00    +0.060 A 
ATOM     12  C   UNL     1       1.559  -4.387   0.192  0.00  0.00    +0.025 A 
ATOM     13  C   UNL     1       2.819  -4.951   0.201  0.00  0.00    +0.002 A 
ATOM     14  C   UNL     1       3.928  -4.175  -0.085  0.00  0.00    +0.000 A 
ATOM     15  C   UNL     1       3.778  -2.832  -0.381  0.00  0.00    +0.002 A 
ATOM     16  C   UNL     1       2.519  -2.263  -0.396  0.00  0.00    +0.025 A 
ENDBRANCH   5  11
BRANCH   3  17
ATOM     17  C   UNL     1      -2.079   0.452  -0.583  0.00  0.00    +0.057 C 
BRANCH  17  19
ATOM     18  C   UNL     1      -1.687   2.844  -1.192  0.00  0.00    +0.004 C 
ATOM     19  C   UNL     1      -1.015   1.492  -0.940  0.00  0.00    +0.003 C 
ENDBRANCH  17  19
ENDBRANCH   3  17
ENDBRANCH   1   9
BRANCH   1  20
ATOM     20  C   UNL     1      -5.106  -0.890   1.136  0.00  0.00    +0.031 A 
ATOM     21  C   UNL     1      -4.895  -1.419   2.403  0.00  0.00    +0.025 A 
ATOM     22  C   UNL     1      -5.680  -1.005   3.462  0.00  0.00    +0.031 A 
ATOM     23  C   UNL     1      -6.675  -0.066   3.261  0.00  0.00    +0.111 A 
ATOM     24  C   UNL     1      -6.888   0.463   2.001  0.00  0.00    +0.031 A 
ATOM     25  C   UNL     1      -6.103   0.058   0.939  0.00  0.00    +0.025 A 
BRANCH  23  26
ATOM     26  S   UNL     1      -7.674   0.459   4.614  0.00  0.00    +0.093 S 
ATOM     27  O   UNL     1      -8.891   0.939   4.059  0.00  0.00    -0.148 OA
ATOM     28  O   UNL     1      -7.636  -0.587   5.576  0.00  0.00    -0.148 OA
BRANCH  26  29
ATOM     29  N   UNL     1      -6.921   1.763   5.303  0.00  0.00    -0.076 NA
BRANCH  29  30
ATOM     30  C   UNL     1      -7.490   2.392   6.405  0.00  0.00    +0.185 A 
ATOM     31  C   UNL     1      -6.861   3.495   6.984  0.00  0.00    +0.052 A 
ATOM     32  C   UNL     1      -7.468   4.086   8.080  0.00  0.00    +0.045 A 
ATOM     33  C   UNL     1      -8.664   3.545   8.535  0.00  0.00    +0.152 A 
ATOM     34  N   UNL     1      -9.188   2.499   7.926  0.00  0.00    -0.136 NA
ATOM     35  N   UNL     1      -8.633   1.951   6.907  0.00  0.00    -0.129 NA
ATOM     36 CL   UNL     1      -9.468   4.245   9.905  0.00  0.00    -0.060 Cl
ENDBRANCH  29  30
ENDBRANCH  26  29
ENDBRANCH  23  26
ENDBRANCH   1  20
TORSDOF 8
