REMARK  Name = ZINC02337397
REMARK  12 active torsions:
REMARK  status: ('A' for Active; 'I' for Inactive)
REMARK    1  A    between atoms: C_1  and  C_2
REMARK    2  A    between atoms: C_2  and  C_33
REMARK    3  A    between atoms: C_8  and  C_19
REMARK    4  A    between atoms: C_16  and  C_17
REMARK    5  A    between atoms: C_16  and  C_18
REMARK    6  A    between atoms: C_19  and  O_20
REMARK    7  A    between atoms: O_20  and  N_21
REMARK    8  A    between atoms: C_22  and  C_23
REMARK    9  A    between atoms: C_26  and  O_31
REMARK   10  A    between atoms: C_27  and  O_29
REMARK   11  A    between atoms: O_29  and  C_30
REMARK   12  A    between atoms: O_31  and  C_32
REMARK                            x       y       z     vdW  Elec       q    Type
REMARK                         _______ _______ _______ _____ _____    ______ ____
ROOT
ATOM      1  C   UNL     1      -5.192   7.378   6.440  0.00  0.00    -0.010 C 
ATOM      2  C   UNL     1      -6.226   7.923   5.359  0.00  0.00    -0.069 C 
ATOM      3  C   UNL     1      -5.994   7.130   4.051  0.00  0.00    +0.024 C 
ATOM      4  C   UNL     1      -7.074   7.447   3.002  0.00  0.00    -0.027 A 
ATOM      5  C   UNL     1      -6.885   7.380   1.568  0.00  0.00    +0.055 A 
ATOM      6  C   UNL     1      -5.733   6.935   0.792  0.00  0.00    +0.168 A 
ATOM      7  N   UNL     1      -4.506   6.482   1.219  0.00  0.00    -0.207 NA
ATOM      8  C   UNL     1      -3.852   6.184   0.054  0.00  0.00    +0.192 A 
ATOM      9  N   UNL     1      -4.592   6.389  -0.988  0.00  0.00    -0.145 NA
ATOM     10  N   UNL     1      -5.816   6.905  -0.552  0.00  0.00    -0.201 N 
ATOM     11  C   UNL     1      -6.876   7.310  -1.118  0.00  0.00    +0.226 A 
ATOM     12  N   UNL     1      -7.913   7.796  -0.544  0.00  0.00    -0.228 NA
ATOM     13  C   UNL     1      -7.963   7.803   0.837  0.00  0.00    +0.114 A 
ATOM     14  S   UNL     1      -9.159   8.324   1.983  0.00  0.00    -0.075 S 
ATOM     15  C   UNL     1      -8.203   7.961   3.491  0.00  0.00    -0.016 A 
ATOM     16  C   UNL     1      -8.641   8.149   4.894  0.00  0.00    -0.041 C 
ATOM     17  C   UNL     1      -9.821   7.115   5.169  0.00  0.00    -0.005 C 
ATOM     18  C   UNL     1      -9.122   9.520   5.166  0.00  0.00    -0.005 C 
ATOM     19  C   UNL     1      -5.820   9.418   5.051  0.00  0.00    -0.010 C 
ATOM     20  N   UNL     1      -7.590   7.756   5.852  0.00  0.00    +0.389 N 
ATOM     21  H   UNL     1      -7.697   8.329   6.698  0.00  0.00    -0.084 HD
ATOM     22  H   UNL     1      -7.726   6.767   6.089  0.00  0.00    -0.084 HD
ENDROOT
BRANCH   8  23
ATOM     23  C   UNL     1      -2.422   5.524   0.043  0.00  0.00    +0.340 C 
BRANCH  23  24
ATOM     24  O   UNL     1      -2.554   4.101   0.036  0.00  0.00    -0.386 OA
BRANCH  24  25
ATOM     25  N   UNL     1      -1.319   3.408   0.027  0.00  0.00    -0.092 NA
ATOM     26  C   UNL     1      -1.303   2.115   0.020  0.00  0.00    +0.161 C 
BRANCH  26  27
ATOM     27  C   UNL     1      -0.017   1.393   0.010  0.00  0.00    -0.000 A 
ATOM     28  C   UNL     1       1.185   2.104   0.002  0.00  0.00    +0.013 A 
ATOM     29  C   UNL     1       2.386   1.428  -0.013  0.00  0.00    +0.050 A 
ATOM     30  C   UNL     1       2.405   0.041  -0.021  0.00  0.00    +0.162 A 
ATOM     31  C   UNL     1       1.210  -0.676  -0.013  0.00  0.00    +0.162 A 
ATOM     32  C   UNL     1       0.002  -0.004   0.002  0.00  0.00    +0.059 A 
BRANCH  31  33
ATOM     33  O   UNL     1       1.232  -2.035  -0.020  0.00  0.00    -0.491 OA
ATOM     34  C   UNL     1      -0.030  -2.705  -0.011  0.00  0.00    +0.277 C 
ENDBRANCH  31  33
BRANCH  30  35
ATOM     35  O   UNL     1       3.592  -0.621  -0.036  0.00  0.00    -0.491 OA
ATOM     36  C   UNL     1       4.779   0.175  -0.043  0.00  0.00    +0.277 C 
ENDBRANCH  30  35
ENDBRANCH  26  27
ENDBRANCH  24  25
ENDBRANCH  23  24
ENDBRANCH   8  23
TORSDOF 6
