REMARK  Name = ZINC09135457
REMARK  10 active torsions:
REMARK  status: ('A' for Active; 'I' for Inactive)
REMARK    1  A    between atoms: C_1  and  C_2
REMARK    2  A    between atoms: C_7  and  N_8
REMARK    3  A    between atoms: C_9  and  C_11
REMARK    4  A    between atoms: N_13  and  C_14
REMARK    5  A    between atoms: C_14  and  C_15
REMARK    6  A    between atoms: C_15  and  C_17
REMARK    7  A    between atoms: C_15  and  N_59
REMARK    8  A    between atoms: N_26  and  C_27
REMARK    9  A    between atoms: C_28  and  N_59
REMARK   10  A    between atoms: C_29  and  N_59
REMARK                            x       y       z     vdW  Elec       q    Type
REMARK                         _______ _______ _______ _____ _____    ______ ____
ROOT
ATOM      1  C   UNL     1       3.924  -1.829   3.974  0.00  0.00    +0.094 C 
ENDROOT
BRANCH   1   4
ATOM      2  C   UNL     1       4.928  -2.489   6.093  0.00  0.00    +0.299 C 
ATOM      3  O   UNL     1       3.943  -2.063   6.659  0.00  0.00    -0.265 OA
ATOM      4  N   UNL     1       5.017  -2.418   4.750  0.00  0.00    -0.309 N 
ATOM      5  H   UNL     1       5.805  -2.758   4.298  0.00  0.00    +0.149 HD
BRANCH   2   7
ATOM      6  N   UNL     1       5.954  -3.160   8.228  0.00  0.00    -0.277 N 
ATOM      7  C   UNL     1       6.043  -3.090   6.885  0.00  0.00    +0.303 C 
ATOM      8  O   UNL     1       7.029  -3.515   6.319  0.00  0.00    -0.265 OA
ATOM      9  H   UNL     1       5.205  -2.748   8.687  0.00  0.00    +0.155 HD
BRANCH   6  16
ATOM     10  C   UNL     1       6.073  -2.714  11.036  0.00  0.00    +0.045 C 
ATOM     11  C   UNL     1       7.036  -3.637  10.333  0.00  0.00    -0.029 A 
ATOM     12  C   UNL     1       8.013  -4.296  11.054  0.00  0.00    +0.006 A 
ATOM     13  C   UNL     1       8.897  -5.142  10.411  0.00  0.00    +0.020 A 
ATOM     14  C   UNL     1       8.806  -5.332   9.042  0.00  0.00    +0.043 A 
ATOM     15  C   UNL     1       7.827  -4.680   8.316  0.00  0.00    +0.043 A 
ATOM     16  C   UNL     1       6.941  -3.825   8.960  0.00  0.00    +0.038 A 
ATOM     17 CL   UNL     1       9.917  -6.397   8.239  0.00  0.00    -0.083 Cl
ENDBRANCH   6  16
ENDBRANCH   2   7
ENDBRANCH   1   4
BRANCH   1  18
ATOM     18  C   UNL     1       4.275  -1.872   2.485  0.00  0.00    -0.021 C 
BRANCH  18  19
ATOM     19  C   UNL     1       3.101  -1.379   1.678  0.00  0.00    -0.059 A 
ATOM     20  C   UNL     1       1.826  -1.834   1.961  0.00  0.00    +0.004 A 
ATOM     21  C   UNL     1       0.755  -1.384   1.220  0.00  0.00    +0.023 A 
ATOM     22  C   UNL     1       0.947  -0.470   0.183  0.00  0.00    +0.033 A 
ATOM     23  C   UNL     1       2.224  -0.013  -0.092  0.00  0.00    -0.026 A 
ATOM     24  C   UNL     1       3.297  -0.473   0.655  0.00  0.00    +0.007 A 
ATOM     25  C   UNL     1       2.498   0.987  -1.188  0.00  0.00    +0.038 C 
ATOM     26  C   UNL     1       1.288   1.071  -2.121  0.00  0.00    +0.024 C 
ATOM     27  C   UNL     1       0.030   1.200  -1.253  0.00  0.00    +0.105 C 
ATOM     28  N   UNL     1      -0.176  -0.059  -0.534  0.00  0.00    -0.333 N 
ATOM     29  C   UNL     1      -1.357   0.018   0.336  0.00  0.00    +0.129 C 
ENDBRANCH  18  19
BRANCH  18  32
ATOM     30  C   UNL     1       3.388  -4.096   2.122  0.00  0.00    -0.096 C 
ATOM     31  C   UNL     1       5.235  -3.294   0.777  0.00  0.00    -0.096 C 
ATOM     32  N   UNL     1       4.609  -3.263   2.116  0.00  0.00    +0.382 N 
ATOM     33  H   UNL     1       5.273  -3.640   2.802  0.00  0.00    -0.082 HD
ENDBRANCH  18  32
ENDBRANCH   1  18
TORSDOF 6
