REMARK  Name = ZINC19330073
REMARK  9 active torsions:
REMARK  status: ('A' for Active; 'I' for Inactive)
REMARK    1  A    between atoms: C_1  and  O_2
REMARK    2  A    between atoms: O_2  and  C_3
REMARK    3  A    between atoms: C_6  and  C_9
REMARK    4  A    between atoms: C_9  and  N_10
REMARK    5  A    between atoms: N_14  and  C_23
REMARK    6  A    between atoms: C_15  and  C_16
REMARK    7  A    between atoms: C_23  and  C_24
REMARK    8  A    between atoms: C_27  and  O_30
REMARK    9  A    between atoms: O_30  and  C_31
REMARK                            x       y       z     vdW  Elec       q    Type
REMARK                         _______ _______ _______ _____ _____    ______ ____
ROOT
ATOM      1  N   UNL     1      -0.718   1.931  -1.021  0.00  0.00    +0.395 N 
ATOM      2  C   UNL     1      -0.840   3.395  -0.985  0.00  0.00    -0.074 C 
ATOM      3  C   UNL     1       0.548   4.021  -1.147  0.00  0.00    -0.003 C 
ATOM      4  C   UNL     1       1.471   3.485  -0.049  0.00  0.00    +0.081 C 
ATOM      5  N   UNL     1       1.506   2.017  -0.121  0.00  0.00    -0.307 NA
ATOM      6  C   UNL     1       0.162   1.450   0.051  0.00  0.00    +0.034 C 
ATOM      7  H   UNL     1      -0.261   1.653  -1.983  0.00  0.00    -0.079 HD
ENDROOT
BRANCH   6   8
ATOM      8  C   UNL     1       0.242  -0.054  -0.003  0.00  0.00    -0.047 A 
ATOM      9  C   UNL     1       0.631  -0.684  -1.170  0.00  0.00    +0.004 A 
ATOM     10  C   UNL     1       0.709  -2.063  -1.219  0.00  0.00    +0.015 A 
ATOM     11  C   UNL     1       0.388  -2.814  -0.102  0.00  0.00    +0.018 A 
ATOM     12  C   UNL     1      -0.005  -2.183   1.065  0.00  0.00    +0.015 A 
ATOM     13  C   UNL     1      -0.078  -0.804   1.114  0.00  0.00    +0.004 A 
ATOM     14 BR   UNL     1       0.489  -4.701  -0.170  0.00  0.00    -0.050 Br
ENDBRANCH   6   8
BRANCH   1  15
ATOM     15  C   UNL     1      -2.038   1.291  -0.947  0.00  0.00    -0.040 C 
BRANCH  15  19
ATOM     16  C   UNL     1      -4.594   2.942  -3.947  0.00  0.00    +0.120 A 
ATOM     17  C   UNL     1      -3.813   1.832  -4.233  0.00  0.00    +0.046 A 
ATOM     18  C   UNL     1      -2.988   1.300  -3.262  0.00  0.00    +0.005 A 
ATOM     19  C   UNL     1      -2.939   1.873  -2.005  0.00  0.00    -0.064 A 
ATOM     20  C   UNL     1      -3.720   2.976  -1.715  0.00  0.00    +0.005 A 
ATOM     21  C   UNL     1      -4.543   3.516  -2.684  0.00  0.00    +0.046 A 
BRANCH  16  23
ATOM     22  C   UNL     1      -6.182   4.611  -4.535  0.00  0.00    +0.277 C 
ATOM     23  O   UNL     1      -5.407   3.468  -4.901  0.00  0.00    -0.495 OA
ENDBRANCH  16  23
ENDBRANCH  15  19
ENDBRANCH   1  15
BRANCH   5  24
ATOM     24  C   UNL     1       2.442   1.464   0.867  0.00  0.00    +0.118 C 
BRANCH  24  25
ATOM     25  C   UNL     1       3.837   1.946   0.563  0.00  0.00    -0.033 A 
ATOM     26  C   UNL     1       4.654   1.209  -0.274  0.00  0.00    +0.008 A 
ATOM     27  C   UNL     1       5.931   1.652  -0.559  0.00  0.00    +0.046 A 
ATOM     28  C   UNL     1       6.397   2.831   0.004  0.00  0.00    +0.120 A 
ATOM     29  C   UNL     1       5.577   3.565   0.848  0.00  0.00    +0.046 A 
ATOM     30  C   UNL     1       4.299   3.121   1.126  0.00  0.00    +0.008 A 
BRANCH  28  31
ATOM     31  O   UNL     1       7.655   3.266  -0.271  0.00  0.00    -0.495 OA
ATOM     32  C   UNL     1       8.444   2.459  -1.148  0.00  0.00    +0.277 C 
ENDBRANCH  28  31
ENDBRANCH  24  25
ENDBRANCH   5  24
TORSDOF 7
