REMARK  Name = ZINC09985091
REMARK  7 active torsions:
REMARK  status: ('A' for Active; 'I' for Inactive)
REMARK    1  A    between atoms: C_3  and  C_6
REMARK    2  A    between atoms: C_9  and  S_12
REMARK    3  A    between atoms: N_10  and  N_11
REMARK    4  A    between atoms: S_12  and  C_13
REMARK    5  A    between atoms: C_13  and  C_14
REMARK    6  A    between atoms: N_16  and  C_17
REMARK    7  A    between atoms: C_18  and  C_27
REMARK                            x       y       z     vdW  Elec       q    Type
REMARK                         _______ _______ _______ _____ _____    ______ ____
ROOT
ATOM      1  C   UNL     1      -5.121   3.058   0.039  0.00  0.00    +0.228 C 
ATOM      2  O   UNL     1      -5.580   1.936   0.035  0.00  0.00    -0.275 OA
ATOM      3  N   UNL     1      -5.946   4.124   0.049  0.00  0.00    -0.278 N 
ATOM      4  H   UNL     1      -5.579   5.021   0.052  0.00  0.00    +0.155 HD
ENDROOT
BRANCH   3   5
ATOM      5  C   UNL     1      -7.321   3.937   0.053  0.00  0.00    +0.090 A 
ATOM      6  C   UNL     1      -8.321   4.896   0.068  0.00  0.00    +0.084 A 
ATOM      7  C   UNL     1      -9.702   4.436   0.063  0.00  0.00    -0.018 A 
ATOM      8  C   UNL     1      -9.855   3.093   0.060  0.00  0.00    -0.004 A 
ATOM      9  S   UNL     1      -8.205   2.447   0.049  0.00  0.00    -0.077 S 
ATOM     10  C   UNL     1     -11.135   2.318   0.080  0.00  0.00    +0.043 C 
ATOM     11  C   UNL     1     -12.082   2.877  -0.992  0.00  0.00    +0.005 C 
ATOM     12  C   UNL     1     -12.916   3.989  -0.365  0.00  0.00    +0.001 C 
ATOM     13  C   UNL     1     -12.100   4.727   0.694  0.00  0.00    +0.005 C 
ATOM     14  C   UNL     1     -10.885   5.396   0.059  0.00  0.00    +0.037 C 
BRANCH   6  15
ATOM     15  C   UNL     1      -8.006   6.292   0.084  0.00  0.00    +0.102 C 
ATOM     16  N   UNL     1      -7.756   7.400   0.097  0.00  0.00    -0.191 NA
ENDBRANCH   6  15
ENDBRANCH   3   5
BRANCH   1  17
ATOM     17  C   UNL     1      -3.628   3.261   0.034  0.00  0.00    +0.173 C 
BRANCH  17  18
ATOM     18  S   UNL     1      -2.800   1.652   0.022  0.00  0.00    -0.075 S 
BRANCH  18  22
ATOM     19  C   UNL     1       1.069   2.209   0.004  0.00  0.00    +0.188 A 
ATOM     20  N   UNL     1       0.599   3.437   0.015  0.00  0.00    -0.126 NA
ATOM     21  N   UNL     1      -0.686   3.414   0.027  0.00  0.00    -0.121 NA
ATOM     22  C   UNL     1      -1.117   2.173   0.018  0.00  0.00    +0.209 A 
ATOM     23  N   UNL     1      -0.016   1.362   0.009  0.00  0.00    -0.223 N 
BRANCH  19  26
ATOM     24  C   UNL     1       4.834   1.983  -0.245  0.00  0.00    +0.008 A 
ATOM     25  C   UNL     1       3.593   2.575  -0.300  0.00  0.00    +0.019 A 
ATOM     26  C   UNL     1       2.487   1.815  -0.012  0.00  0.00    +0.058 A 
ATOM     27  S   UNL     1       3.216   0.222   0.331  0.00  0.00    -0.093 S 
ATOM     28  C   UNL     1       4.926   0.667   0.080  0.00  0.00    +0.046 A 
ENDBRANCH  19  26
BRANCH  23  29
ATOM     29  N   UNL     1       0.002  -0.004   0.002  0.00  0.00    -0.295 N 
ATOM     30  H   UNL     1       0.016  -0.371   0.942  0.00  0.00    +0.163 HD
ATOM     31  H   UNL     1      -0.779  -0.373  -0.519  0.00  0.00    +0.163 HD
ENDBRANCH  23  29
ENDBRANCH  18  22
ENDBRANCH  17  18
ENDBRANCH   1  17
TORSDOF 7
