REMARK  Name = ZINC39886024
REMARK  6 active torsions:
REMARK  status: ('A' for Active; 'I' for Inactive)
REMARK    1  A    between atoms: C_1  and  C_2
REMARK    2  A    between atoms: C_2  and  C_3
REMARK    3  A    between atoms: C_2  and  C_4
REMARK    4  A    between atoms: C_2  and  C_5
REMARK    5  A    between atoms: C_8  and  C_11
REMARK    6  A    between atoms: C_22  and  C_24
REMARK                            x       y       z     vdW  Elec       q    Type
REMARK                         _______ _______ _______ _____ _____    ______ ____
ROOT
ATOM      1  C   UNL     1       2.694  -1.859  -4.730  0.00  0.00    +0.026 C 
ATOM      2  C   UNL     1       3.935  -1.441  -5.000  0.00  0.00    +0.079 C 
ATOM      3  C   UNL     1       4.788  -1.707  -6.228  0.00  0.00    +0.302 C 
ATOM      4  N   UNL     1       6.094  -1.085  -6.169  0.00  0.00    -0.247 N 
ATOM      5  C   UNL     1       6.433  -0.360  -5.093  0.00  0.00    +0.281 C 
ATOM      6  O   UNL     1       7.484   0.220  -4.896  0.00  0.00    -0.262 OA
ATOM      7  S   UNL     1       5.016  -0.420  -4.017  0.00  0.00    -0.028 S 
ATOM      8  N   UNL     1       4.059  -1.237  -7.415  0.00  0.00    -0.186 N 
ATOM      9  C   UNL     1       2.733  -1.798  -7.760  0.00  0.00    +0.138 C 
ATOM     10  C   UNL     1       2.549  -1.359  -9.219  0.00  0.00    +0.086 C 
ATOM     11  C   UNL     1       3.662  -0.352  -9.431  0.00  0.00    +0.069 C 
ATOM     12  N   UNL     1       4.431  -0.333  -8.392  0.00  0.00    -0.183 NA
ATOM     13  C   UNL     1       2.852  -3.292  -7.611  0.00  0.00    +0.018 A 
ATOM     14  C   UNL     1       1.894  -4.106  -8.186  0.00  0.00    +0.029 A 
ATOM     15  C   UNL     1       1.972  -5.480  -8.050  0.00  0.00    +0.042 A 
ATOM     16  C   UNL     1       3.015  -6.039  -7.333  0.00  0.00    +0.023 A 
ATOM     17  C   UNL     1       3.974  -5.231  -6.764  0.00  0.00    +0.047 A 
ATOM     18  C   UNL     1       3.909  -3.844  -6.904  0.00  0.00    +0.131 A 
ATOM     19  O   UNL     1       4.927  -3.127  -6.386  0.00  0.00    -0.446 OA
ATOM     20 CL   UNL     1       0.767  -6.498  -8.775  0.00  0.00    -0.084 Cl
ATOM     21  H   UNL     1       6.719  -1.192  -6.903  0.00  0.00    +0.155 HD
ENDROOT
BRANCH   1  25
ATOM     22  C   UNL     1       0.644  -0.360  -1.329  0.00  0.00    -0.042 A 
ATOM     23  C   UNL     1       1.730   0.330  -1.838  0.00  0.00    +0.005 A 
ATOM     24  C   UNL     1       2.401  -0.151  -2.943  0.00  0.00    +0.008 A 
ATOM     25  C   UNL     1       1.982  -1.338  -3.548  0.00  0.00    -0.024 A 
ATOM     26  C   UNL     1       0.885  -2.030  -3.029  0.00  0.00    +0.008 A 
ATOM     27  C   UNL     1       0.227  -1.540  -1.920  0.00  0.00    +0.005 A 
BRANCH  22  29
ATOM     28  C   UNL     1      -0.015  -0.856   1.010  0.00  0.00    +0.015 C 
ATOM     29  C   UNL     1      -0.085   0.172  -0.122  0.00  0.00    -0.013 C 
ATOM     30  C   UNL     1      -1.548   0.434  -0.483  0.00  0.00    +0.015 C 
ATOM     31  C   UNL     1       0.570   1.477   0.334  0.00  0.00    +0.015 C 
ENDBRANCH  22  29
ENDBRANCH   1  25
BRANCH  11  32
ATOM     32  C   UNL     1       3.840   0.478 -10.638  0.00  0.00    -0.002 A 
ATOM     33  C   UNL     1       2.938   0.375 -11.700  0.00  0.00    +0.010 A 
ATOM     34  C   UNL     1       3.111   1.154 -12.825  0.00  0.00    +0.001 A 
ATOM     35  C   UNL     1       4.174   2.036 -12.903  0.00  0.00    +0.000 A 
ATOM     36  C   UNL     1       5.071   2.143 -11.855  0.00  0.00    +0.001 A 
ATOM     37  C   UNL     1       4.907   1.375 -10.721  0.00  0.00    +0.010 A 
ENDBRANCH  11  32
TORSDOF 3
