REMARK  Name = ZINC12372435
REMARK  10 active torsions:
REMARK  status: ('A' for Active; 'I' for Inactive)
REMARK    1  A    between atoms: C_1  and  C_2
REMARK    2  A    between atoms: C_3  and  O_32
REMARK    3  A    between atoms: C_6  and  C_9
REMARK    4  A    between atoms: C_7  and  O_8
REMARK    5  A    between atoms: C_23  and  O_28
REMARK    6  A    between atoms: C_24  and  C_27
REMARK    7  A    between atoms: O_28  and  C_29
REMARK    8  A    between atoms: C_29  and  C_31
REMARK    9  A    between atoms: O_32  and  C_33
REMARK   10  A    between atoms: C_33  and  C_35
REMARK                            x       y       z     vdW  Elec       q    Type
REMARK                         _______ _______ _______ _____ _____    ______ ____
ROOT
ATOM      1  C   UNL     1      -0.191   2.177   8.497  0.00  0.00    +0.142 C 
ATOM      2  C   UNL     1       0.727   1.859   9.674  0.00  0.00    +0.053 C 
ATOM      3  C   UNL     1      -0.140   2.054  10.942  0.00  0.00    +0.005 C 
ATOM      4  C   UNL     1      -1.567   2.406  10.446  0.00  0.00    +0.009 C 
ATOM      5  C   UNL     1      -1.605   1.807   9.034  0.00  0.00    +0.048 C 
ATOM      6  C   UNL     1      -2.595   2.460   8.089  0.00  0.00    +0.006 C 
ATOM      7  C   UNL     1      -4.028   1.994   8.392  0.00  0.00    +0.012 C 
ATOM      8  C   UNL     1      -4.617   3.128   9.268  0.00  0.00    +0.001 C 
ATOM      9  C   UNL     1      -4.009   4.404   8.633  0.00  0.00    +0.001 C 
ATOM     10  C   UNL     1      -2.575   3.986   8.243  0.00  0.00    +0.012 C 
ATOM     11  C   UNL     1      -2.219   2.078   6.675  0.00  0.00    +0.001 A 
ATOM     12  C   UNL     1      -3.160   2.239   5.672  0.00  0.00    +0.011 A 
ATOM     13  C   UNL     1      -2.865   1.877   4.373  0.00  0.00    +0.047 A 
ATOM     14  C   UNL     1      -1.619   1.348   4.067  0.00  0.00    +0.138 A 
ATOM     15  C   UNL     1      -0.675   1.186   5.067  0.00  0.00    +0.034 A 
ATOM     16  C   UNL     1      -0.968   1.561   6.372  0.00  0.00    +0.132 A 
ATOM     17  O   UNL     1       0.009   1.413   7.321  0.00  0.00    -0.480 OA
ATOM     18  C   UNL     1       0.677   0.606   4.738  0.00  0.00    +0.051 C 
ENDROOT
BRANCH   1  24
ATOM     19  C   UNL     1       0.231   5.861   5.123  0.00  0.00    +0.051 C 
ATOM     20  C   UNL     1       0.068   5.411   6.552  0.00  0.00    +0.034 A 
ATOM     21  C   UNL     1      -0.030   6.349   7.568  0.00  0.00    +0.138 A 
ATOM     22  C   UNL     1      -0.180   5.932   8.883  0.00  0.00    +0.047 A 
ATOM     23  C   UNL     1      -0.238   4.584   9.180  0.00  0.00    +0.015 A 
ATOM     24  C   UNL     1      -0.134   3.647   8.169  0.00  0.00    +0.038 A 
ATOM     25  C   UNL     1       0.016   4.059   6.852  0.00  0.00    +0.130 A 
BRANCH  25  26
ATOM     26  O   UNL     1       0.112   3.137   5.859  0.00  0.00    -0.506 OA
ATOM     27  H   UNL     1      -0.710   2.999   5.369  0.00  0.00    +0.292 HD
ENDBRANCH  25  26
BRANCH  21  28
ATOM     28  O   UNL     1       0.021   7.676   7.277  0.00  0.00    -0.426 OA
BRANCH  28  29
ATOM     29  C   UNL     1      -1.122   8.256   6.878  0.00  0.00    +0.309 C 
ATOM     30  O   UNL     1      -2.154   7.627   6.882  0.00  0.00    -0.251 OA
ATOM     31  C   UNL     1      -1.119   9.694   6.425  0.00  0.00    +0.136 C 
ENDBRANCH  28  29
ENDBRANCH  21  28
ENDBRANCH   1  24
BRANCH  14  32
ATOM     32  O   UNL     1      -1.328   0.985   2.790  0.00  0.00    -0.426 OA
BRANCH  32  33
ATOM     33  C   UNL     1      -0.599   1.847   2.062  0.00  0.00    +0.309 C 
ATOM     34  O   UNL     1      -0.319   2.932   2.513  0.00  0.00    -0.251 OA
ATOM     35  C   UNL     1      -0.130   1.460   0.683  0.00  0.00    +0.136 C 
ENDBRANCH  32  33
ENDBRANCH  14  32
TORSDOF 6
