REMARK  Name = ZINC36591935
REMARK  20 active torsions:
REMARK  status: ('A' for Active; 'I' for Inactive)
REMARK    1  A    between atoms: C_1  and  C_2
REMARK    2  A    between atoms: C_2  and  C_4
REMARK    3  A    between atoms: N_6  and  C_7
REMARK    4  A    between atoms: N_6  and  C_29
REMARK    5  A    between atoms: C_7  and  C_9
REMARK    6  A    between atoms: C_7  and  C_18
REMARK    7  A    between atoms: C_10  and  O_17
REMARK    8  A    between atoms: C_12  and  O_16
REMARK    9  A    between atoms: C_14  and  O_15
REMARK   10  A    between atoms: N_20  and  C_21
REMARK   11  A    between atoms: C_21  and  C_22
REMARK   12  A    between atoms: C_21  and  C_23
REMARK   13  A    between atoms: C_21  and  C_24
REMARK   14  A    between atoms: C_24  and  C_25
REMARK   15  A    between atoms: C_25  and  C_26
REMARK   16  A    between atoms: C_25  and  C_27
REMARK   17  A    between atoms: C_25  and  C_28
REMARK   18  A    between atoms: C_29  and  C_30
REMARK   19  A    between atoms: C_29  and  C_31
REMARK   20  A    between atoms: C_29  and  C_32
REMARK                            x       y       z     vdW  Elec       q    Type
REMARK                         _______ _______ _______ _____ _____    ______ ____
ROOT
ATOM      1  C   UNL     1      -2.855   3.004  -0.051  0.00  0.00    +0.200 C 
ENDROOT
BRANCH   1   2
ATOM      2  C   UNL     1      -1.933   2.019   0.621  0.00  0.00    +0.065 A 
ATOM      3  C   UNL     1      -2.041   0.665   0.340  0.00  0.00    +0.129 A 
ATOM      4  C   UNL     1      -1.193  -0.241   0.958  0.00  0.00    +0.091 A 
ATOM      5  C   UNL     1      -0.236   0.207   1.857  0.00  0.00    +0.124 A 
ATOM      6  C   UNL     1      -0.128   1.561   2.137  0.00  0.00    +0.091 A 
ATOM      7  C   UNL     1      -0.974   2.467   1.516  0.00  0.00    +0.129 A 
BRANCH   7   8
ATOM      8  O   UNL     1      -0.864   3.794   1.787  0.00  0.00    -0.506 OA
ATOM      9  H   UNL     1      -1.347   4.076   2.576  0.00  0.00    +0.292 HD
ENDBRANCH   7   8
BRANCH   5  10
ATOM     10  O   UNL     1       0.594  -0.681   2.464  0.00  0.00    -0.507 OA
ATOM     11  H   UNL     1       1.414  -0.848   1.978  0.00  0.00    +0.292 HD
ENDBRANCH   5  10
BRANCH   3  12
ATOM     12  O   UNL     1      -2.979   0.227  -0.541  0.00  0.00    -0.506 OA
ATOM     13  H   UNL     1      -2.650   0.117  -1.443  0.00  0.00    +0.292 HD
ENDBRANCH   3  12
ENDBRANCH   1   2
BRANCH   1  14
ATOM     14  C   UNL     1      -2.100   3.749  -1.121  0.00  0.00    +0.239 C 
ATOM     15  O   UNL     1      -1.044   3.317  -1.531  0.00  0.00    -0.273 OA
ATOM     16  N   UNL     1      -2.599   4.897  -1.623  0.00  0.00    -0.308 N 
ATOM     17  H   UNL     1      -3.444   5.242  -1.295  0.00  0.00    +0.149 HD
BRANCH  16  18
ATOM     18  C   UNL     1      -1.865   5.621  -2.663  0.00  0.00    +0.030 C 
ATOM     19  C   UNL     1      -0.449   5.927  -2.170  0.00  0.00    +0.031 C 
ATOM     20  C   UNL     1      -1.790   4.763  -3.927  0.00  0.00    +0.031 C 
BRANCH  18  21
ATOM     21  C   UNL     1      -2.588   6.932  -2.979  0.00  0.00    +0.031 C 
BRANCH  21  22
ATOM     22  C   UNL     1      -4.040   6.634  -3.360  0.00  0.00    -0.036 C 
ATOM     23  C   UNL     1      -4.632   5.630  -2.369  0.00  0.00    +0.010 C 
ATOM     24  C   UNL     1      -4.854   7.929  -3.321  0.00  0.00    +0.010 C 
ATOM     25  C   UNL     1      -4.086   6.045  -4.771  0.00  0.00    +0.010 C 
ENDBRANCH  21  22
ENDBRANCH  18  21
ENDBRANCH  16  18
ENDBRANCH   1  14
BRANCH   1  28
ATOM     26  C   UNL     1      -5.091   2.042   0.065  0.00  0.00    +0.243 C 
ATOM     27  O   UNL     1      -6.088   1.611  -0.481  0.00  0.00    -0.270 OA
ATOM     28  N   UNL     1      -3.979   2.286  -0.657  0.00  0.00    -0.277 N 
BRANCH  28  29
ATOM     29  C   UNL     1      -3.895   1.832  -2.047  0.00  0.00    +0.030 C 
ATOM     30  C   UNL     1      -4.761   2.732  -2.931  0.00  0.00    +0.031 C 
ATOM     31  C   UNL     1      -2.441   1.901  -2.519  0.00  0.00    +0.031 C 
ATOM     32  C   UNL     1      -4.394   0.389  -2.144  0.00  0.00    +0.031 C 
ENDBRANCH  28  29
BRANCH  26  34
ATOM     33  C   UNL     1      -3.797   2.426   2.263  0.00  0.00    +0.048 C 
ATOM     34  C   UNL     1      -5.098   2.298   1.514  0.00  0.00    +0.004 C 
ATOM     35  C   UNL     1      -6.253   2.416   2.162  0.00  0.00    +0.017 C 
ENDBRANCH  26  34
ENDBRANCH   1  28
TORSDOF 11
