REMARK  Name = ZINC02741497
REMARK  10 active torsions:
REMARK  status: ('A' for Active; 'I' for Inactive)
REMARK    1  A    between atoms: C_1  and  C_2
REMARK    2  A    between atoms: C_2  and  C_3
REMARK    3  A    between atoms: C_10  and  N_16
REMARK    4  A    between atoms: C_11  and  C_12
REMARK    5  A    between atoms: C_12  and  O_14
REMARK    6  A    between atoms: O_14  and  C_15
REMARK    7  A    between atoms: C_17  and  C_19
REMARK    8  A    between atoms: C_19  and  C_21
REMARK    9  A    between atoms: C_19  and  O_22
REMARK   10  A    between atoms: O_22  and  C_23
REMARK                            x       y       z     vdW  Elec       q    Type
REMARK                         _______ _______ _______ _____ _____    ______ ____
ROOT
ATOM      1  C   UNL     1      -3.744  -2.503  -3.423  0.00  0.00    -0.006 C 
ATOM      2  C   UNL     1      -3.329  -1.041  -3.612  0.00  0.00    +0.008 C 
ATOM      3  C   UNL     1      -2.159  -0.708  -2.684  0.00  0.00    +0.037 C 
ATOM      4  C   UNL     1      -2.529  -1.115  -1.263  0.00  0.00    -0.021 A 
ATOM      5  C   UNL     1      -3.533  -1.988  -1.028  0.00  0.00    -0.004 A 
ATOM      6  S   UNL     1      -3.594  -2.144   0.734  0.00  0.00    -0.077 S 
ATOM      7  C   UNL     1      -2.300  -1.072   1.156  0.00  0.00    +0.086 A 
ATOM      8  C   UNL     1      -1.851  -0.618  -0.077  0.00  0.00    +0.091 A 
ATOM      9  C   UNL     1      -4.399  -2.663  -2.046  0.00  0.00    +0.046 C 
ENDROOT
BRANCH   7  10
ATOM     10  N   UNL     1      -1.827  -0.747   2.417  0.00  0.00    -0.276 N 
ATOM     11  C   UNL     1      -2.395  -1.293   3.511  0.00  0.00    +0.258 C 
ATOM     12  O   UNL     1      -3.319  -2.069   3.391  0.00  0.00    -0.271 OA
ATOM     13  H   UNL     1      -1.088  -0.126   2.513  0.00  0.00    +0.155 HD
BRANCH  11  14
ATOM     14  C   UNL     1      -1.881  -0.939   4.883  0.00  0.00    +0.256 C 
ATOM     15  C   UNL     1      -0.407  -1.337   4.994  0.00  0.00    +0.062 C 
BRANCH  14  16
ATOM     16  O   UNL     1      -2.639  -1.640   5.871  0.00  0.00    -0.480 OA
BRANCH  16  17
ATOM     17  C   UNL     1      -2.692  -1.090   7.113  0.00  0.00    +0.123 A 
ATOM     18  C   UNL     1      -3.505  -1.652   8.087  0.00  0.00    +0.046 A 
ATOM     19  C   UNL     1      -3.554  -1.095   9.350  0.00  0.00    +0.005 A 
ATOM     20  C   UNL     1      -2.802   0.029   9.641  0.00  0.00    +0.020 A 
ATOM     21  C   UNL     1      -1.995   0.594   8.670  0.00  0.00    +0.044 A 
ATOM     22  C   UNL     1      -1.938   0.036   7.406  0.00  0.00    +0.065 A 
ATOM     23 CL   UNL     1      -1.052   2.005   9.039  0.00  0.00    -0.083 Cl
ENDBRANCH  16  17
ENDBRANCH  14  16
ENDBRANCH  11  14
ENDBRANCH   7  10
BRANCH   1  25
ATOM     24  C   UNL     1      -5.053  -4.392  -4.403  0.00  0.00    +0.004 C 
ATOM     25  C   UNL     1      -4.736  -2.900  -4.518  0.00  0.00    +0.000 C 
ENDBRANCH   1  25
BRANCH   8  26
ATOM     26  C   UNL     1      -0.740   0.330  -0.179  0.00  0.00    +0.342 C 
ATOM     27  O   UNL     1       0.402  -0.079  -0.270  0.00  0.00    -0.245 OA
BRANCH  26  28
ATOM     28  O   UNL     1      -0.983   1.657  -0.173  0.00  0.00    -0.464 OA
ATOM     29  C   UNL     1       0.167   2.538  -0.278  0.00  0.00    +0.280 C 
ENDBRANCH  26  28
ENDBRANCH   8  26
TORSDOF 7
