REMARK  Name = ZINC63230368
REMARK  10 active torsions:
REMARK  status: ('A' for Active; 'I' for Inactive)
REMARK    1  A    between atoms: C_1  and  N_2
REMARK    2  A    between atoms: N_2  and  C_3
REMARK    3  A    between atoms: N_2  and  C_4
REMARK    4  A    between atoms: C_7  and  C_10
REMARK    5  A    between atoms: C_10  and  C_12
REMARK    6  A    between atoms: C_10  and  C_27
REMARK    7  A    between atoms: C_12  and  N_13
REMARK    8  A    between atoms: C_14  and  C_16
REMARK    9  A    between atoms: C_17  and  C_18
REMARK   10  A    between atoms: C_23  and  N_24
REMARK                            x       y       z     vdW  Elec       q    Type
REMARK                         _______ _______ _______ _____ _____    ______ ____
ROOT
ATOM      1  C   UNL     1       0.367  -1.947  -5.492  0.00  0.00    +0.064 C 
ENDROOT
BRANCH   1   2
ATOM      2  C   UNL     1       1.605  -1.837  -6.344  0.00  0.00    -0.033 C 
ATOM      3  C   UNL     1       2.488  -2.823  -6.626  0.00  0.00    -0.000 A 
ATOM      4  C   UNL     1       2.558  -4.237  -6.237  0.00  0.00    +0.010 A 
ATOM      5  C   UNL     1       3.587  -4.990  -6.686  0.00  0.00    +0.001 A 
ATOM      6  C   UNL     1       4.586  -4.456  -7.511  0.00  0.00    +0.002 A 
ATOM      7  C   UNL     1       4.591  -3.167  -7.910  0.00  0.00    +0.026 A 
ATOM      8  C   UNL     1       3.556  -2.283  -7.498  0.00  0.00    +0.043 A 
ATOM      9  N   UNL     1       3.341  -1.014  -7.746  0.00  0.00    -0.380 N 
ATOM     10  C   UNL     1       2.109  -0.606  -7.063  0.00  0.00    +0.145 C 
ATOM     11  H   UNL     1       3.902  -0.441  -8.292  0.00  0.00    +0.160 HD
ENDBRANCH   1   2
BRANCH   1  15
ATOM     12  C   UNL     1       0.654   0.775  -2.209  0.00  0.00    +0.029 A 
ATOM     13  C   UNL     1       0.528  -0.588  -1.974  0.00  0.00    +0.023 A 
ATOM     14  C   UNL     1       0.435  -1.464  -3.037  0.00  0.00    +0.006 A 
ATOM     15  C   UNL     1       0.468  -0.987  -4.335  0.00  0.00    -0.039 A 
ATOM     16  C   UNL     1       0.593   0.370  -4.572  0.00  0.00    +0.006 A 
ATOM     17  C   UNL     1       0.680   1.253  -3.514  0.00  0.00    +0.023 A 
BRANCH  12  19
ATOM     18  C   UNL     1       0.874   3.103  -1.387  0.00  0.00    +0.129 C 
ATOM     19  N   UNL     1       0.747   1.665  -1.137  0.00  0.00    -0.336 N 
ATOM     20  C   UNL     1       0.719   1.160   0.238  0.00  0.00    +0.129 C 
ENDBRANCH  12  19
ENDBRANCH   1  15
BRANCH   1  21
ATOM     21  C   UNL     1      -0.864  -1.603  -6.334  0.00  0.00    +0.117 C 
BRANCH  21  22
ATOM     22  N   UNL     1      -1.029  -2.607  -7.388  0.00  0.00    -0.311 N 
ATOM     23  C   UNL     1      -2.054  -2.507  -8.258  0.00  0.00    +0.237 C 
ATOM     24  O   UNL     1      -2.842  -1.585  -8.167  0.00  0.00    -0.271 OA
ATOM     25  H   UNL     1      -0.401  -3.342  -7.461  0.00  0.00    +0.149 HD
BRANCH  23  26
ATOM     26  C   UNL     1      -2.220  -3.510  -9.312  0.00  0.00    +0.068 C 
ATOM     27  C   UNL     1      -3.245  -3.411 -10.181  0.00  0.00    +0.015 C 
BRANCH  27  28
ATOM     28  C   UNL     1      -3.412  -4.420 -11.241  0.00  0.00    +0.005 A 
ATOM     29  C   UNL     1      -2.358  -5.280 -11.564  0.00  0.00    +0.010 A 
ATOM     30  C   UNL     1      -2.522  -6.222 -12.558  0.00  0.00    +0.001 A 
ATOM     31  C   UNL     1      -3.725  -6.317 -13.235  0.00  0.00    +0.002 A 
ATOM     32  C   UNL     1      -4.773  -5.469 -12.921  0.00  0.00    +0.033 A 
ATOM     33  C   UNL     1      -4.627  -4.526 -11.925  0.00  0.00    +0.133 A 
BRANCH  33  34
ATOM     34  N   UNL     1      -5.750  -3.623 -11.587  0.00  0.00    +0.057 N 
ATOM     35  O   UNL     1      -5.947  -3.309 -10.436  0.00  0.00    -0.126 OA
ATOM     36  O   UNL     1      -6.471  -3.201 -12.461  0.00  0.00    -0.126 OA
ENDBRANCH  33  34
ENDBRANCH  27  28
ENDBRANCH  23  26
ENDBRANCH  21  22
ENDBRANCH   1  21
TORSDOF 8
