REMARK  Name = ZINC06006706
REMARK  10 active torsions:
REMARK  status: ('A' for Active; 'I' for Inactive)
REMARK    1  A    between atoms: C_1  and  C_2
REMARK    2  A    between atoms: C_4  and  C_25
REMARK    3  A    between atoms: C_13  and  N_15
REMARK    4  A    between atoms: N_15  and  C_16
REMARK    5  A    between atoms: C_27  and  O_35
REMARK    6  A    between atoms: C_28  and  O_33
REMARK    7  A    between atoms: C_29  and  O_31
REMARK    8  A    between atoms: O_31  and  C_32
REMARK    9  A    between atoms: O_33  and  C_34
REMARK   10  A    between atoms: O_35  and  C_36
REMARK                            x       y       z     vdW  Elec       q    Type
REMARK                         _______ _______ _______ _____ _____    ______ ____
ROOT
ATOM      1  C   UNL     1       2.100   4.409  -0.581  0.00  0.00    +0.010 C 
ATOM      2  C   UNL     1       1.734   5.893  -0.511  0.00  0.00    +0.020 C 
ATOM      3  C   UNL     1       0.237   6.068  -0.774  0.00  0.00    +0.057 C 
ATOM      4  C   UNL     1      -0.058   5.802  -2.228  0.00  0.00    +0.006 A 
ATOM      5  C   UNL     1      -1.366   5.539  -2.605  0.00  0.00    +0.057 A 
ATOM      6  C   UNL     1      -1.677   5.293  -3.930  0.00  0.00    +0.167 A 
ATOM      7  C   UNL     1      -0.670   5.310  -4.892  0.00  0.00    +0.170 A 
ATOM      8  C   UNL     1       0.635   5.572  -4.515  0.00  0.00    +0.095 A 
ATOM      9  C   UNL     1       0.945   5.817  -3.181  0.00  0.00    +0.126 A 
ATOM     10  O   UNL     1       2.241   6.065  -2.853  0.00  0.00    -0.506 OA
ATOM     11  C   UNL     1       2.505   6.669  -1.587  0.00  0.00    +0.125 C 
ATOM     12  O   UNL     1      -1.226   5.042  -6.110  0.00  0.00    -0.452 OA
ATOM     13  C   UNL     1      -2.511   4.458  -5.826  0.00  0.00    +0.466 C 
ATOM     14  O   UNL     1      -2.864   5.013  -4.546  0.00  0.00    -0.453 OA
ENDROOT
BRANCH   3  15
ATOM     15  C   UNL     1      -0.539   5.099   0.080  0.00  0.00    -0.032 A 
ATOM     16  C   UNL     1      -1.167   5.542   1.230  0.00  0.00    +0.054 A 
ATOM     17  C   UNL     1      -1.881   4.653   2.018  0.00  0.00    +0.165 A 
ATOM     18  C   UNL     1      -1.967   3.316   1.652  0.00  0.00    +0.204 A 
ATOM     19  C   UNL     1      -1.335   2.874   0.496  0.00  0.00    +0.165 A 
ATOM     20  C   UNL     1      -0.617   3.768  -0.285  0.00  0.00    +0.054 A 
BRANCH  19  21
ATOM     21  O   UNL     1      -1.415   1.565   0.133  0.00  0.00    -0.491 OA
ATOM     22  C   UNL     1      -0.740   1.183  -1.067  0.00  0.00    +0.277 C 
ENDBRANCH  19  21
BRANCH  18  23
ATOM     23  O   UNL     1      -2.667   2.440   2.424  0.00  0.00    -0.488 OA
ATOM     24  C   UNL     1      -1.948   1.772   3.463  0.00  0.00    +0.277 C 
ENDBRANCH  18  23
BRANCH  17  25
ATOM     25  O   UNL     1      -2.498   5.090   3.149  0.00  0.00    -0.491 OA
ATOM     26  C   UNL     1      -2.368   6.478   3.464  0.00  0.00    +0.277 C 
ENDBRANCH  17  25
ENDBRANCH   3  15
BRANCH  11  27
ATOM     27  N   UNL     1       3.945   6.610  -1.302  0.00  0.00    +0.405 N 
ATOM     28  H   UNL     1       4.100   6.354  -0.243  0.00  0.00    -0.080 HD
ATOM     29  H   UNL     1       4.414   5.844  -1.937  0.00  0.00    -0.080 HD
BRANCH  27  30
ATOM     30  C   UNL     1       4.588   7.903  -1.573  0.00  0.00    -0.067 C 
ATOM     31  C   UNL     1       4.952   7.992  -3.056  0.00  0.00    -0.016 C 
ATOM     32  C   UNL     1       5.621   9.338  -3.338  0.00  0.00    -0.002 C 
ATOM     33  C   UNL     1       6.891   9.463  -2.494  0.00  0.00    -0.000 C 
ATOM     34  C   UNL     1       6.527   9.375  -1.010  0.00  0.00    -0.002 C 
ATOM     35  C   UNL     1       5.858   8.028  -0.728  0.00  0.00    -0.016 C 
ENDBRANCH  27  30
ENDBRANCH  11  27
TORSDOF 6
