REMARK  Name = ZINC12360198
REMARK  5 active torsions:
REMARK  status: ('A' for Active; 'I' for Inactive)
REMARK    1  A    between atoms: C_7  and  C_12
REMARK    2  A    between atoms: C_12  and  C_13
REMARK    3  A    between atoms: N_15  and  N_16
REMARK    4  A    between atoms: C_17  and  C_18
REMARK    5  A    between atoms: C_21  and  C_23
REMARK                            x       y       z     vdW  Elec       q    Type
REMARK                         _______ _______ _______ _____ _____    ______ ____
ROOT
ATOM      1  C   UNL     1      -5.167   5.389   0.080  0.00  0.00    +0.237 C 
ATOM      2  O   UNL     1      -5.611   4.260   0.079  0.00  0.00    -0.274 OA
ATOM      3  N   UNL     1      -3.834   5.589   0.069  0.00  0.00    -0.207 N 
ATOM      4  H   UNL     1      -3.479   6.492   0.070  0.00  0.00    +0.177 HD
ENDROOT
BRANCH   3   5
ATOM      5  N   UNL     1      -2.961   4.494   0.054  0.00  0.00    -0.185 NA
ATOM      6  C   UNL     1      -1.674   4.687   0.043  0.00  0.00    +0.176 C 
BRANCH   6   7
ATOM      7  C   UNL     1      -0.762   3.542   0.028  0.00  0.00    +0.148 A 
ATOM      8  C   UNL     1       0.614   3.604   0.016  0.00  0.00    +0.051 A 
ATOM      9  C   UNL     1       1.079   2.282   0.004  0.00  0.00    +0.050 A 
ATOM     10  C   UNL     1      -0.018   1.472   0.010  0.00  0.00    +0.136 A 
ATOM     11  O   UNL     1      -1.122   2.242   0.019  0.00  0.00    -0.454 OA
BRANCH  10  12
ATOM     12  C   UNL     1       0.002  -0.004   0.002  0.00  0.00    +0.017 A 
ATOM     13  C   UNL     1       1.219  -0.689  -0.019  0.00  0.00    +0.012 A 
ATOM     14  C   UNL     1       1.231  -2.068  -0.021  0.00  0.00    +0.016 A 
ATOM     15  C   UNL     1       0.040  -2.774  -0.013  0.00  0.00    +0.018 A 
ATOM     16  C   UNL     1      -1.171  -2.101   0.002  0.00  0.00    +0.016 A 
ATOM     17  C   UNL     1      -1.196  -0.722   0.010  0.00  0.00    +0.012 A 
ATOM     18 BR   UNL     1       0.065  -4.664  -0.024  0.00  0.00    -0.050 Br
ENDBRANCH  10  12
ENDBRANCH   6   7
ENDBRANCH   3   5
BRANCH   1  19
ATOM     19  C   UNL     1      -6.106   6.568   0.096  0.00  0.00    +0.133 C 
BRANCH  19  26
ATOM     20  C   UNL     1      -8.103   5.515   3.702  0.00  0.00    +0.001 A 
ATOM     21  C   UNL     1      -9.421   5.061   3.692  0.00  0.00    +0.001 A 
ATOM     22  C   UNL     1     -10.113   4.940   2.526  0.00  0.00    +0.009 A 
ATOM     23  C   UNL     1      -9.491   5.277   1.312  0.00  0.00    -0.004 A 
ATOM     24  C   UNL     1      -8.151   5.738   1.321  0.00  0.00    -0.013 A 
ATOM     25  C   UNL     1      -7.469   5.850   2.545  0.00  0.00    +0.009 A 
ATOM     26  C   UNL     1      -7.530   6.075   0.107  0.00  0.00    -0.031 A 
ATOM     27  C   UNL     1      -8.223   5.961  -1.060  0.00  0.00    +0.006 A 
ATOM     28  C   UNL     1      -9.538   5.501  -1.070  0.00  0.00    +0.016 A 
ATOM     29  C   UNL     1     -10.173   5.165   0.087  0.00  0.00    +0.026 A 
ATOM     30 BR   UNL     1     -11.961   4.553   0.047  0.00  0.00    -0.050 Br
ENDBRANCH  19  26
ENDBRANCH   1  19
TORSDOF 5
