REMARK  Name = ZINC62703878
REMARK  6 active torsions:
REMARK  status: ('A' for Active; 'I' for Inactive)
REMARK    1  A    between atoms: C_3  and  O_11
REMARK    2  A    between atoms: C_6  and  C_7
REMARK    3  A    between atoms: C_7  and  C_8
REMARK    4  A    between atoms: C_8  and  N_9
REMARK    5  A    between atoms: O_11  and  C_12
REMARK    6  A    between atoms: C_12  and  C_13
REMARK                            x       y       z     vdW  Elec       q    Type
REMARK                         _______ _______ _______ _____ _____    ______ ____
ROOT
ATOM      1  C   UNL     1      -0.017   1.378   0.010  0.00  0.00    +0.007 A 
ATOM      2  C   UNL     1       1.170   2.087   0.002  0.00  0.00    +0.047 A 
ATOM      3  C   UNL     1       2.380   1.410  -0.013  0.00  0.00    +0.135 A 
ATOM      4  C   UNL     1       2.397   0.022  -0.021  0.00  0.00    +0.060 A 
ATOM      5  C   UNL     1       1.208  -0.682  -0.013  0.00  0.00    +0.022 A 
ATOM      6  C   UNL     1       0.002  -0.004   0.002  0.00  0.00    -0.048 A 
ATOM      7 BR   UNL     1       4.045  -0.905  -0.042  0.00  0.00    -0.047 Br
ENDROOT
BRANCH   6   8
ATOM      8  C   UNL     1      -1.293  -0.774   0.011  0.00  0.00    +0.015 C 
BRANCH   8   9
ATOM      9  C   UNL     1      -1.746  -1.027  -1.429  0.00  0.00    -0.082 C 
BRANCH   9  10
ATOM     10  N   UNL     1      -3.009  -1.777  -1.420  0.00  0.00    +0.378 N 
ATOM     11  H   UNL     1      -2.873  -2.660  -0.951  0.00  0.00    -0.090 HD
ATOM     12  H   UNL     1      -3.714  -1.243  -0.935  0.00  0.00    -0.090 HD
ATOM     13  H   UNL     1      -3.308  -1.944  -2.370  0.00  0.00    -0.090 HD
ENDBRANCH   9  10
ENDBRANCH   8   9
ENDBRANCH   6   8
BRANCH   3  14
ATOM     14  O   UNL     1       3.548   2.105  -0.021  0.00  0.00    -0.486 OA
BRANCH  14  15
ATOM     15  C   UNL     1       3.455   3.531  -0.013  0.00  0.00    +0.271 C 
BRANCH  15  16
ATOM     16  C   UNL     1       4.840   4.125  -0.023  0.00  0.00    +0.028 A 
ATOM     17  C   UNL     1       5.612   4.472  -1.082  0.00  0.00    +0.029 A 
ATOM     18  C   UNL     1       6.866   5.006  -0.851  0.00  0.00    +0.025 A 
ATOM     19  C   UNL     1       7.286   5.168   0.428  0.00  0.00    +0.060 A 
ATOM     20  S   UNL     1       5.886   4.562   1.356  0.00  0.00    -0.097 S 
ATOM     21 BR   UNL     1       7.979   5.505  -2.297  0.00  0.00    -0.050 Br
ENDBRANCH  15  16
ENDBRANCH  14  15
ENDBRANCH   3  14
TORSDOF 6
