REMARK  Name = ZINC12343562
REMARK  2 active torsions:
REMARK  status: ('A' for Active; 'I' for Inactive)
REMARK    1  A    between atoms: C_7  and  C_9
REMARK    2  A    between atoms: C_10  and  N_27
REMARK                            x       y       z     vdW  Elec       q    Type
REMARK                         _______ _______ _______ _____ _____    ______ ____
ROOT
ATOM      1  C   UNL     1      -1.333   7.404   0.999  0.00  0.00    +0.097 A 
ATOM      2  C   UNL     1      -1.689   6.091   1.227  0.00  0.00    +0.054 A 
ATOM      3  C   UNL     1      -1.753   5.187   0.090  0.00  0.00    +0.031 A 
ATOM      4  C   UNL     1      -2.091   3.803   0.083  0.00  0.00    -0.030 A 
ATOM      5  C   UNL     1      -2.099   3.127  -1.091  0.00  0.00    -0.005 A 
ATOM      6  C   UNL     1      -1.767   3.792  -2.282  0.00  0.00    +0.103 A 
ATOM      7  C   UNL     1      -1.435   5.766  -1.156  0.00  0.00    +0.089 A 
ATOM      8  S   UNL     1      -1.073   7.459  -0.763  0.00  0.00    -0.064 S 
ATOM      9  N   UNL     1      -1.773   3.094  -3.481  0.00  0.00    -0.312 N 
ATOM     10  C   UNL     1      -0.441   3.103  -4.102  0.00  0.00    +0.134 C 
ATOM     11  C   UNL     1      -0.478   2.273  -5.388  0.00  0.00    +0.178 C 
ATOM     12  O   UNL     1      -1.485   2.797  -6.259  0.00  0.00    -0.377 OA
ATOM     13  C   UNL     1      -2.795   2.803  -5.686  0.00  0.00    +0.178 C 
ATOM     14  C   UNL     1      -2.781   3.638  -4.402  0.00  0.00    +0.134 C 
ATOM     15  C   UNL     1      -2.455   1.666  -1.183  0.00  0.00    +0.039 C 
ATOM     16  C   UNL     1      -2.357   1.002   0.190  0.00  0.00    +0.005 C 
ATOM     17  C   UNL     1      -3.158   1.842   1.192  0.00  0.00    +0.005 C 
ATOM     18  C   UNL     1      -2.423   3.165   1.404  0.00  0.00    +0.036 C 
ATOM     19  N   UNL     1      -1.431   5.109  -2.341  0.00  0.00    -0.337 N 
ATOM     20  H   UNL     1      -1.190   5.574  -3.224  0.00  0.00    +0.168 HD
ENDROOT
BRANCH   1  27
ATOM     21  C   UNL     1      -3.154  12.012   1.292  0.00  0.00    +0.003 C 
ATOM     22  C   UNL     1      -2.660  11.585   2.676  0.00  0.00    +0.019 C 
ATOM     23  C   UNL     1      -1.338  10.826   2.530  0.00  0.00    +0.108 C 
ATOM     24  N   UNL     1      -1.532   9.714   1.590  0.00  0.00    -0.297 N 
ATOM     25  C   UNL     1      -2.083  10.003   0.259  0.00  0.00    +0.108 C 
ATOM     26  C   UNL     1      -3.402  10.771   0.432  0.00  0.00    +0.019 C 
ATOM     27  C   UNL     1      -1.206   8.454   1.939  0.00  0.00    +0.255 C 
ATOM     28  O   UNL     1      -0.801   8.220   3.064  0.00  0.00    -0.269 OA
ENDBRANCH   1  27
BRANCH   2  29
ATOM     29  N   UNL     1      -1.978   5.645   2.509  0.00  0.00    -0.356 N 
ATOM     30  H   UNL     1      -1.798   4.724   2.754  0.00  0.00    +0.142 HD
ATOM     31  H   UNL     1      -2.362   6.254   3.159  0.00  0.00    +0.142 HD
ENDBRANCH   2  29
TORSDOF 2
