REMARK  Name = ZINC06321929
REMARK  11 active torsions:
REMARK  status: ('A' for Active; 'I' for Inactive)
REMARK    1  A    between atoms: C_1  and  C_2
REMARK    2  A    between atoms: C_5  and  C_38
REMARK    3  A    between atoms: C_9  and  C_14
REMARK    4  A    between atoms: C_14  and  N_15
REMARK    5  A    between atoms: N_15  and  C_16
REMARK    6  A    between atoms: N_15  and  S_26
REMARK    7  A    between atoms: C_16  and  C_17
REMARK    8  A    between atoms: S_26  and  C_29
REMARK    9  A    between atoms: C_30  and  C_37
REMARK   10  A    between atoms: C_32  and  C_36
REMARK   11  A    between atoms: C_34  and  C_35
REMARK                            x       y       z     vdW  Elec       q    Type
REMARK                         _______ _______ _______ _____ _____    ______ ____
ROOT
ATOM      1  N   UNL     1       2.750   4.047   1.868  0.00  0.00    -0.168 NA
ENDROOT
BRANCH   1   2
ATOM      2  S   UNL     1       1.268   4.023   2.607  0.00  0.00    +0.062 S 
ATOM      3  O   UNL     1       0.297   4.002   1.570  0.00  0.00    -0.153 OA
ATOM      4  O   UNL     1       1.331   3.019   3.612  0.00  0.00    -0.153 OA
BRANCH   2   5
ATOM      5  C   UNL     1       1.079   5.562   3.444  0.00  0.00    +0.111 A 
ATOM      6  C   UNL     1       1.310   5.641   4.805  0.00  0.00    -0.024 A 
ATOM      7  C   UNL     1       1.166   6.850   5.461  0.00  0.00    +0.008 A 
ATOM      8  C   UNL     1       0.780   7.976   4.758  0.00  0.00    -0.050 A 
ATOM      9  C   UNL     1       0.544   7.895   3.398  0.00  0.00    +0.008 A 
ATOM     10  C   UNL     1       0.693   6.688   2.742  0.00  0.00    -0.024 A 
ATOM     11  C   UNL     1       0.435   6.599   1.260  0.00  0.00    +0.046 C 
ATOM     12  C   UNL     1       0.618   9.292   5.474  0.00  0.00    +0.044 C 
ATOM     13  C   UNL     1       1.724   4.412   5.572  0.00  0.00    +0.046 C 
ENDBRANCH   2   5
ENDBRANCH   1   2
BRANCH   1  14
ATOM     14  C   UNL     1       2.845   4.281   0.425  0.00  0.00    +0.150 C 
BRANCH  14  23
ATOM     15  C   UNL     1      -0.501   1.081  -1.958  0.00  0.00    +0.044 C 
ATOM     16  C   UNL     1       0.867   0.457  -2.062  0.00  0.00    -0.041 A 
ATOM     17  C   UNL     1       1.028  -0.741  -2.700  0.00  0.00    +0.004 A 
ATOM     18  C   UNL     1       2.283  -1.324  -2.801  0.00  0.00    +0.005 A 
ATOM     19  C   UNL     1       3.391  -0.708  -2.259  0.00  0.00    -0.026 A 
ATOM     20  C   UNL     1       3.251   0.511  -1.604  0.00  0.00    +0.052 A 
ATOM     21  C   UNL     1       1.976   1.100  -1.504  0.00  0.00    +0.002 A 
ATOM     22  C   UNL     1       1.840   2.383  -0.813  0.00  0.00    +0.020 A 
ATOM     23  C   UNL     1       2.951   2.960  -0.292  0.00  0.00    +0.033 A 
ATOM     24  C   UNL     1       4.207   2.328  -0.421  0.00  0.00    +0.254 A 
ATOM     25  O   UNL     1       5.193   2.864   0.054  0.00  0.00    -0.268 OA
ATOM     26  N   UNL     1       4.342   1.150  -1.054  0.00  0.00    -0.322 N 
ATOM     27  H   UNL     1       5.220   0.743  -1.124  0.00  0.00    +0.169 HD
ATOM     28  C   UNL     1       4.748  -1.353  -2.376  0.00  0.00    +0.046 C 
ENDBRANCH  14  23
ENDBRANCH   1  14
BRANCH   1  29
ATOM     29  C   UNL     1       3.966   3.834   2.658  0.00  0.00    +0.145 C 
BRANCH  29  30
ATOM     30  C   UNL     1       4.753   5.117   2.724  0.00  0.00    -0.028 A 
ATOM     31  C   UNL     1       5.708   5.391   1.763  0.00  0.00    +0.009 A 
ATOM     32  C   UNL     1       6.429   6.569   1.817  0.00  0.00    +0.050 A 
ATOM     33  C   UNL     1       6.203   7.474   2.842  0.00  0.00    +0.166 A 
ATOM     34  C   UNL     1       5.244   7.196   3.813  0.00  0.00    +0.167 A 
ATOM     35  C   UNL     1       4.522   6.015   3.749  0.00  0.00    +0.054 A 
ATOM     36  O   UNL     1       5.211   8.230   4.703  0.00  0.00    -0.453 OA
ATOM     37  C   UNL     1       6.441   8.952   4.499  0.00  0.00    +0.466 C 
ATOM     38  O   UNL     1       6.771   8.683   3.123  0.00  0.00    -0.453 OA
ENDBRANCH  29  30
ENDBRANCH   1  29
TORSDOF 6
