REMARK  Name = ZINC31055684
REMARK  5 active torsions:
REMARK  status: ('A' for Active; 'I' for Inactive)
REMARK    1  A    between atoms: C_10  and  N_12
REMARK    2  A    between atoms: C_13  and  C_15
REMARK    3  A    between atoms: N_20  and  C_22
REMARK    4  A    between atoms: C_22  and  C_23
REMARK    5  A    between atoms: C_25  and  C_28
REMARK                            x       y       z     vdW  Elec       q    Type
REMARK                         _______ _______ _______ _____ _____    ______ ____
ROOT
ATOM      1  C   UNL     1      -2.420   1.336   2.974  0.00  0.00    +0.058 C 
ATOM      2  C   UNL     1      -2.999   2.733   2.731  0.00  0.00    +0.009 C 
ATOM      3  C   UNL     1      -3.754   3.188   3.983  0.00  0.00    -0.018 C 
ATOM      4  C   UNL     1      -4.850   2.172   4.310  0.00  0.00    -0.078 C 
ATOM      5  N   UNL     1      -4.245   0.853   4.534  0.00  0.00    +0.386 N 
ATOM      6  C   UNL     1      -3.554   0.373   3.331  0.00  0.00    -0.065 C 
ATOM      7  H   UNL     1      -3.495   0.960   5.331  0.00  0.00    -0.081 HD
ENDROOT
BRANCH   1   9
ATOM      8  N   UNL     1      -0.688   1.553   1.221  0.00  0.00    -0.308 N 
ATOM      9  C   UNL     1      -1.725   0.856   1.726  0.00  0.00    +0.215 C 
ATOM     10  O   UNL     1      -2.099  -0.159   1.177  0.00  0.00    -0.276 OA
ATOM     11  H   UNL     1      -0.349   2.473   1.720  0.00  0.00    +0.149 HD
BRANCH   8  21
ATOM     12  C   UNL     1      -2.263   2.448  -3.365  0.00  0.00    +0.000 A 
ATOM     13  C   UNL     1      -2.900   1.948  -2.244  0.00  0.00    +0.000 A 
ATOM     14  C   UNL     1      -2.153   1.516  -1.167  0.00  0.00    +0.006 A 
ATOM     15  C   UNL     1      -0.765   1.579  -1.200  0.00  0.00    -0.024 A 
ATOM     16  C   UNL     1      -0.132   2.080  -2.315  0.00  0.00    -0.042 A 
ATOM     17  C   UNL     1      -0.885   2.512  -3.398  0.00  0.00    +0.004 A 
ATOM     18  C   UNL     1       1.368   2.184  -2.417  0.00  0.00    +0.035 C 
ATOM     19  C   UNL     1       2.040   1.297  -1.371  0.00  0.00    +0.007 C 
ATOM     20  C   UNL     1       1.422   1.609  -0.003  0.00  0.00    +0.027 C 
ATOM     21  C   UNL     1      -0.013   1.086   0.008  0.00  0.00    +0.103 C 
ENDBRANCH   8  21
ENDBRANCH   1   9
BRANCH   5  22
ATOM     22  C   UNL     1      -5.251  -0.118   4.986  0.00  0.00    +0.022 C 
BRANCH  22  23
ATOM     23  C   UNL     1      -5.758   0.280   6.348  0.00  0.00    +0.211 A 
ATOM     24  N   UNL     1      -6.775   1.066   6.600  0.00  0.00    -0.193 NA
ATOM     25  C   UNL     1      -6.856   1.134   7.948  0.00  0.00    +0.203 A 
ATOM     26  N   UNL     1      -5.888   0.398   8.431  0.00  0.00    -0.056 NA
ATOM     27  O   UNL     1      -5.251  -0.097   7.526  0.00  0.00    -0.340 OA
BRANCH  25  28
ATOM     28  C   UNL     1      -7.853   1.902   8.733  0.00  0.00    +0.041 A 
ATOM     29  C   UNL     1      -8.830   2.652   8.080  0.00  0.00    +0.014 A 
ATOM     30  C   UNL     1      -9.758   3.361   8.815  0.00  0.00    +0.021 A 
ATOM     31  C   UNL     1      -9.714   3.338  10.199  0.00  0.00    +0.042 A 
ATOM     32  C   UNL     1      -8.743   2.601  10.853  0.00  0.00    +0.040 A 
ATOM     33  C   UNL     1      -7.812   1.883  10.127  0.00  0.00    +0.053 A 
ATOM     34 CL   UNL     1      -6.594   0.958  10.948  0.00  0.00    -0.083 Cl
ATOM     35 CL   UNL     1     -10.881   4.239  11.116  0.00  0.00    -0.083 Cl
ENDBRANCH  25  28
ENDBRANCH  22  23
ENDBRANCH   5  22
TORSDOF 5
