REMARK  Name = ZINC09088666
REMARK  2 active torsions:
REMARK  status: ('A' for Active; 'I' for Inactive)
REMARK    1  A    between atoms: C_3  and  C_6
REMARK    2  A    between atoms: C_11  and  C_19
REMARK                            x       y       z     vdW  Elec       q    Type
REMARK                         _______ _______ _______ _____ _____    ______ ____
ROOT
ATOM      1  C   UNL     1       3.599   0.625  -0.029  0.00  0.00    +0.068 C 
ATOM      2  C   UNL     1       4.109  -0.125   1.202  0.00  0.00    +0.063 C 
ATOM      3  C   UNL     1       5.618  -0.198   1.164  0.00  0.00    +0.020 C 
ATOM      4  C   UNL     1       6.281  -0.241  -0.011  0.00  0.00    +0.041 C 
ATOM      5  C   UNL     1       7.791  -0.313  -0.081  0.00  0.00    +0.175 C 
ATOM      6  N   UNL     1       8.335  -0.651   1.228  0.00  0.00    -0.221 N 
ATOM      7  C   UNL     1       7.611  -0.599   2.374  0.00  0.00    +0.218 A 
ATOM      8  N   UNL     1       8.390  -0.953   3.359  0.00  0.00    -0.201 NA
ATOM      9  C   UNL     1       9.607  -1.242   2.886  0.00  0.00    +0.247 A 
ATOM     10  N   UNL     1       9.615  -1.071   1.586  0.00  0.00    -0.156 NA
ATOM     11  N   UNL     1       6.278  -0.224   2.370  0.00  0.00    -0.287 N 
ATOM     12  C   UNL     1       5.585  -0.217  -1.233  0.00  0.00    +0.164 C 
ATOM     13  O   UNL     1       6.209  -0.281  -2.274  0.00  0.00    -0.292 OA
ATOM     14  C   UNL     1       4.086  -0.114  -1.281  0.00  0.00    +0.091 C 
ATOM     15  H   UNL     1       5.823   0.014   3.193  0.00  0.00    +0.155 HD
ENDROOT
BRANCH   5  16
ATOM     16  C   UNL     1       8.335   1.024  -0.515  0.00  0.00    -0.018 A 
ATOM     17  C   UNL     1       8.092   2.150   0.248  0.00  0.00    +0.007 A 
ATOM     18  C   UNL     1       8.591   3.376  -0.150  0.00  0.00    +0.020 A 
ATOM     19  C   UNL     1       9.333   3.476  -1.313  0.00  0.00    +0.041 A 
ATOM     20  C   UNL     1       9.576   2.348  -2.077  0.00  0.00    +0.020 A 
ATOM     21  C   UNL     1       9.082   1.122  -1.675  0.00  0.00    +0.007 A 
ATOM     22 CL   UNL     1       9.960   5.016  -1.814  0.00  0.00    -0.084 Cl
ENDBRANCH   5  16
BRANCH   1  25
ATOM     23  C   UNL     1      -0.016   1.341   0.009  0.00  0.00    +0.041 A 
ATOM     24  C   UNL     1       1.331   1.769  -0.001  0.00  0.00    +0.045 A 
ATOM     25  C   UNL     1       2.092   0.660  -0.014  0.00  0.00    +0.109 A 
ATOM     26  O   UNL     1       1.282  -0.411  -0.012  0.00  0.00    -0.468 OA
ATOM     27  C   UNL     1       0.002  -0.004   0.002  0.00  0.00    +0.195 A 
ENDBRANCH   1  25
TORSDOF 2
