REMARK  Name = ZINC36660451
REMARK  10 active torsions:
REMARK  status: ('A' for Active; 'I' for Inactive)
REMARK    1  A    between atoms: C_1  and  C_2
REMARK    2  A    between atoms: C_2  and  C_3
REMARK    3  A    between atoms: N_12  and  C_13
REMARK    4  A    between atoms: C_13  and  C_14
REMARK    5  A    between atoms: C_14  and  N_15
REMARK    6  A    between atoms: N_15  and  C_16
REMARK    7  A    between atoms: N_15  and  C_17
REMARK    8  A    between atoms: C_18  and  C_20
REMARK    9  A    between atoms: N_25  and  S_26
REMARK   10  A    between atoms: S_26  and  C_29
REMARK                            x       y       z     vdW  Elec       q    Type
REMARK                         _______ _______ _______ _____ _____    ______ ____
ROOT
ATOM      1  C   UNL     1      -2.005   0.436   1.135  0.00  0.00    -0.046 A 
ATOM      2  C   UNL     1      -2.878   0.228   2.193  0.00  0.00    +0.006 A 
ATOM      3  C   UNL     1      -4.093  -0.380   2.010  0.00  0.00    +0.029 A 
ATOM      4  C   UNL     1      -4.497  -0.818   0.728  0.00  0.00    +0.080 A 
ATOM      5  C   UNL     1      -3.582  -0.589  -0.326  0.00  0.00    +0.041 A 
ATOM      6  C   UNL     1      -2.370   0.026  -0.135  0.00  0.00    +0.021 A 
ATOM      7  S   UNL     1      -4.443  -1.263  -1.726  0.00  0.00    -0.052 S 
ATOM      8  C   UNL     1      -5.912  -1.789  -0.855  0.00  0.00    +0.168 A 
ATOM      9  N   UNL     1      -5.650  -1.428   0.379  0.00  0.00    -0.224 NA
ATOM     10  N   UNL     1      -7.041  -2.417  -1.355  0.00  0.00    -0.251 N 
ATOM     11  C   UNL     1      -7.182  -2.591  -2.684  0.00  0.00    +0.240 C 
ATOM     12  O   UNL     1      -8.206  -3.067  -3.128  0.00  0.00    -0.273 OA
ENDROOT
BRANCH  11  13
ATOM     13  C   UNL     1      -6.068  -2.196  -3.619  0.00  0.00    +0.166 C 
ATOM     14  C   UNL     1      -4.935  -3.242  -3.557  0.00  0.00    +0.031 C 
ATOM     15  C   UNL     1      -5.234  -4.151  -4.778  0.00  0.00    +0.019 C 
ATOM     16  C   UNL     1      -5.776  -3.125  -5.804  0.00  0.00    +0.110 C 
ATOM     17  N   UNL     1      -6.563  -2.165  -5.003  0.00  0.00    -0.165 NA
BRANCH  17  18
ATOM     18  S   UNL     1      -7.797  -1.215  -5.565  0.00  0.00    +0.062 S 
ATOM     19  O   UNL     1      -8.312  -1.860  -6.722  0.00  0.00    -0.153 OA
ATOM     20  O   UNL     1      -8.611  -0.900  -4.444  0.00  0.00    -0.153 OA
BRANCH  18  21
ATOM     21  C   UNL     1      -7.082   0.300  -6.110  0.00  0.00    +0.106 A 
ATOM     22  C   UNL     1      -6.940   1.354  -5.227  0.00  0.00    +0.030 A 
ATOM     23  C   UNL     1      -6.379   2.543  -5.654  0.00  0.00    +0.022 A 
ATOM     24  C   UNL     1      -5.959   2.678  -6.965  0.00  0.00    +0.041 A 
ATOM     25  C   UNL     1      -6.101   1.623  -7.849  0.00  0.00    +0.022 A 
ATOM     26  C   UNL     1      -6.657   0.432  -7.419  0.00  0.00    +0.030 A 
ATOM     27 CL   UNL     1      -5.254   4.171  -7.502  0.00  0.00    -0.084 Cl
ENDBRANCH  18  21
ENDBRANCH  17  18
ENDBRANCH  11  13
BRANCH   1  29
ATOM     28  C   UNL     1      -0.834   2.620   1.203  0.00  0.00    +0.009 C 
ATOM     29  C   UNL     1      -0.676   1.107   1.365  0.00  0.00    +0.032 C 
ENDBRANCH   1  29
BRANCH  10  30
ATOM     30  C   UNL     1      -8.082  -2.892  -0.440  0.00  0.00    +0.097 C 
BRANCH  30  31
ATOM     31  C   UNL     1      -9.110  -1.781  -0.216  0.00  0.00    -0.060 C 
BRANCH  31  32
ATOM     32  N   UNL     1     -10.086  -2.214   0.793  0.00  0.00    +0.377 N 
ATOM     33  C   UNL     1     -11.001  -1.106   1.096  0.00  0.00    -0.097 C 
ATOM     34  C   UNL     1     -10.853  -3.355   0.274  0.00  0.00    -0.097 C 
ATOM     35  H   UNL     1      -9.601  -2.490   1.634  0.00  0.00    -0.083 HD
ENDBRANCH  31  32
ENDBRANCH  30  31
ENDBRANCH  10  30
TORSDOF 7
