REMARK  Name = ZINC39726586
REMARK  9 active torsions:
REMARK  status: ('A' for Active; 'I' for Inactive)
REMARK    1  A    between atoms: C_1  and  C_2
REMARK    2  A    between atoms: C_2  and  C_4
REMARK    3  A    between atoms: C_2  and  N_33
REMARK    4  A    between atoms: C_8  and  S_17
REMARK    5  A    between atoms: N_9  and  C_10
REMARK    6  A    between atoms: S_17  and  C_18
REMARK    7  A    between atoms: C_18  and  C_19
REMARK    8  A    between atoms: N_33  and  C_34
REMARK    9  A    between atoms: N_33  and  C_35
REMARK                            x       y       z     vdW  Elec       q    Type
REMARK                         _______ _______ _______ _____ _____    ______ ____
ROOT
ATOM      1  C   UNL     1       0.660  -0.310   1.151  0.00  0.00    +0.168 C 
ATOM      2  N   UNL     1       2.015   0.246   1.314  0.00  0.00    -0.248 N 
ATOM      3  N   UNL     1       2.090   0.709   2.633  0.00  0.00    -0.162 NA
ATOM      4  C   UNL     1       0.985   0.510   3.268  0.00  0.00    +0.180 C 
ATOM      5  N   UNL     1       0.032  -0.110   2.468  0.00  0.00    -0.260 N 
ATOM      6  H   UNL     1       2.714   0.283   0.642  0.00  0.00    +0.170 HD
ENDROOT
BRANCH   5   7
ATOM      7  C   UNL     1      -1.268  -0.471   2.837  0.00  0.00    +0.038 A 
ATOM      8  C   UNL     1      -1.623  -1.812   2.911  0.00  0.00    +0.026 A 
ATOM      9  C   UNL     1      -2.906  -2.167   3.276  0.00  0.00    +0.040 A 
ATOM     10  C   UNL     1      -3.840  -1.186   3.569  0.00  0.00    +0.124 A 
ATOM     11  C   UNL     1      -3.489   0.151   3.496  0.00  0.00    +0.040 A 
ATOM     12  C   UNL     1      -2.204   0.510   3.137  0.00  0.00    +0.026 A 
ATOM     13  F   UNL     1      -5.095  -1.536   3.926  0.00  0.00    -0.205 F 
ENDBRANCH   5   7
BRANCH   1  15
ATOM     14  C   UNL     1      -0.039   1.954   0.358  0.00  0.00    -0.010 C 
ATOM     15  C   UNL     1      -0.106   0.453   0.069  0.00  0.00    -0.032 C 
BRANCH  15  16
ATOM     16  N   UNL     1       0.496   0.180  -1.243  0.00  0.00    +0.380 N 
ATOM     17  C   UNL     1       0.432  -1.261  -1.521  0.00  0.00    -0.096 C 
ATOM     18  C   UNL     1      -0.239   0.912  -2.282  0.00  0.00    -0.096 C 
ATOM     19  H   UNL     1       1.460   0.479  -1.239  0.00  0.00    -0.082 HD
ENDBRANCH  15  16
ENDBRANCH   1  15
BRANCH   4  20
ATOM     20  S   UNL     1       0.717   0.965   4.949  0.00  0.00    -0.081 S 
BRANCH  20  21
ATOM     21  C   UNL     1       2.288   1.715   5.457  0.00  0.00    +0.150 C 
BRANCH  21  22
ATOM     22  C   UNL     1       2.193   2.155   6.895  0.00  0.00    +0.134 C 
ATOM     23  N   UNL     1       1.069   1.944   7.537  0.00  0.00    -0.160 NA
ATOM     24  C   UNL     1       0.886   2.304   8.812  0.00  0.00    +0.271 C 
ATOM     25  O   UNL     1      -0.170   2.086   9.380  0.00  0.00    -0.268 OA
ATOM     26  C   UNL     1       2.016   2.982   9.520  0.00  0.00    +0.071 C 
ATOM     27  C   UNL     1       2.024   3.536  10.745  0.00  0.00    -0.042 C 
ATOM     28  C   UNL     1       1.075   4.032  11.833  0.00  0.00    +0.033 C 
ATOM     29  C   UNL     1       1.744   5.285  12.437  0.00  0.00    +0.006 C 
ATOM     30  C   UNL     1       3.124   5.406  11.741  0.00  0.00    +0.019 C 
ATOM     31  C   UNL     1       3.392   3.960  11.283  0.00  0.00    +0.079 C 
ATOM     32  S   UNL     1       4.413   3.919   9.767  0.00  0.00    -0.097 S 
ATOM     33  C   UNL     1       3.232   3.143   8.692  0.00  0.00    +0.111 C 
ATOM     34  N   UNL     1       3.251   2.729   7.447  0.00  0.00    -0.227 NA
ENDBRANCH  21  22
ENDBRANCH  20  21
ENDBRANCH   4  20
TORSDOF 6
