REMARK  Name = ZINC00918578
REMARK  12 active torsions:
REMARK  status: ('A' for Active; 'I' for Inactive)
REMARK    1  A    between atoms: C_1  and  C_2
REMARK    2  A    between atoms: C_2  and  O_3
REMARK    3  A    between atoms: O_3  and  C_4
REMARK    4  A    between atoms: C_11  and  C_16
REMARK    5  A    between atoms: C_16  and  N_17
REMARK    6  A    between atoms: N_17  and  C_18
REMARK    7  A    between atoms: N_17  and  S_27
REMARK    8  A    between atoms: C_18  and  C_19
REMARK    9  A    between atoms: C_22  and  O_25
REMARK   10  A    between atoms: O_25  and  C_26
REMARK   11  A    between atoms: S_27  and  C_30
REMARK   12  A    between atoms: C_35  and  N_36
REMARK                            x       y       z     vdW  Elec       q    Type
REMARK                         _______ _______ _______ _____ _____    ______ ____
ROOT
ATOM      1  N   UNL     1      -0.936   1.631  -1.505  0.00  0.00    -0.168 NA
ENDROOT
BRANCH   1   2
ATOM      2  S   UNL     1      -0.471   3.096  -2.120  0.00  0.00    +0.064 S 
ATOM      3  O   UNL     1      -1.657   3.753  -2.545  0.00  0.00    -0.153 OA
ATOM      4  O   UNL     1       0.420   3.670  -1.173  0.00  0.00    -0.153 OA
BRANCH   2   5
ATOM      5  C   UNL     1       0.475   2.776  -3.572  0.00  0.00    +0.136 A 
ATOM      6  C   UNL     1       0.688   1.474  -3.985  0.00  0.00    +0.031 A 
ATOM      7  C   UNL     1       1.425   1.223  -5.126  0.00  0.00    +0.002 A 
ATOM      8  C   UNL     1       1.960   2.273  -5.849  0.00  0.00    +0.002 A 
ATOM      9  C   UNL     1       1.751   3.575  -5.433  0.00  0.00    +0.035 A 
ATOM     10  C   UNL     1       1.009   3.826  -4.295  0.00  0.00    +0.152 A 
BRANCH  10  11
ATOM     11  N   UNL     1       0.786   5.220  -3.849  0.00  0.00    +0.058 N 
ATOM     12  O   UNL     1       1.240   6.146  -4.497  0.00  0.00    -0.126 OA
ATOM     13  O   UNL     1       0.149   5.441  -2.834  0.00  0.00    -0.126 OA
ENDBRANCH  10  11
ENDBRANCH   2   5
ENDBRANCH   1   2
BRANCH   1  14
ATOM     14  C   UNL     1      -2.117   0.952  -2.044  0.00  0.00    +0.150 C 
BRANCH  14  22
ATOM     15  C   UNL     1      -7.261   3.828  -0.123  0.00  0.00    +0.121 A 
ATOM     16  C   UNL     1      -7.462   3.038   1.006  0.00  0.00    +0.047 A 
ATOM     17  C   UNL     1      -6.593   2.014   1.310  0.00  0.00    +0.030 A 
ATOM     18  C   UNL     1      -5.502   1.761   0.484  0.00  0.00    +0.049 A 
ATOM     19  C   UNL     1      -5.295   2.557  -0.657  0.00  0.00    +0.002 A 
ATOM     20  C   UNL     1      -6.185   3.595  -0.955  0.00  0.00    +0.055 A 
ATOM     21  C   UNL     1      -4.139   2.284  -1.514  0.00  0.00    +0.020 A 
ATOM     22  C   UNL     1      -3.312   1.262  -1.181  0.00  0.00    +0.033 A 
ATOM     23  C   UNL     1      -3.564   0.493  -0.025  0.00  0.00    +0.254 A 
ATOM     24  O   UNL     1      -2.805  -0.418   0.259  0.00  0.00    -0.268 OA
ATOM     25  N   UNL     1      -4.619   0.739   0.771  0.00  0.00    -0.322 N 
ATOM     26  H   UNL     1      -4.767   0.173   1.582  0.00  0.00    +0.169 HD
BRANCH  15  27
ATOM     27  O   UNL     1      -8.129   4.836  -0.406  0.00  0.00    -0.492 OA
BRANCH  27  29
ATOM     28  C   UNL     1     -10.083   6.193   0.015  0.00  0.00    +0.048 C 
ATOM     29  C   UNL     1      -9.222   5.024   0.495  0.00  0.00    +0.225 C 
ENDBRANCH  27  29
ENDBRANCH  15  27
ENDBRANCH  14  22
ENDBRANCH   1  14
BRANCH   1  30
ATOM     30  C   UNL     1      -0.166   1.013  -0.423  0.00  0.00    +0.145 C 
BRANCH  30  31
ATOM     31  C   UNL     1       0.796   0.007  -1.001  0.00  0.00    -0.031 A 
ATOM     32  C   UNL     1       0.372  -1.283  -1.261  0.00  0.00    +0.008 A 
ATOM     33  C   UNL     1       1.250  -2.205  -1.796  0.00  0.00    +0.046 A 
ATOM     34  C   UNL     1       2.562  -1.839  -2.062  0.00  0.00    +0.120 A 
ATOM     35  C   UNL     1       2.986  -0.546  -1.794  0.00  0.00    +0.046 A 
ATOM     36  C   UNL     1       2.103   0.374  -1.264  0.00  0.00    +0.008 A 
BRANCH  34  37
ATOM     37  O   UNL     1       3.429  -2.746  -2.583  0.00  0.00    -0.495 OA
ATOM     38  C   UNL     1       2.922  -4.059  -2.833  0.00  0.00    +0.277 C 
ENDBRANCH  34  37
ENDBRANCH  30  31
ENDBRANCH   1  30
TORSDOF 10
