REMARK  Name = ZINC65735103
REMARK  9 active torsions:
REMARK  status: ('A' for Active; 'I' for Inactive)
REMARK    1  A    between atoms: C_3  and  O_13
REMARK    2  A    between atoms: C_4  and  O_12
REMARK    3  A    between atoms: C_6  and  C_7
REMARK    4  A    between atoms: C_8  and  C_9
REMARK    5  A    between atoms: O_13  and  C_14
REMARK    6  A    between atoms: C_16  and  O_30
REMARK    7  A    between atoms: C_18  and  O_29
REMARK    8  A    between atoms: C_20  and  O_28
REMARK    9  A    between atoms: C_22  and  C_25
REMARK                            x       y       z     vdW  Elec       q    Type
REMARK                         _______ _______ _______ _____ _____    ______ ____
ROOT
ATOM      1  C   UNL     1       3.444   3.551  -0.013  0.00  0.00    +0.340 C 
ATOM      2  C   UNL     1       4.823   4.161  -0.275  0.00  0.00    +0.214 C 
ATOM      3  C   UNL     1       4.719   5.688  -0.204  0.00  0.00    +0.180 C 
ATOM      4  C   UNL     1       4.155   6.088   1.163  0.00  0.00    +0.186 C 
ATOM      5  C   UNL     1       2.801   5.403   1.368  0.00  0.00    +0.266 C 
ATOM      6  O   UNL     1       2.964   3.987   1.260  0.00  0.00    -0.322 OA
ENDROOT
BRANCH   5   7
ATOM      7  C   UNL     1       2.268   5.745   2.735  0.00  0.00    +0.387 C 
ATOM      8  O   UNL     1       1.971   6.897   3.003  0.00  0.00    -0.243 OA
ATOM      9  O   UNL     1       2.132   4.870   3.573  0.00  0.00    -0.243 OA
ENDBRANCH   5   7
BRANCH   4  10
ATOM     10  O   UNL     1       5.060   5.679   2.190  0.00  0.00    -0.386 OA
ATOM     11  H   UNL     1       4.766   5.901   3.084  0.00  0.00    +0.210 HD
ENDBRANCH   4  10
BRANCH   3  12
ATOM     12  O   UNL     1       6.015   6.264  -0.376  0.00  0.00    -0.386 OA
ATOM     13  H   UNL     1       6.024   7.230  -0.343  0.00  0.00    +0.210 HD
ENDBRANCH   3  12
BRANCH   2  14
ATOM     14  O   UNL     1       5.280   3.772  -1.571  0.00  0.00    -0.383 OA
ATOM     15  H   UNL     1       5.365   2.815  -1.687  0.00  0.00    +0.210 HD
ENDBRANCH   2  14
BRANCH   1  16
ATOM     16  O   UNL     1       3.544   2.125  -0.022  0.00  0.00    -0.457 OA
BRANCH  16  19
ATOM     17  C   UNL     1      -0.017   1.396   0.010  0.00  0.00    +0.012 A 
ATOM     18  C   UNL     1       1.167   2.100   0.002  0.00  0.00    +0.050 A 
ATOM     19  C   UNL     1       2.380   1.425  -0.013  0.00  0.00    +0.165 A 
ATOM     20  C   UNL     1       2.408   0.030  -0.021  0.00  0.00    +0.159 A 
ATOM     21  C   UNL     1       1.227  -0.684  -0.014  0.00  0.00    +0.057 A 
ATOM     22  C   UNL     1       0.002  -0.004   0.002  0.00  0.00    -0.021 A 
BRANCH  22  23
ATOM     23  C   UNL     1      -1.258  -0.758   0.011  0.00  0.00    +0.015 C 
ATOM     24  C   UNL     1      -2.441  -0.099   0.026  0.00  0.00    +0.096 C 
BRANCH  24  25
ATOM     25  C   UNL     1      -3.654  -0.825   0.034  0.00  0.00    +0.380 C 
ATOM     26  O   UNL     1      -3.635  -2.050   0.027  0.00  0.00    -0.241 OA
ATOM     27  O   UNL     1      -4.724  -0.228   0.048  0.00  0.00    -0.241 OA
ENDBRANCH  24  25
ENDBRANCH  22  23
BRANCH  20  28
ATOM     28  O   UNL     1       3.599  -0.626  -0.037  0.00  0.00    -0.503 OA
ATOM     29  H   UNL     1       3.952  -0.820   0.842  0.00  0.00    +0.292 HD
ENDBRANCH  20  28
ENDBRANCH  16  19
ENDBRANCH   1  16
TORSDOF 9
