REMARK  Name = ZINC64058386
REMARK  4 active torsions:
REMARK  status: ('A' for Active; 'I' for Inactive)
REMARK    1  A    between atoms: C_8  and  C_16
REMARK    2  A    between atoms: N_18  and  C_19
REMARK    3  A    between atoms: C_19  and  C_20
REMARK    4  A    between atoms: C_25  and  C_31
REMARK                            x       y       z     vdW  Elec       q    Type
REMARK                         _______ _______ _______ _____ _____    ______ ____
ROOT
ATOM      1  C   UNL     1       5.140  -3.111  -0.996  0.00  0.00    +0.219 C 
ATOM      2  O   UNL     1       5.743  -2.639  -0.055  0.00  0.00    -0.275 OA
ATOM      3  N   UNL     1       5.798  -3.833  -1.924  0.00  0.00    -0.311 N 
ATOM      4  H   UNL     1       5.316  -4.210  -2.677  0.00  0.00    +0.149 HD
ENDROOT
BRANCH   1  11
ATOM      5  C   UNL     1      -0.016   1.347   0.009  0.00  0.00    +0.001 A 
ATOM      6  C   UNL     1       1.165   2.101   0.002  0.00  0.00    +0.002 A 
ATOM      7  C   UNL     1       2.390   1.534  -0.009  0.00  0.00    +0.026 A 
ATOM      8  C   UNL     1       2.530   0.120  -0.014  0.00  0.00    +0.043 A 
ATOM      9  N   UNL     1       3.592  -0.653  -0.047  0.00  0.00    -0.377 N 
ATOM     10  C   UNL     1       3.156  -2.044   0.048  0.00  0.00    +0.118 C 
ATOM     11  C   UNL     1       3.655  -2.889  -1.127  0.00  0.00    +0.101 C 
ATOM     12  C   UNL     1       2.925  -4.236  -1.102  0.00  0.00    +0.015 C 
ATOM     13  C   UNL     1       1.430  -4.058  -1.357  0.00  0.00    +0.005 C 
ATOM     14  C   UNL     1       0.797  -3.238  -0.219  0.00  0.00    +0.033 C 
ATOM     15  C   UNL     1       1.639  -1.997  -0.033  0.00  0.00    -0.038 C 
ATOM     16  C   UNL     1       1.294  -0.702  -0.015  0.00  0.00    -0.001 A 
ATOM     17  C   UNL     1       0.002  -0.004   0.002  0.00  0.00    +0.010 A 
ATOM     18  H   UNL     1       4.511  -0.351  -0.121  0.00  0.00    +0.160 HD
ENDBRANCH   1  11
BRANCH   3  19
ATOM     19  C   UNL     1       7.241  -4.049  -1.797  0.00  0.00    +0.149 C 
BRANCH  19  20
ATOM     20  C   UNL     1       7.737  -4.894  -2.972  0.00  0.00    +0.195 C 
ATOM     21  C   UNL     1       9.248  -5.192  -2.834  0.00  0.00    +0.085 C 
ATOM     22  C   UNL     1       9.711  -5.138  -4.277  0.00  0.00    -0.000 A 
ATOM     23  C   UNL     1      10.862  -5.573  -4.892  0.00  0.00    +0.016 A 
ATOM     24  C   UNL     1      11.025  -5.397  -6.266  0.00  0.00    -0.013 A 
ATOM     25  C   UNL     1      10.017  -4.781  -7.004  0.00  0.00    +0.032 A 
ATOM     26  C   UNL     1       8.868  -4.345  -6.380  0.00  0.00    +0.083 A 
ATOM     27  C   UNL     1       8.704  -4.516  -5.005  0.00  0.00    +0.143 A 
ATOM     28  O   UNL     1       7.666  -4.150  -4.200  0.00  0.00    -0.485 OA
ATOM     29 CL   UNL     1       7.618  -3.579  -7.309  0.00  0.00    -0.080 Cl
BRANCH  24  30
ATOM     30  C   UNL     1      12.264  -5.862  -6.937  0.00  0.00    +0.018 A 
ATOM     31  C   UNL     1      13.282  -6.487  -6.212  0.00  0.00    +0.122 A 
ATOM     32  N   UNL     1      14.369  -6.887  -6.849  0.00  0.00    -0.243 NA
ATOM     33  C   UNL     1      14.500  -6.703  -8.148  0.00  0.00    +0.221 A 
ATOM     34  N   UNL     1      13.564  -6.119  -8.869  0.00  0.00    -0.243 NA
ATOM     35  C   UNL     1      12.443  -5.694  -8.312  0.00  0.00    +0.122 A 
ENDBRANCH  24  30
ENDBRANCH  19  20
ENDBRANCH   3  19
TORSDOF 4
