REMARK  Name = ZINC44019670
REMARK  3 active torsions:
REMARK  status: ('A' for Active; 'I' for Inactive)
REMARK    1  A    between atoms: C_1  and  C_2
REMARK    2  A    between atoms: C_5  and  N_8
REMARK    3  A    between atoms: C_12  and  N_17
REMARK                            x       y       z     vdW  Elec       q    Type
REMARK                         _______ _______ _______ _____ _____    ______ ____
ROOT
ATOM      1  N   UNL     1       0.055  -4.172  -0.021  0.00  0.00    -0.229 N 
ATOM      2  C   UNL     1       0.024  -4.834  -1.194  0.00  0.00    +0.263 A 
ATOM      3  O   UNL     1      -0.022  -4.217  -2.245  0.00  0.00    -0.267 OA
ATOM      4  C   UNL     1       0.043  -6.237  -1.199  0.00  0.00    +0.112 A 
ATOM      5  C   UNL     1       0.095  -6.905  -0.007  0.00  0.00    +0.112 A 
ATOM      6  N   UNL     1       0.126  -6.190   1.166  0.00  0.00    -0.295 N 
ATOM      7  H   UNL     1       0.163  -6.657   2.015  0.00  0.00    +0.172 HD
ATOM      8  C   UNL     1       0.111  -4.844   1.143  0.00  0.00    +0.335 A 
ATOM      9  O   UNL     1       0.144  -4.227   2.190  0.00  0.00    -0.246 OA
ENDROOT
BRANCH   5  10
ATOM     10  N   UNL     1       0.115  -8.277   0.017  0.00  0.00    -0.286 N 
ATOM     11  C   UNL     1       1.391  -9.005   0.036  0.00  0.00    +0.113 C 
ATOM     12  C   UNL     1       1.287 -10.159  -0.970  0.00  0.00    +0.024 C 
ATOM     13  C   UNL     1       0.192 -11.120  -0.508  0.00  0.00    +0.038 C 
ATOM     14  C   UNL     1      -1.083 -10.370  -0.225  0.00  0.00    -0.026 A 
ATOM     15  C   UNL     1      -1.081  -9.007   0.031  0.00  0.00    +0.038 A 
ATOM     16  C   UNL     1      -2.274  -8.346   0.298  0.00  0.00    +0.024 A 
ATOM     17  C   UNL     1      -3.464  -9.046   0.313  0.00  0.00    +0.002 A 
ATOM     18  C   UNL     1      -3.466 -10.406   0.061  0.00  0.00    +0.000 A 
ATOM     19  C   UNL     1      -2.280 -11.065  -0.215  0.00  0.00    +0.005 A 
ENDBRANCH   5  10
BRANCH   1  24
ATOM     20  C   UNL     1      -0.025   1.503   0.008  0.00  0.00    +0.044 C 
ATOM     21  C   UNL     1      -0.004  -0.004   0.001  0.00  0.00    -0.050 A 
ATOM     22  C   UNL     1       1.204  -0.677  -0.048  0.00  0.00    +0.005 A 
ATOM     23  C   UNL     1       1.226  -2.058  -0.055  0.00  0.00    +0.026 A 
ATOM     24  C   UNL     1       0.035  -2.771  -0.013  0.00  0.00    +0.054 A 
ATOM     25  C   UNL     1      -1.175  -2.092   0.037  0.00  0.00    +0.026 A 
ATOM     26  C   UNL     1      -1.191  -0.711   0.049  0.00  0.00    +0.005 A 
ENDBRANCH   1  24
TORSDOF 2
