REMARK  Name = ZINC03670502
REMARK  8 active torsions:
REMARK  status: ('A' for Active; 'I' for Inactive)
REMARK    1  A    between atoms: C_1  and  C_2
REMARK    2  A    between atoms: C_2  and  O_3
REMARK    3  A    between atoms: O_3  and  C_4
REMARK    4  A    between atoms: C_7  and  N_10
REMARK    5  A    between atoms: C_20  and  C_21
REMARK    6  A    between atoms: C_20  and  O_32
REMARK    7  A    between atoms: N_23  and  C_24
REMARK    8  A    between atoms: C_24  and  C_25
REMARK                            x       y       z     vdW  Elec       q    Type
REMARK                         _______ _______ _______ _____ _____    ______ ____
ROOT
ATOM      1  N   UNL     1      -1.202  -0.722   0.010  0.00  0.00    -0.214 N 
ATOM      2  C   UNL     1      -2.377  -0.078   0.132  0.00  0.00    +0.314 C 
ATOM      3  O   UNL     1      -2.367   1.133   0.234  0.00  0.00    -0.252 OA
ATOM      4  N   UNL     1      -3.558  -0.710   0.140  0.00  0.00    -0.269 N 
ATOM      5  C   UNL     1      -3.679  -2.096   0.035  0.00  0.00    +0.043 A 
ATOM      6  C   UNL     1      -4.927  -2.703   0.054  0.00  0.00    +0.025 A 
ATOM      7  C   UNL     1      -5.026  -4.076  -0.051  0.00  0.00    +0.017 A 
ATOM      8  C   UNL     1      -3.887  -4.851  -0.176  0.00  0.00    +0.018 A 
ATOM      9  C   UNL     1      -2.639  -4.251  -0.196  0.00  0.00    +0.025 A 
ATOM     10  C   UNL     1      -2.538  -2.882  -0.091  0.00  0.00    +0.034 A 
ATOM     11  C   UNL     1      -1.196  -2.189  -0.108  0.00  0.00    +0.247 C 
ATOM     12 BR   UNL     1      -4.033  -6.731  -0.320  0.00  0.00    -0.050 Br
ATOM     13  H   UNL     1      -4.366  -0.180   0.227  0.00  0.00    +0.156 HD
ENDROOT
BRANCH   1  17
ATOM     14  C   UNL     1       2.381   1.412  -0.014  0.00  0.00    +0.121 A 
ATOM     15  C   UNL     1       1.914   0.855   1.167  0.00  0.00    +0.047 A 
ATOM     16  C   UNL     1       0.728   0.148   1.176  0.00  0.00    +0.027 A 
ATOM     17  C   UNL     1       0.002  -0.004   0.002  0.00  0.00    +0.042 A 
ATOM     18  C   UNL     1       0.470   0.555  -1.180  0.00  0.00    +0.027 A 
ATOM     19  C   UNL     1       1.656   1.261  -1.187  0.00  0.00    +0.047 A 
BRANCH  14  20
ATOM     20  O   UNL     1       3.549   2.108  -0.022  0.00  0.00    -0.492 OA
BRANCH  20  22
ATOM     21  C   UNL     1       5.525   3.034   1.016  0.00  0.00    +0.048 C 
ATOM     22  C   UNL     1       4.244   2.224   1.221  0.00  0.00    +0.225 C 
ENDBRANCH  20  22
ENDBRANCH  14  20
ENDBRANCH   1  17
BRANCH  11  23
ATOM     23  C   UNL     1      -0.504  -2.549  -1.399  0.00  0.00    +0.269 C 
ATOM     24  O   UNL     1       0.441  -3.308  -1.389  0.00  0.00    -0.270 OA
ATOM     25  N   UNL     1      -0.936  -2.026  -2.563  0.00  0.00    -0.307 N 
ATOM     26  H   UNL     1      -1.693  -1.419  -2.571  0.00  0.00    +0.149 HD
BRANCH  25  27
ATOM     27  C   UNL     1      -0.264  -2.375  -3.817  0.00  0.00    +0.139 C 
BRANCH  27  28
ATOM     28  C   UNL     1      -0.936  -1.663  -4.963  0.00  0.00    -0.030 A 
ATOM     29  C   UNL     1      -1.985  -2.267  -5.631  0.00  0.00    +0.008 A 
ATOM     30  C   UNL     1      -2.606  -1.613  -6.678  0.00  0.00    +0.038 A 
ATOM     31  C   UNL     1      -2.170  -0.356  -7.064  0.00  0.00    +0.123 A 
ATOM     32  C   UNL     1      -1.117   0.245  -6.397  0.00  0.00    +0.038 A 
ATOM     33  C   UNL     1      -0.501  -0.409  -5.347  0.00  0.00    +0.008 A 
ATOM     34  F   UNL     1      -2.773   0.282  -8.091  0.00  0.00    -0.205 F 
ENDBRANCH  27  28
ENDBRANCH  25  27
ENDBRANCH  11  23
BRANCH  11  35
ATOM     35  O   UNL     1      -0.415  -2.715   0.967  0.00  0.00    -0.360 OA
ATOM     36  H   UNL     1      -0.353  -3.680   0.972  0.00  0.00    +0.213 HD
ENDBRANCH  11  35
TORSDOF 7
