REMARK  Name = ZINC17289533
REMARK  1 active torsions:
REMARK  status: ('A' for Active; 'I' for Inactive)
REMARK    1  A    between atoms: C_8  and  S_10
REMARK                            x       y       z     vdW  Elec       q    Type
REMARK                         _______ _______ _______ _____ _____    ______ ____
ROOT
ATOM      1  C   UNL     1      -0.017   1.382   0.010  0.00  0.00    +0.144 A 
ATOM      2  C   UNL     1       0.002  -0.004   0.002  0.00  0.00    +0.130 A 
ATOM      3  C   UNL     1       1.248  -0.663  -0.013  0.00  0.00    +0.185 A 
ATOM      4  N   UNL     1       2.360   0.073  -0.020  0.00  0.00    -0.214 NA
ATOM      5  C   UNL     1       2.288   1.386  -0.012  0.00  0.00    +0.223 A 
ATOM      6  N   UNL     1       1.136   2.033   0.002  0.00  0.00    -0.241 NA
ATOM      7  N   UNL     1       0.989  -1.984  -0.018  0.00  0.00    -0.188 NA
ATOM      8  C   UNL     1      -0.300  -2.182  -0.007  0.00  0.00    +0.305 A 
ATOM      9  N   UNL     1      -0.954  -0.998   0.006  0.00  0.00    -0.205 NA
ENDROOT
BRANCH   8  10
ATOM     10  S   UNL     1      -1.077  -3.763  -0.008  0.00  0.00    +0.175 S 
ATOM     11  O   UNL     1      -0.134  -4.680   0.529  0.00  0.00    -0.137 OA
ATOM     12  O   UNL     1      -2.369  -3.581   0.555  0.00  0.00    -0.137 OA
ATOM     13  O   UNL     1      -1.289  -4.159  -1.463  0.00  0.00    -0.040 OA
ENDBRANCH   8  10
TORSDOF 1
