REMARK  Name = ZINC14460788
REMARK  5 active torsions:
REMARK  status: ('A' for Active; 'I' for Inactive)
REMARK    1  A    between atoms: C_1  and  C_2
REMARK    2  A    between atoms: N_4  and  C_5
REMARK    3  A    between atoms: N_4  and  C_6
REMARK    4  A    between atoms: C_19  and  C_22
REMARK    5  A    between atoms: C_27  and  O_28
REMARK                            x       y       z     vdW  Elec       q    Type
REMARK                         _______ _______ _______ _____ _____    ______ ____
ROOT
ATOM      1  C   UNL     1      -3.869   5.322   2.026  0.00  0.00    +0.036 A 
ATOM      2  C   UNL     1      -3.073   6.176   2.777  0.00  0.00    +0.025 A 
ATOM      3  C   UNL     1      -1.766   5.827   3.050  0.00  0.00    +0.025 A 
ATOM      4  C   UNL     1      -1.252   4.626   2.574  0.00  0.00    +0.031 A 
ATOM      5  C   UNL     1      -2.041   3.769   1.823  0.00  0.00    -0.018 A 
ATOM      6  C   UNL     1      -3.355   4.125   1.553  0.00  0.00    +0.029 A 
ATOM      7  C   UNL     1      -1.527   2.470   1.288  0.00  0.00    +0.049 C 
ATOM      8  C   UNL     1      -2.069   1.296   2.070  0.00  0.00    -0.023 C 
ATOM      9  C   UNL     1      -1.155   0.362   2.177  0.00  0.00    -0.030 C 
ATOM     10  C   UNL     1       0.118   0.781   1.468  0.00  0.00    +0.033 C 
ATOM     11  C   UNL     1       0.004   2.333   1.406  0.00  0.00    +0.029 C 
ATOM     12  C   UNL     1       0.476   2.880   2.756  0.00  0.00    +0.108 C 
ATOM     13  N   UNL     1       0.077   4.288   2.863  0.00  0.00    -0.336 N 
ATOM     14  H   UNL     1       0.717   4.967   3.128  0.00  0.00    +0.147 HD
ENDROOT
BRANCH  12  15
ATOM     15  C   UNL     1      -0.158   2.089   3.871  0.00  0.00    +0.015 A 
ATOM     16  C   UNL     1      -1.381   2.476   4.384  0.00  0.00    +0.024 A 
ATOM     17  C   UNL     1      -1.964   1.751   5.408  0.00  0.00    +0.018 A 
ATOM     18  C   UNL     1      -1.323   0.636   5.920  0.00  0.00    +0.019 A 
ATOM     19  C   UNL     1      -0.101   0.246   5.410  0.00  0.00    +0.047 A 
ATOM     20  C   UNL     1       0.483   0.969   4.380  0.00  0.00    +0.122 A 
ATOM     21 BR   UNL     1      -3.638   2.282   6.108  0.00  0.00    -0.050 Br
BRANCH  20  22
ATOM     22  O   UNL     1       1.683   0.584   3.872  0.00  0.00    -0.506 OA
ATOM     23  H   UNL     1       2.445   0.978   4.319  0.00  0.00    +0.292 HD
ENDBRANCH  20  22
ENDBRANCH  12  15
BRANCH   1  27
ATOM     24  C   UNL     1      -6.901   6.837   0.385  0.00  0.00    +0.109 C 
ATOM     25  C   UNL     1      -5.491   6.364   0.629  0.00  0.00    +0.216 C 
ATOM     26  O   UNL     1      -4.621   6.607  -0.180  0.00  0.00    -0.276 OA
ATOM     27  N   UNL     1      -5.198   5.670   1.746  0.00  0.00    -0.275 N 
ATOM     28  C   UNL     1      -6.267   5.280   2.668  0.00  0.00    +0.138 C 
ENDBRANCH   1  27
TORSDOF 3
