REMARK  Name = ZINC10100388
REMARK  15 active torsions:
REMARK  status: ('A' for Active; 'I' for Inactive)
REMARK    1  A    between atoms: C_1  and  C_2
REMARK    2  A    between atoms: C_7  and  C_8
REMARK    3  A    between atoms: N_12  and  C_13
REMARK    4  A    between atoms: C_13  and  C_14
REMARK    5  A    between atoms: C_14  and  C_15
REMARK    6  A    between atoms: C_15  and  N_68
REMARK    7  A    between atoms: C_16  and  N_68
REMARK    8  A    between atoms: C_17  and  N_68
REMARK    9  A    between atoms: C_18  and  C_20
REMARK   10  A    between atoms: C_23  and  S_26
REMARK   11  A    between atoms: S_26  and  N_29
REMARK   12  A    between atoms: N_29  and  C_30
REMARK   13  A    between atoms: N_29  and  C_31
REMARK   14  A    between atoms: C_31  and  C_32
REMARK   15  A    between atoms: C_31  and  C_33
REMARK                            x       y       z     vdW  Elec       q    Type
REMARK                         _______ _______ _______ _____ _____    ______ ____
ROOT
ATOM      1  C   UNL     1       0.099  -4.872   6.658  0.00  0.00    +0.044 C 
ATOM      2  C   UNL     1      -0.577  -4.069   5.576  0.00  0.00    -0.045 A 
ATOM      3  C   UNL     1      -1.681  -4.602   4.926  0.00  0.00    +0.005 A 
ATOM      4  C   UNL     1      -2.303  -3.868   3.933  0.00  0.00    +0.017 A 
ATOM      5  C   UNL     1      -1.819  -2.626   3.606  0.00  0.00    +0.041 A 
ATOM      6  C   UNL     1      -0.696  -2.051   4.245  0.00  0.00    +0.083 A 
ATOM      7  C   UNL     1      -0.087  -2.831   5.255  0.00  0.00    -0.021 A 
ATOM      8  C   UNL     1       1.116  -2.293   5.988  0.00  0.00    +0.046 C 
ATOM      9  N   UNL     1      -0.338  -0.825   3.808  0.00  0.00    -0.224 NA
ATOM     10  C   UNL     1      -0.991  -0.196   2.858  0.00  0.00    +0.168 A 
ATOM     11  S   UNL     1      -2.275  -1.366   2.439  0.00  0.00    -0.052 S 
ATOM     12  N   UNL     1      -0.745   1.054   2.316  0.00  0.00    -0.246 N 
ATOM     13  C   UNL     1       0.285   1.795   2.772  0.00  0.00    +0.252 C 
ATOM     14  O   UNL     1       1.065   1.322   3.575  0.00  0.00    -0.270 OA
ENDROOT
BRANCH  13  15
ATOM     15  C   UNL     1       0.464   3.183   2.296  0.00  0.00    +0.037 A 
ATOM     16  C   UNL     1       0.375   3.473   0.933  0.00  0.00    +0.015 A 
ATOM     17  C   UNL     1       0.537   4.772   0.496  0.00  0.00    +0.029 A 
ATOM     18  C   UNL     1       0.800   5.783   1.404  0.00  0.00    +0.106 A 
ATOM     19  C   UNL     1       0.895   5.500   2.755  0.00  0.00    +0.029 A 
ATOM     20  C   UNL     1       0.729   4.207   3.206  0.00  0.00    +0.015 A 
BRANCH  18  21
ATOM     21  S   UNL     1       1.013   7.437   0.836  0.00  0.00    +0.061 S 
ATOM     22  O   UNL     1       0.336   7.529  -0.410  0.00  0.00    -0.153 OA
ATOM     23  O   UNL     1       0.707   8.286   1.934  0.00  0.00    -0.153 OA
BRANCH  21  24
ATOM     24  N   UNL     1       2.625   7.641   0.515  0.00  0.00    -0.177 NA
ATOM     25  C   UNL     1       3.527   8.116   1.567  0.00  0.00    +0.132 C 
BRANCH  24  26
ATOM     26  C   UNL     1       3.149   7.345  -0.821  0.00  0.00    +0.073 C 
ATOM     27  C   UNL     1       3.775   8.609  -1.414  0.00  0.00    +0.025 C 
ATOM     28  C   UNL     1       4.211   6.248  -0.721  0.00  0.00    +0.025 C 
ENDBRANCH  24  26
ENDBRANCH  21  24
ENDBRANCH  18  21
ENDBRANCH  13  15
BRANCH  12  29
ATOM     29  C   UNL     1      -1.602   1.571   1.247  0.00  0.00    +0.114 C 
BRANCH  29  30
ATOM     30  C   UNL     1      -1.164   0.974  -0.092  0.00  0.00    +0.001 C 
BRANCH  30  31
ATOM     31  C   UNL     1      -1.952   1.631  -1.226  0.00  0.00    -0.078 C 
BRANCH  31  34
ATOM     32  C   UNL     1      -2.423   1.488  -3.597  0.00  0.00    -0.097 C 
ATOM     33  C   UNL     1      -0.135   1.403  -2.810  0.00  0.00    -0.097 C 
ATOM     34  N   UNL     1      -1.533   1.030  -2.510  0.00  0.00    +0.376 N 
ATOM     35  H   UNL     1      -1.597   0.007  -2.435  0.00  0.00    -0.083 HD
ENDBRANCH  31  34
ENDBRANCH  30  31
ENDBRANCH  29  30
ENDBRANCH  12  29
TORSDOF 8
