REMARK  Name = ZINC19792861
REMARK  11 active torsions:
REMARK  status: ('A' for Active; 'I' for Inactive)
REMARK    1  A    between atoms: C_1  and  C_2
REMARK    2  A    between atoms: N_5  and  C_11
REMARK    3  A    between atoms: C_7  and  C_10
REMARK    4  A    between atoms: C_11  and  C_12
REMARK    5  A    between atoms: C_13  and  O_37
REMARK    6  A    between atoms: C_19  and  C_33
REMARK    7  A    between atoms: C_20  and  O_23
REMARK    8  A    between atoms: O_23  and  C_24
REMARK    9  A    between atoms: C_29  and  C_30
REMARK   10  A    between atoms: C_30  and  C_31
REMARK   11  A    between atoms: C_30  and  C_32
REMARK                            x       y       z     vdW  Elec       q    Type
REMARK                         _______ _______ _______ _____ _____    ______ ____
ROOT
ATOM      1  C   UNL     1       3.512  -0.894  -0.037  0.00  0.00    +0.051 A 
ATOM      2  C   UNL     1       4.748  -0.269  -0.046  0.00  0.00    +0.125 A 
ATOM      3  C   UNL     1       4.839   1.121  -0.039  0.00  0.00    +0.046 A 
ATOM      4  C   UNL     1       3.708   1.887  -0.024  0.00  0.00    +0.019 A 
ATOM      5  C   UNL     1       2.456   1.272  -0.015  0.00  0.00    +0.068 A 
ATOM      6  C   UNL     1       2.354  -0.130  -0.021  0.00  0.00    +0.147 A 
ATOM      7  O   UNL     1       1.138  -0.713  -0.013  0.00  0.00    -0.447 OA
ATOM      8  C   UNL     1       0.002  -0.004   0.002  0.00  0.00    +0.254 A 
ATOM      9  C   UNL     1      -0.016   1.344   0.009  0.00  0.00    +0.222 A 
ATOM     10  C   UNL     1       1.213   2.063   0.002  0.00  0.00    +0.235 A 
ATOM     11  O   UNL     1       1.235   3.282   0.008  0.00  0.00    -0.283 OA
ENDROOT
BRANCH   8  12
ATOM     12  C   UNL     1      -1.311  -0.744   0.010  0.00  0.00    +0.454 C 
ATOM     13  F   UNL     1      -1.729  -0.966  -1.306  0.00  0.00    -0.163 F 
ATOM     14  F   UNL     1      -1.150  -1.972   0.661  0.00  0.00    -0.163 F 
ATOM     15  F   UNL     1      -2.272   0.019   0.682  0.00  0.00    -0.163 F 
ENDBRANCH   8  12
BRANCH   2  16
ATOM     16  O   UNL     1       5.880  -1.018  -0.061  0.00  0.00    -0.506 OA
ATOM     17  H   UNL     1       6.864  -0.526  -0.068  0.00  0.00    +0.292 HD
ENDBRANCH   2  16
BRANCH   1  18
ATOM     18  C   UNL     1       3.425  -2.399  -0.044  0.00  0.00    +0.127 C 
BRANCH  18  22
ATOM     19  C   UNL     1       4.759  -4.188  -3.662  0.00  0.00    +0.039 C 
ATOM     20  C   UNL     1       3.548  -4.794  -2.949  0.00  0.00    +0.130 C 
ATOM     21  C   UNL     1       3.538  -4.342  -1.486  0.00  0.00    +0.116 C 
ATOM     22  N   UNL     1       3.383  -2.881  -1.431  0.00  0.00    -0.293 NA
ATOM     23  C   UNL     1       2.141  -2.463  -2.096  0.00  0.00    +0.116 C 
ATOM     24  C   UNL     1       2.165  -2.933  -3.553  0.00  0.00    +0.130 C 
ATOM     25  O   UNL     1       2.347  -4.351  -3.587  0.00  0.00    -0.371 OA
ATOM     26  C   UNL     1       0.841  -2.571  -4.229  0.00  0.00    +0.039 C 
ENDBRANCH  18  22
ENDBRANCH   1  18
BRANCH   9  27
ATOM     27  O   UNL     1      -1.202   2.013   0.019  0.00  0.00    -0.448 OA
BRANCH  27  28
ATOM     28  C   UNL     1      -1.751   2.320   1.223  0.00  0.00    +0.132 A 
ATOM     29  C   UNL     1      -1.109   1.948   2.395  0.00  0.00    +0.046 A 
ATOM     30  C   UNL     1      -1.668   2.265   3.618  0.00  0.00    +0.004 A 
ATOM     31  C   UNL     1      -2.871   2.945   3.674  0.00  0.00    +0.001 A 
ATOM     32  C   UNL     1      -3.515   3.312   2.507  0.00  0.00    +0.007 A 
ATOM     33  C   UNL     1      -2.958   3.001   1.282  0.00  0.00    -0.003 A 
BRANCH  33  34
ATOM     34  C   UNL     1      -3.662   3.402   0.011  0.00  0.00    +0.016 C 
ATOM     35  C   UNL     1      -5.044   2.748  -0.036  0.00  0.00    +0.012 C 
ATOM     36  C   UNL     1      -3.816   4.924  -0.029  0.00  0.00    +0.012 C 
ENDBRANCH  33  34
ENDBRANCH  27  28
ENDBRANCH   9  27
TORSDOF 7
