REMARK  Name = ZINC39133435
REMARK  8 active torsions:
REMARK  status: ('A' for Active; 'I' for Inactive)
REMARK    1  A    between atoms: C_4  and  C_7
REMARK    2  A    between atoms: C_7  and  O_8
REMARK    3  A    between atoms: O_8  and  C_9
REMARK    4  A    between atoms: C_9  and  C_10
REMARK    5  A    between atoms: C_10  and  C_12
REMARK    6  A    between atoms: C_10  and  N_28
REMARK    7  A    between atoms: C_14  and  C_25
REMARK    8  A    between atoms: C_16  and  C_18
REMARK                            x       y       z     vdW  Elec       q    Type
REMARK                         _______ _______ _______ _____ _____    ______ ____
ROOT
ATOM      1  C   UNL     1       7.101  -2.301   2.983  0.00  0.00    +0.104 C 
ATOM      2  C   UNL     1       8.055  -1.423   2.204  0.00  0.00    +0.063 C 
ATOM      3  C   UNL     1       8.574  -2.208   1.238  0.00  0.00    +0.040 C 
ATOM      4  C   UNL     1       8.000  -3.558   1.354  0.00  0.00    +0.062 C 
ATOM      5  N   UNL     1       7.162  -3.621   2.344  0.00  0.00    -0.377 N 
ATOM      6  H   UNL     1       6.661  -4.406   2.616  0.00  0.00    +0.160 HD
ENDROOT
BRANCH   4   7
ATOM      7  C   UNL     1       8.334  -4.695   0.460  0.00  0.00    +0.092 A 
ATOM      8  C   UNL     1       7.732  -5.941   0.644  0.00  0.00    +0.049 A 
ATOM      9  C   UNL     1       8.075  -6.973  -0.216  0.00  0.00    +0.116 A 
ATOM     10  N   UNL     1       8.955  -6.748  -1.177  0.00  0.00    -0.223 NA
ATOM     11  C   UNL     1       9.510  -5.554  -1.328  0.00  0.00    +0.213 A 
ATOM     12  N   UNL     1       9.207  -4.540  -0.532  0.00  0.00    -0.213 NA
ATOM     13  N   UNL     1      10.427  -5.360  -2.346  0.00  0.00    -0.327 N 
ATOM     14  H   UNL     1      10.655  -6.093  -2.939  0.00  0.00    +0.145 HD
ATOM     15  H   UNL     1      10.841  -4.491  -2.468  0.00  0.00    +0.145 HD
ENDBRANCH   4   7
BRANCH   2  16
ATOM     16  C   UNL     1       8.355  -0.008   2.449  0.00  0.00    +0.385 C 
ATOM     17  O   UNL     1       9.076   0.608   1.675  0.00  0.00    -0.241 OA
ATOM     18  O   UNL     1       7.884   0.557   3.427  0.00  0.00    -0.241 OA
ENDBRANCH   2  16
BRANCH   1  19
ATOM     19  C   UNL     1       5.681  -1.740   2.902  0.00  0.00    -0.022 C 
BRANCH  19  20
ATOM     20  N   UNL     1       4.777  -2.575   3.704  0.00  0.00    +0.383 N 
ATOM     21  H   UNL     1       3.830  -2.244   3.599  0.00  0.00    -0.089 HD
ATOM     22  H   UNL     1       4.836  -3.532   3.390  0.00  0.00    -0.089 HD
ATOM     23  H   UNL     1       5.046  -2.523   4.676  0.00  0.00    -0.089 HD
ENDBRANCH  19  20
BRANCH  19  24
ATOM     24  C   UNL     1       5.215  -1.739   1.444  0.00  0.00    +0.146 C 
BRANCH  24  25
ATOM     25  O   UNL     1       3.936  -1.109   1.353  0.00  0.00    -0.377 OA
BRANCH  25  26
ATOM     26  C   UNL     1       3.407  -1.056   0.027  0.00  0.00    +0.195 C 
BRANCH  26  30
ATOM     27  C   UNL     1      -0.403   0.876   0.086  0.00  0.00    +0.000 A 
ATOM     28  C   UNL     1       0.748   1.621  -0.092  0.00  0.00    +0.000 A 
ATOM     29  C   UNL     1       1.980   0.996  -0.112  0.00  0.00    +0.006 A 
ATOM     30  C   UNL     1       2.063  -0.374   0.049  0.00  0.00    -0.022 A 
ATOM     31  C   UNL     1       0.913  -1.120   0.229  0.00  0.00    +0.006 A 
ATOM     32  C   UNL     1      -0.320  -0.495   0.246  0.00  0.00    +0.000 A 
ENDBRANCH  26  30
ENDBRANCH  25  26
ENDBRANCH  24  25
ENDBRANCH  19  24
ENDBRANCH   1  19
TORSDOF 8
