REMARK  Name = ZINC13775116
REMARK  8 active torsions:
REMARK  status: ('A' for Active; 'I' for Inactive)
REMARK    1  A    between atoms: C_1  and  C_2
REMARK    2  A    between atoms: C_9  and  N_29
REMARK    3  A    between atoms: C_10  and  C_13
REMARK    4  A    between atoms: N_17  and  C_21
REMARK    5  A    between atoms: C_21  and  C_22
REMARK    6  A    between atoms: C_22  and  C_23
REMARK    7  A    between atoms: C_31  and  C_38
REMARK    8  A    between atoms: C_34  and  C_37
REMARK                            x       y       z     vdW  Elec       q    Type
REMARK                         _______ _______ _______ _____ _____    ______ ____
ROOT
ATOM      1  C   UNL     1      -2.955   6.381   9.339  0.00  0.00    +0.047 C 
ATOM      2  C   UNL     1      -3.353   5.184   8.515  0.00  0.00    -0.007 A 
ATOM      3  C   UNL     1      -4.246   4.278   9.006  0.00  0.00    +0.008 A 
ATOM      4  C   UNL     1      -4.606   3.170   8.228  0.00  0.00    +0.019 A 
ATOM      5  C   UNL     1      -4.070   3.002   6.998  0.00  0.00    +0.096 A 
ATOM      6  N   UNL     1      -3.176   3.901   6.498  0.00  0.00    -0.267 N 
ATOM      7  C   UNL     1      -2.805   4.992   7.234  0.00  0.00    +0.145 A 
ATOM      8  N   UNL     1      -1.932   5.883   6.763  0.00  0.00    -0.213 NA
ATOM      9  C   UNL     1      -1.381   5.750   5.564  0.00  0.00    +0.136 A 
ATOM     10  C   UNL     1      -1.732   4.643   4.755  0.00  0.00    +0.081 A 
ATOM     11  C   UNL     1      -2.659   3.704   5.266  0.00  0.00    +0.267 A 
ATOM     12  O   UNL     1      -2.985   2.733   4.605  0.00  0.00    -0.267 OA
ENDROOT
BRANCH  10  13
ATOM     13  C   UNL     1      -1.164   4.476   3.470  0.00  0.00    +0.037 C 
ATOM     14  C   UNL     1      -1.295   5.461   2.534  0.00  0.00    +0.077 C 
ATOM     15  C   UNL     1      -0.729   5.551   1.230  0.00  0.00    +0.258 C 
ATOM     16  O   UNL     1      -0.008   4.670   0.797  0.00  0.00    -0.269 OA
ATOM     17  N   UNL     1      -1.006   6.621   0.504  0.00  0.00    -0.255 N 
ATOM     18  C   UNL     1      -1.810   7.596   0.982  0.00  0.00    +0.121 C 
ATOM     19  S   UNL     1      -2.303   9.050   0.223  0.00  0.00    -0.027 S 
ATOM     20  S   UNL     1      -2.228   6.983   2.607  0.00  0.00    -0.061 S 
BRANCH  17  21
ATOM     21  C   UNL     1      -0.436   6.748  -0.840  0.00  0.00    +0.119 C 
BRANCH  21  22
ATOM     22  C   UNL     1       0.910   7.470  -0.757  0.00  0.00    +0.054 C 
BRANCH  22  23
ATOM     23  C   UNL     1       1.496   7.601  -2.139  0.00  0.00    -0.046 A 
ATOM     24  C   UNL     1       2.324   6.612  -2.636  0.00  0.00    +0.004 A 
ATOM     25  C   UNL     1       2.858   6.730  -3.905  0.00  0.00    +0.000 A 
ATOM     26  C   UNL     1       2.571   7.841  -4.675  0.00  0.00    +0.000 A 
ATOM     27  C   UNL     1       1.747   8.833  -4.177  0.00  0.00    +0.000 A 
ATOM     28  C   UNL     1       1.210   8.713  -2.909  0.00  0.00    +0.004 A 
ENDBRANCH  22  23
ENDBRANCH  21  22
ENDBRANCH  17  21
ENDBRANCH  10  13
BRANCH   9  29
ATOM     29  N   UNL     1      -0.479   6.685   5.108  0.00  0.00    -0.310 N 
ATOM     30  C   UNL     1       0.857   6.093   4.946  0.00  0.00    +0.138 C 
ATOM     31  C   UNL     1       1.813   7.148   4.383  0.00  0.00    +0.133 C 
ATOM     32  O   UNL     1       1.826   8.284   5.250  0.00  0.00    -0.371 OA
ATOM     33  C   UNL     1       0.541   8.886   5.430  0.00  0.00    +0.133 C 
ATOM     34  C   UNL     1      -0.427   7.849   6.004  0.00  0.00    +0.138 C 
ATOM     35  C   UNL     1       0.659  10.066   6.397  0.00  0.00    +0.039 C 
ATOM     36  C   UNL     1       1.341   7.573   2.990  0.00  0.00    +0.039 C 
ENDBRANCH   9  29
TORSDOF 5
