REMARK  Name = ZINC35026630
REMARK  9 active torsions:
REMARK  status: ('A' for Active; 'I' for Inactive)
REMARK    1  A    between atoms: C_1  and  C_2
REMARK    2  A    between atoms: C_2  and  N_3
REMARK    3  A    between atoms: C_13  and  C_14
REMARK    4  A    between atoms: C_14  and  C_16
REMARK    5  A    between atoms: C_14  and  N_17
REMARK    6  A    between atoms: N_17  and  C_18
REMARK    7  A    between atoms: C_18  and  C_19
REMARK    8  A    between atoms: N_26  and  C_27
REMARK    9  A    between atoms: C_32  and  C_33
REMARK                            x       y       z     vdW  Elec       q    Type
REMARK                         _______ _______ _______ _____ _____    ______ ____
ROOT
ATOM      1  N   UNL     1      -2.464  -0.698  -3.595  0.00  0.00    -0.268 N 
ATOM      2  C   UNL     1      -2.061  -1.595  -4.516  0.00  0.00    +0.307 C 
ATOM      3  O   UNL     1      -1.108  -2.315  -4.288  0.00  0.00    -0.252 OA
ATOM      4  N   UNL     1      -2.714  -1.694  -5.691  0.00  0.00    -0.269 N 
ATOM      5  H   UNL     1      -3.429  -1.074  -5.902  0.00  0.00    +0.156 HD
ENDROOT
BRANCH   4   6
ATOM      6  C   UNL     1      -2.361  -2.692  -6.606  0.00  0.00    +0.046 A 
ATOM      7  C   UNL     1      -1.053  -3.157  -6.659  0.00  0.00    +0.024 A 
ATOM      8  C   UNL     1      -0.708  -4.142  -7.562  0.00  0.00    +0.002 A 
ATOM      9  C   UNL     1      -1.662  -4.666  -8.415  0.00  0.00    +0.001 A 
ATOM     10  C   UNL     1      -2.965  -4.205  -8.366  0.00  0.00    +0.014 A 
ATOM     11  C   UNL     1      -3.318  -3.224  -7.460  0.00  0.00    +0.076 A 
BRANCH  11  12
ATOM     12  C   UNL     1      -4.740  -2.727  -7.402  0.00  0.00    +0.419 C 
ATOM     13  F   UNL     1      -5.511  -3.408  -8.350  0.00  0.00    -0.166 F 
ATOM     14  F   UNL     1      -5.262  -2.955  -6.125  0.00  0.00    -0.166 F 
ATOM     15  F   UNL     1      -4.766  -1.356  -7.678  0.00  0.00    -0.166 F 
ENDBRANCH  11  12
ENDBRANCH   4   6
BRANCH   1  16
ATOM     16  C   UNL     1      -1.754  -0.590  -2.318  0.00  0.00    +0.141 C 
ATOM     17  C   UNL     1      -1.193   0.825  -2.164  0.00  0.00    +0.036 C 
BRANCH  16  28
ATOM     18  N   UNL     1      -2.499  -1.992  -0.437  0.00  0.00    -0.295 N 
ATOM     19  C   UNL     1      -3.323  -2.294   0.594  0.00  0.00    +0.262 A 
ATOM     20  O   UNL     1      -3.145  -3.285   1.277  0.00  0.00    -0.267 OA
ATOM     21  C   UNL     1      -4.442  -1.376   0.856  0.00  0.00    +0.065 A 
ATOM     22  C   UNL     1      -5.347  -1.595   1.892  0.00  0.00    +0.017 A 
ATOM     23  C   UNL     1      -6.370  -0.711   2.094  0.00  0.00    +0.021 A 
ATOM     24  C   UNL     1      -6.517   0.404   1.276  0.00  0.00    +0.043 A 
ATOM     25  C   UNL     1      -5.635   0.642   0.244  0.00  0.00    +0.048 A 
ATOM     26  C   UNL     1      -4.582  -0.246   0.019  0.00  0.00    +0.080 A 
ATOM     27  N   UNL     1      -3.688  -0.054  -0.983  0.00  0.00    -0.232 NA
ATOM     28  C   UNL     1      -2.707  -0.879  -1.187  0.00  0.00    +0.133 A 
ATOM     29 CL   UNL     1      -7.827   1.507   1.557  0.00  0.00    -0.083 Cl
BRANCH  18  31
ATOM     30  C   UNL     1      -0.110  -2.345  -0.049  0.00  0.00    +0.027 C 
ATOM     31  C   UNL     1      -1.368  -2.872  -0.742  0.00  0.00    +0.123 C 
ENDBRANCH  18  31
ENDBRANCH  16  28
ENDBRANCH   1  16
BRANCH   1  32
ATOM     32  C   UNL     1      -3.612   0.169  -3.870  0.00  0.00    +0.184 C 
BRANCH  32  33
ATOM     33  C   UNL     1      -3.137   1.438  -4.529  0.00  0.00    +0.122 A 
ATOM     34  C   UNL     1      -3.011   1.636  -5.854  0.00  0.00    +0.046 A 
ATOM     35  C   UNL     1      -2.538   2.957  -6.027  0.00  0.00    +0.041 A 
ATOM     36  C   UNL     1      -2.403   3.487  -4.798  0.00  0.00    +0.195 A 
ATOM     37  O   UNL     1      -2.773   2.564  -3.895  0.00  0.00    -0.466 OA
ENDBRANCH  32  33
ENDBRANCH   1  32
TORSDOF 7
