REMARK  Name = ZINC16115308
REMARK  9 active torsions:
REMARK  status: ('A' for Active; 'I' for Inactive)
REMARK    1  A    between atoms: C_1  and  C_2
REMARK    2  A    between atoms: N_4  and  C_5
REMARK    3  A    between atoms: C_8  and  S_11
REMARK    4  A    between atoms: S_11  and  O_14
REMARK    5  A    between atoms: O_14  and  C_15
REMARK    6  A    between atoms: C_18  and  C_21
REMARK    7  A    between atoms: N_22  and  N_23
REMARK    8  A    between atoms: C_28  and  C_31
REMARK    9  A    between atoms: C_31  and  C_32
REMARK                            x       y       z     vdW  Elec       q    Type
REMARK                         _______ _______ _______ _____ _____    ______ ____
ROOT
ATOM      1  C   UNL     1      -2.104  -6.858   2.401  0.00  0.00    +0.157 A 
ATOM      2  C   UNL     1      -2.495  -5.655   2.975  0.00  0.00    +0.049 A 
ATOM      3  C   UNL     1      -3.742  -5.537   3.552  0.00  0.00    +0.013 A 
ATOM      4  C   UNL     1      -4.612  -6.630   3.558  0.00  0.00    -0.005 A 
ATOM      5  C   UNL     1      -4.215  -7.838   2.980  0.00  0.00    +0.013 A 
ATOM      6  C   UNL     1      -2.969  -7.946   2.401  0.00  0.00    +0.049 A 
ENDROOT
BRANCH   4   7
ATOM      7  C   UNL     1      -5.946  -6.509   4.174  0.00  0.00    +0.138 C 
ATOM      8  N   UNL     1      -6.753  -7.526   4.179  0.00  0.00    -0.188 NA
BRANCH   8   9
ATOM      9  N   UNL     1      -8.021  -7.410   4.765  0.00  0.00    -0.217 N 
ATOM     10  C   UNL     1      -8.870  -8.479   4.770  0.00  0.00    +0.166 C 
ATOM     11  N   UNL     1      -8.662  -9.694   4.278  0.00  0.00    -0.157 NA
ATOM     12  C   UNL     1      -9.529 -10.667   4.323  0.00  0.00    +0.252 C 
ATOM     13  O   UNL     1      -9.297 -11.767   3.859  0.00  0.00    -0.272 OA
ATOM     14  C   UNL     1     -10.853 -10.331   4.999  0.00  0.00    +0.152 C 
ATOM     15  S   UNL     1     -10.521  -8.575   5.449  0.00  0.00    -0.078 S 
ATOM     16  H   UNL     1      -8.296  -6.571   5.166  0.00  0.00    +0.176 HD
BRANCH  14  17
ATOM     17  C   UNL     1     -11.079 -11.190   6.245  0.00  0.00    +0.149 C 
BRANCH  17  18
ATOM     18  C   UNL     1     -12.448 -10.910   6.807  0.00  0.00    +0.358 C 
ATOM     19  O   UNL     1     -13.177 -10.098   6.262  0.00  0.00    -0.246 OA
ATOM     20  O   UNL     1     -12.829 -11.495   7.807  0.00  0.00    -0.246 OA
ENDBRANCH  17  18
ENDBRANCH  14  17
ENDBRANCH   8   9
ENDBRANCH   4   7
BRANCH   1  21
ATOM     21  O   UNL     1      -0.875  -6.970   1.834  0.00  0.00    -0.342 OA
BRANCH  21  22
ATOM     22  S   UNL     1      -0.840  -6.603   0.357  0.00  0.00    +0.151 S 
ATOM     23  O   UNL     1      -2.038  -7.108  -0.216  0.00  0.00    -0.131 OA
ATOM     24  O   UNL     1       0.447  -6.970  -0.121  0.00  0.00    -0.131 OA
BRANCH  22  28
ATOM     25  C   UNL     1      -1.081  -2.089   0.091  0.00  0.00    +0.033 A 
ATOM     26  C   UNL     1       0.155  -2.716   0.178  0.00  0.00    +0.025 A 
ATOM     27  C   UNL     1       0.225  -4.092   0.259  0.00  0.00    +0.032 A 
ATOM     28  C   UNL     1      -0.934  -4.847   0.254  0.00  0.00    +0.128 A 
ATOM     29  C   UNL     1      -2.166  -4.226   0.168  0.00  0.00    +0.032 A 
ATOM     30  C   UNL     1      -2.244  -2.849   0.093  0.00  0.00    +0.025 A 
BRANCH  25  34
ATOM     31  C   UNL     1      -2.194   1.470   0.609  0.00  0.00    +0.109 C 
ATOM     32  C   UNL     1      -2.169  -0.037   0.608  0.00  0.00    +0.214 C 
ATOM     33  O   UNL     1      -3.061  -0.658   1.145  0.00  0.00    -0.276 OA
ATOM     34  N   UNL     1      -1.156  -0.694   0.009  0.00  0.00    -0.286 N 
ATOM     35  H   UNL     1      -0.478  -0.200  -0.478  0.00  0.00    +0.155 HD
ENDBRANCH  25  34
ENDBRANCH  22  28
ENDBRANCH  21  22
ENDBRANCH   1  21
TORSDOF 8
