REMARK  Name = ZINC39327319
REMARK  7 active torsions:
REMARK  status: ('A' for Active; 'I' for Inactive)
REMARK    1  A    between atoms: N_11  and  C_12
REMARK    2  A    between atoms: C_12  and  C_13
REMARK    3  A    between atoms: C_13  and  C_14
REMARK    4  A    between atoms: C_14  and  S_15
REMARK    5  A    between atoms: S_15  and  C_16
REMARK    6  A    between atoms: C_17  and  C_31
REMARK    7  A    between atoms: C_18  and  C_27
REMARK                            x       y       z     vdW  Elec       q    Type
REMARK                         _______ _______ _______ _____ _____    ______ ____
ROOT
ATOM      1  C   UNL     1       9.205   0.317   2.903  0.00  0.00    +0.115 A 
ATOM      2  C   UNL     1      10.014   0.476   4.043  0.00  0.00    +0.095 A 
ATOM      3  C   UNL     1      11.371   0.749   3.861  0.00  0.00    +0.080 A 
ATOM      4  C   UNL     1      11.868   0.863   2.565  0.00  0.00    -0.013 A 
ATOM      5  C   UNL     1      11.013   0.718   1.500  0.00  0.00    +0.046 A 
ATOM      6  N   UNL     1       9.729   0.437   1.697  0.00  0.00    -0.244 NA
ATOM      7  C   UNL     1      11.462   0.887   0.071  0.00  0.00    +0.056 C 
ATOM      8  C   UNL     1      12.708   0.044  -0.214  0.00  0.00    +0.006 C 
ATOM      9  C   UNL     1      13.933   0.924   0.018  0.00  0.00    +0.001 C 
ATOM     10  C   UNL     1      13.647   1.918   1.145  0.00  0.00    +0.005 C 
ATOM     11  C   UNL     1      13.345   1.132   2.420  0.00  0.00    +0.037 C 
ENDROOT
BRANCH   3  12
ATOM     12  C   UNL     1      12.284   0.917   5.048  0.00  0.00    +0.419 C 
ATOM     13  F   UNL     1      11.814   0.138   6.111  0.00  0.00    -0.166 F 
ATOM     14  F   UNL     1      13.576   0.506   4.704  0.00  0.00    -0.166 F 
ATOM     15  F   UNL     1      12.308   2.263   5.430  0.00  0.00    -0.166 F 
ENDBRANCH   3  12
BRANCH   2  16
ATOM     16  C   UNL     1       9.460   0.360   5.358  0.00  0.00    +0.102 C 
ATOM     17  N   UNL     1       9.019   0.268   6.401  0.00  0.00    -0.191 NA
ENDBRANCH   2  16
BRANCH   1  18
ATOM     18  S   UNL     1       7.491  -0.050   3.085  0.00  0.00    -0.105 S 
BRANCH  18  19
ATOM     19  C   UNL     1       6.884  -0.168   1.380  0.00  0.00    +0.077 C 
BRANCH  19  20
ATOM     20  C   UNL     1       5.388  -0.487   1.392  0.00  0.00    +0.033 C 
BRANCH  20  21
ATOM     21  C   UNL     1       4.875  -0.586  -0.046  0.00  0.00    +0.128 C 
BRANCH  21  32
ATOM     22  C   UNL     1      -0.017   1.377   0.010  0.00  0.00    +0.002 A 
ATOM     23  C   UNL     1       1.169   2.091   0.002  0.00  0.00    +0.002 A 
ATOM     24  C   UNL     1       2.381   1.429  -0.013  0.00  0.00    +0.028 A 
ATOM     25  C   UNL     1       2.410   0.043  -0.021  0.00  0.00    +0.070 A 
ATOM     26  C   UNL     1       1.214  -0.678  -0.013  0.00  0.00    +0.067 A 
ATOM     27  C   UNL     1       0.002  -0.004   0.002  0.00  0.00    +0.028 A 
ATOM     28  N   UNL     1       1.557  -2.028  -0.023  0.00  0.00    -0.306 N 
ATOM     29  H   UNL     1       0.934  -2.772  -0.021  0.00  0.00    +0.170 HD
ATOM     30  C   UNL     1       2.900  -2.124  -0.036  0.00  0.00    +0.328 A 
ATOM     31  O   UNL     1       3.528  -3.166  -0.047  0.00  0.00    -0.247 OA
ATOM     32  N   UNL     1       3.443  -0.892  -0.035  0.00  0.00    -0.292 N 
ENDBRANCH  21  32
ENDBRANCH  20  21
ENDBRANCH  19  20
ENDBRANCH  18  19
ENDBRANCH   1  18
TORSDOF 7
