REMARK  Name = ZINC30943291
REMARK  6 active torsions:
REMARK  status: ('A' for Active; 'I' for Inactive)
REMARK    1  A    between atoms: C_1  and  S_2
REMARK    2  A    between atoms: S_2  and  N_5
REMARK    3  A    between atoms: C_8  and  C_18
REMARK    4  A    between atoms: N_20  and  C_21
REMARK    5  A    between atoms: C_26  and  C_27
REMARK    6  A    between atoms: C_27  and  C_29
REMARK                            x       y       z     vdW  Elec       q    Type
REMARK                         _______ _______ _______ _____ _____    ______ ____
ROOT
ATOM      1  C   UNL     1       0.145   1.185  -2.398  0.00  0.00    +0.258 C 
ATOM      2  O   UNL     1      -0.300   0.403  -3.211  0.00  0.00    -0.271 OA
ATOM      3  N   UNL     1       1.354   1.746  -2.595  0.00  0.00    -0.282 N 
ATOM      4  H   UNL     1       1.717   2.527  -1.911  0.00  0.00    +0.155 HD
ENDROOT
BRANCH   1   8
ATOM      5  N   UNL     1      -1.909   0.910   1.482  0.00  0.00    -0.204 N 
ATOM      6  C   UNL     1      -0.563   1.482   1.358  0.00  0.00    +0.135 C 
ATOM      7  C   UNL     1       0.089   1.029   0.065  0.00  0.00    +0.075 C 
ATOM      8  C   UNL     1      -0.653   1.528  -1.167  0.00  0.00    +0.260 C 
ATOM      9  O   UNL     1      -1.946   0.934  -1.267  0.00  0.00    -0.478 OA
ATOM     10  C   UNL     1      -2.955   1.558  -0.589  0.00  0.00    +0.144 A 
ATOM     11  C   UNL     1      -2.960   1.544   0.802  0.00  0.00    +0.094 A 
ATOM     12  C   UNL     1      -3.984   2.162   1.500  0.00  0.00    +0.048 A 
ATOM     13  C   UNL     1      -5.000   2.798   0.806  0.00  0.00    +0.043 A 
ATOM     14  C   UNL     1      -4.991   2.817  -0.577  0.00  0.00    +0.024 A 
ATOM     15  C   UNL     1      -3.970   2.198  -1.278  0.00  0.00    +0.049 A 
ATOM     16 CL   UNL     1      -6.288   3.574   1.674  0.00  0.00    -0.083 Cl
BRANCH   5  18
ATOM     17  C   UNL     1      -1.956  -1.832   1.249  0.00  0.00    +0.218 C 
ATOM     18  S   UNL     1      -2.180  -0.444   2.395  0.00  0.00    +0.043 S 
ATOM     19  O   UNL     1      -1.142  -0.440   3.366  0.00  0.00    -0.155 OA
ATOM     20  O   UNL     1      -3.542  -0.349   2.790  0.00  0.00    -0.155 OA
ENDBRANCH   5  18
ENDBRANCH   1   8
BRANCH   3  21
ATOM     21  C   UNL     1       2.145   1.338  -3.667  0.00  0.00    +0.044 A 
ATOM     22  C   UNL     1       1.980   0.072  -4.213  0.00  0.00    +0.025 A 
ATOM     23  C   UNL     1       2.760  -0.328  -5.279  0.00  0.00    +0.022 A 
ATOM     24  C   UNL     1       3.721   0.522  -5.805  0.00  0.00    +0.042 A 
ATOM     25  C   UNL     1       3.903   1.781  -5.272  0.00  0.00    +0.033 A 
ATOM     26  C   UNL     1       3.116   2.202  -4.196  0.00  0.00    +0.045 A 
ATOM     27 CL   UNL     1       4.699   0.000  -7.140  0.00  0.00    -0.084 Cl
BRANCH  26  28
ATOM     28  C   UNL     1       3.306   3.546  -3.621  0.00  0.00    +0.195 C 
ATOM     29  O   UNL     1       4.305   3.796  -2.975  0.00  0.00    -0.287 OA
BRANCH  28  30
ATOM     30  C   UNL     1       2.281   4.590  -3.829  0.00  0.00    +0.022 A 
ATOM     31  C   UNL     1       1.188   4.344  -4.663  0.00  0.00    +0.012 A 
ATOM     32  C   UNL     1       0.233   5.321  -4.850  0.00  0.00    +0.001 A 
ATOM     33  C   UNL     1       0.361   6.548  -4.221  0.00  0.00    +0.000 A 
ATOM     34  C   UNL     1       1.444   6.801  -3.398  0.00  0.00    +0.001 A 
ATOM     35  C   UNL     1       2.404   5.830  -3.199  0.00  0.00    +0.012 A 
ENDBRANCH  28  30
ENDBRANCH  26  28
ENDBRANCH   3  21
TORSDOF 5
