REMARK  Name = ZINC35471492
REMARK  7 active torsions:
REMARK  status: ('A' for Active; 'I' for Inactive)
REMARK    1  A    between atoms: C_1  and  C_2
REMARK    2  A    between atoms: C_2  and  C_3
REMARK    3  A    between atoms: C_2  and  N_4
REMARK    4  A    between atoms: N_4  and  C_5
REMARK    5  A    between atoms: C_5  and  C_6
REMARK    6  A    between atoms: C_16  and  C_18
REMARK    7  A    between atoms: N_27  and  C_28
REMARK                            x       y       z     vdW  Elec       q    Type
REMARK                         _______ _______ _______ _____ _____    ______ ____
ROOT
ATOM      1  C   UNL     1      -1.828  -1.460  -1.297  0.00  0.00    +0.205 C 
ENDROOT
BRANCH   1   2
ATOM      2  C   UNL     1      -1.564  -2.886  -0.887  0.00  0.00    +0.234 C 
ATOM      3  O   UNL     1      -1.148  -3.130   0.226  0.00  0.00    -0.274 OA
ATOM      4  N   UNL     1      -1.791  -3.890  -1.757  0.00  0.00    -0.286 N 
ATOM      5  C   UNL     1      -2.289  -3.618  -3.114  0.00  0.00    +0.130 C 
ATOM      6  C   UNL     1      -1.232  -4.047  -4.137  0.00  0.00    +0.140 C 
ATOM      7  N   UNL     1      -0.730  -5.380  -3.783  0.00  0.00    -0.347 N 
ATOM      8  C   UNL     1      -0.070  -6.247  -4.597  0.00  0.00    +0.086 A 
ATOM      9  C   UNL     1       0.226  -7.355  -3.884  0.00  0.00    +0.019 A 
ATOM     10  C   UNL     1      -0.274  -7.164  -2.579  0.00  0.00    +0.025 A 
ATOM     11  C   UNL     1      -0.854  -5.954  -2.547  0.00  0.00    +0.044 A 
ATOM     12  C   UNL     1      -1.541  -5.294  -1.379  0.00  0.00    +0.153 C 
BRANCH  12  13
ATOM     13  C   UNL     1      -2.846  -5.990  -1.094  0.00  0.00    -0.021 A 
ATOM     14  C   UNL     1      -3.112  -6.467   0.176  0.00  0.00    +0.008 A 
ATOM     15  C   UNL     1      -4.309  -7.106   0.438  0.00  0.00    +0.038 A 
ATOM     16  C   UNL     1      -5.243  -7.268  -0.571  0.00  0.00    +0.123 A 
ATOM     17  C   UNL     1      -4.976  -6.789  -1.843  0.00  0.00    +0.038 A 
ATOM     18  C   UNL     1      -3.780  -6.146  -2.102  0.00  0.00    +0.008 A 
ATOM     19  F   UNL     1      -6.413  -7.892  -0.316  0.00  0.00    -0.205 F 
ENDBRANCH  12  13
ENDBRANCH   1   2
BRANCH   1  20
ATOM     20  N   UNL     1      -1.506  -0.565  -0.183  0.00  0.00    -0.274 N 
ATOM     21  C   UNL     1      -2.454  -0.243   0.719  0.00  0.00    +0.303 C 
ATOM     22  O   UNL     1      -3.599  -0.617   0.557  0.00  0.00    -0.253 OA
ATOM     23  N   UNL     1      -2.132   0.494   1.801  0.00  0.00    -0.294 N 
ATOM     24  H   UNL     1      -1.236   0.854   1.894  0.00  0.00    +0.151 HD
BRANCH  23  25
ATOM     25  C   UNL     1      -3.136   0.750   2.837  0.00  0.00    +0.037 C 
ATOM     26  C   UNL     1      -4.324   1.493   2.224  0.00  0.00    +0.029 C 
ATOM     27  C   UNL     1      -5.372   1.761   3.306  0.00  0.00    -0.008 C 
ATOM     28  C   UNL     1      -4.754   2.615   4.415  0.00  0.00    +0.007 C 
ATOM     29  C   UNL     1      -3.565   1.871   5.028  0.00  0.00    -0.008 C 
ATOM     30  C   UNL     1      -2.517   1.603   3.946  0.00  0.00    +0.029 C 
ATOM     31  C   UNL     1      -4.044   0.541   5.615  0.00  0.00    +0.007 C 
ATOM     32  C   UNL     1      -4.662  -0.312   4.506  0.00  0.00    -0.008 C 
ATOM     33  C   UNL     1      -5.850   0.431   3.892  0.00  0.00    +0.007 C 
ATOM     34  C   UNL     1      -3.614  -0.580   3.424  0.00  0.00    +0.029 C 
ENDBRANCH  23  25
BRANCH  20  36
ATOM     35  C   UNL     1       0.861  -1.164  -0.043  0.00  0.00    +0.028 C 
ATOM     36  C   UNL     1      -0.153  -0.018  -0.050  0.00  0.00    +0.072 C 
ATOM     37  C   UNL     1       0.139   0.914  -1.228  0.00  0.00    +0.028 C 
ENDBRANCH  20  36
ENDBRANCH   1  20
TORSDOF 5
