REMARK  Name = ZINC45599188
REMARK  7 active torsions:
REMARK  status: ('A' for Active; 'I' for Inactive)
REMARK    1  A    between atoms: C_1  and  C_2
REMARK    2  A    between atoms: C_6  and  N_8
REMARK    3  A    between atoms: C_9  and  C_31
REMARK    4  A    between atoms: C_12  and  S_13
REMARK    5  A    between atoms: S_13  and  C_14
REMARK    6  A    between atoms: C_14  and  C_15
REMARK    7  A    between atoms: C_25  and  C_29
REMARK                            x       y       z     vdW  Elec       q    Type
REMARK                         _______ _______ _______ _____ _____    ______ ____
ROOT
ATOM      1  C   UNL     1       4.851  -1.783   5.231  0.00  0.00    +0.143 A 
ATOM      2  N   UNL     1       5.913  -2.371   4.711  0.00  0.00    -0.216 NA
ATOM      3  C   UNL     1       7.005  -1.697   4.389  0.00  0.00    +0.128 A 
ATOM      4  C   UNL     1       7.041  -0.292   4.608  0.00  0.00    +0.051 A 
ATOM      5  C   UNL     1       8.126   0.651   4.332  0.00  0.00    -0.025 A 
ATOM      6  C   UNL     1       7.903   1.946   4.636  0.00  0.00    -0.004 A 
ATOM      7  S   UNL     1       6.260   1.989   5.300  0.00  0.00    -0.073 S 
ATOM      8  C   UNL     1       5.872   0.263   5.165  0.00  0.00    +0.114 A 
ATOM      9  N   UNL     1       4.823  -0.483   5.453  0.00  0.00    -0.224 NA
ATOM     10  C   UNL     1       8.845   3.097   4.451  0.00  0.00    +0.046 C 
ATOM     11  C   UNL     1       9.976   2.652   3.514  0.00  0.00    -0.009 C 
ATOM     12  C   UNL     1      10.502   1.295   3.991  0.00  0.00    +0.008 C 
ATOM     13  C   UNL     1       9.456   0.211   3.727  0.00  0.00    +0.037 C 
ATOM     14  C   UNL     1      11.105   3.684   3.546  0.00  0.00    +0.008 C 
ATOM     15  N   UNL     1       8.098  -2.350   3.847  0.00  0.00    -0.343 N 
ATOM     16  H   UNL     1       8.796  -1.843   3.404  0.00  0.00    +0.144 HD
ATOM     17  H   UNL     1       8.166  -3.316   3.910  0.00  0.00    +0.144 HD
ENDROOT
BRANCH   1  18
ATOM     18  C   UNL     1       3.641  -2.614   5.572  0.00  0.00    +0.153 C 
BRANCH  18  19
ATOM     19  S   UNL     1       2.536  -2.692   4.135  0.00  0.00    -0.078 S 
BRANCH  19  24
ATOM     20  N   UNL     1       0.086  -4.037   3.958  0.00  0.00    -0.274 N 
ATOM     21  C   UNL     1      -0.676  -4.811   4.793  0.00  0.00    +0.135 A 
ATOM     22  N   UNL     1      -0.047  -4.889   5.931  0.00  0.00    -0.133 NA
ATOM     23  N   UNL     1       1.052  -4.224   5.876  0.00  0.00    -0.122 NA
ATOM     24  C   UNL     1       1.189  -3.685   4.687  0.00  0.00    +0.197 A 
ATOM     25  C   UNL     1      -1.998  -5.453   4.458  0.00  0.00    +0.088 C 
BRANCH  20  31
ATOM     26  C   UNL     1      -0.952  -0.571   0.627  0.00  0.00    +0.044 C 
ATOM     27  C   UNL     1      -0.709  -2.013   0.990  0.00  0.00    -0.048 A 
ATOM     28  C   UNL     1      -0.769  -2.991   0.014  0.00  0.00    +0.003 A 
ATOM     29  C   UNL     1      -0.545  -4.315   0.344  0.00  0.00    +0.002 A 
ATOM     30  C   UNL     1      -0.262  -4.665   1.650  0.00  0.00    +0.026 A 
ATOM     31  C   UNL     1      -0.201  -3.685   2.632  0.00  0.00    +0.050 A 
ATOM     32  C   UNL     1      -0.420  -2.356   2.297  0.00  0.00    +0.029 A 
ENDBRANCH  20  31
ENDBRANCH  19  24
ENDBRANCH  18  19
ENDBRANCH   1  18
TORSDOF 4
