REMARK  Name = ZINC13963125
REMARK  10 active torsions:
REMARK  status: ('A' for Active; 'I' for Inactive)
REMARK    1  A    between atoms: C_1  and  C_2
REMARK    2  A    between atoms: C_2  and  O_3
REMARK    3  A    between atoms: O_3  and  C_4
REMARK    4  A    between atoms: C_12  and  N_16
REMARK    5  A    between atoms: C_13  and  C_14
REMARK    6  A    between atoms: C_17  and  C_19
REMARK    7  A    between atoms: C_19  and  C_20
REMARK    8  A    between atoms: C_21  and  C_28
REMARK    9  A    between atoms: C_23  and  C_27
REMARK   10  A    between atoms: C_25  and  C_26
REMARK                            x       y       z     vdW  Elec       q    Type
REMARK                         _______ _______ _______ _____ _____    ______ ____
ROOT
ATOM      1  C   UNL     1      -6.813   5.041  -8.573  0.00  0.00    +0.403 C 
ATOM      2  O   UNL     1      -7.892   5.440  -8.963  0.00  0.00    -0.226 OA
ATOM      3  N   UNL     1      -6.204   5.650  -7.536  0.00  0.00    -0.262 N 
ATOM      4  C   UNL     1      -6.822   6.800  -6.857  0.00  0.00    +0.116 C 
ATOM      5  C   UNL     1      -7.146   6.426  -5.409  0.00  0.00    +0.056 C 
ATOM      6  C   UNL     1      -5.930   5.758  -4.780  0.00  0.00    -0.015 A 
ATOM      7  C   UNL     1      -4.954   5.216  -5.541  0.00  0.00    +0.013 A 
ATOM      8  S   UNL     1      -3.782   4.566  -4.385  0.00  0.00    -0.075 S 
ATOM      9  C   UNL     1      -4.577   5.002  -2.909  0.00  0.00    +0.090 A 
ATOM     10  C   UNL     1      -5.726   5.644  -3.345  0.00  0.00    +0.084 A 
ATOM     11  C   UNL     1      -4.893   5.189  -7.039  0.00  0.00    +0.153 C 
ENDROOT
BRANCH   9  12
ATOM     12  N   UNL     1      -4.162   4.769  -1.605  0.00  0.00    -0.279 N 
ATOM     13  C   UNL     1      -3.003   4.121  -1.372  0.00  0.00    +0.222 C 
ATOM     14  O   UNL     1      -2.324   3.741  -2.301  0.00  0.00    -0.275 OA
ATOM     15  H   UNL     1      -4.706   5.073  -0.861  0.00  0.00    +0.155 HD
BRANCH  13  16
ATOM     16  C   UNL     1      -2.553   3.869   0.044  0.00  0.00    +0.131 C 
BRANCH  16  17
ATOM     17  C   UNL     1      -1.238   3.133   0.029  0.00  0.00    -0.033 A 
ATOM     18  C   UNL     1      -1.219   1.751   0.017  0.00  0.00    -0.046 A 
ATOM     19  C   UNL     1      -0.013   1.076   0.008  0.00  0.00    +0.007 A 
ATOM     20  C   UNL     1       1.175   1.783   0.000  0.00  0.00    -0.050 A 
ATOM     21  C   UNL     1       1.156   3.165   0.008  0.00  0.00    +0.007 A 
ATOM     22  C   UNL     1      -0.050   3.840   0.022  0.00  0.00    -0.046 A 
ATOM     23  C   UNL     1      -0.070   5.347   0.030  0.00  0.00    +0.044 C 
ATOM     24  C   UNL     1       2.490   1.048  -0.016  0.00  0.00    +0.044 C 
ATOM     25  C   UNL     1      -2.514   0.980   0.019  0.00  0.00    +0.044 C 
ENDBRANCH  16  17
ENDBRANCH  13  16
ENDBRANCH   9  12
BRANCH  10  26
ATOM     26  C   UNL     1      -6.677   6.176  -2.417  0.00  0.00    +0.102 C 
ATOM     27  N   UNL     1      -7.431   6.598  -1.680  0.00  0.00    -0.191 NA
ENDBRANCH  10  26
BRANCH   1  28
ATOM     28  O   UNL     1      -6.225   3.991  -9.176  0.00  0.00    -0.451 OA
BRANCH  28  30
ATOM     29  C   UNL     1      -6.121   2.215 -10.838  0.00  0.00    +0.048 C 
ATOM     30  C   UNL     1      -6.938   3.384 -10.285  0.00  0.00    +0.230 C 
ENDBRANCH  28  30
ENDBRANCH   1  28
TORSDOF 6
