REMARK  Name = ZINC01899726
REMARK  12 active torsions:
REMARK  status: ('A' for Active; 'I' for Inactive)
REMARK    1  A    between atoms: C_1  and  C_2
REMARK    2  A    between atoms: C_2  and  N_3
REMARK    3  A    between atoms: N_3  and  C_4
REMARK    4  A    between atoms: N_3  and  C_6
REMARK    5  A    between atoms: C_4  and  C_5
REMARK    6  A    between atoms: C_9  and  C_13
REMARK    7  A    between atoms: C_10  and  O_12
REMARK    8  A    between atoms: N_14  and  N_15
REMARK    9  A    between atoms: C_16  and  C_18
REMARK   10  A    between atoms: C_18  and  S_19
REMARK   11  A    between atoms: S_19  and  C_20
REMARK   12  A    between atoms: N_33  and  C_34
REMARK                            x       y       z     vdW  Elec       q    Type
REMARK                         _______ _______ _______ _____ _____    ______ ____
ROOT
ATOM      1  S   UNL     1     -10.357  -2.271   7.457  0.00  0.00    -0.078 S 
ENDROOT
BRANCH   1   2
ATOM      2  C   UNL     1     -10.515  -3.259   8.908  0.00  0.00    +0.178 A 
ATOM      3  N   UNL     1      -9.794  -2.972   9.972  0.00  0.00    -0.215 NA
ATOM      4  C   UNL     1      -9.895  -3.700  11.078  0.00  0.00    +0.117 A 
ATOM      5  C   UNL     1     -10.763  -4.801  11.173  0.00  0.00    +0.076 A 
ATOM      6  C   UNL     1     -10.763  -5.506  12.456  0.00  0.00    -0.023 A 
ATOM      7  C   UNL     1      -9.938  -5.036  13.413  0.00  0.00    -0.004 A 
ATOM      8  S   UNL     1      -9.123  -3.645  12.676  0.00  0.00    -0.073 S 
ATOM      9  C   UNL     1      -9.755  -5.575  14.799  0.00  0.00    +0.043 C 
ATOM     10  C   UNL     1     -10.919  -6.529  15.106  0.00  0.00    +0.005 C 
ATOM     11  C   UNL     1     -11.096  -7.484  13.922  0.00  0.00    +0.005 C 
ATOM     12  C   UNL     1     -11.648  -6.722  12.717  0.00  0.00    +0.037 C 
ATOM     13  C   UNL     1     -11.534  -5.090  10.003  0.00  0.00    +0.268 A 
ATOM     14  O   UNL     1     -12.314  -6.026   9.992  0.00  0.00    -0.267 OA
ATOM     15  N   UNL     1     -11.389  -4.310   8.915  0.00  0.00    -0.255 N 
BRANCH  15  16
ATOM     16  C   UNL     1     -12.145  -4.585   7.768  0.00  0.00    +0.052 A 
ATOM     17  C   UNL     1     -13.390  -3.994   7.597  0.00  0.00    +0.026 A 
ATOM     18  C   UNL     1     -14.132  -4.266   6.464  0.00  0.00    +0.002 A 
ATOM     19  C   UNL     1     -13.636  -5.126   5.501  0.00  0.00    +0.000 A 
ATOM     20  C   UNL     1     -12.397  -5.716   5.669  0.00  0.00    +0.002 A 
ATOM     21  C   UNL     1     -11.648  -5.443   6.796  0.00  0.00    +0.026 A 
ENDBRANCH  15  16
ENDBRANCH   1   2
BRANCH   1  22
ATOM     22  C   UNL     1      -9.113  -1.029   7.907  0.00  0.00    +0.174 C 
BRANCH  22  24
ATOM     23  N   UNL     1      -7.991   0.901   6.842  0.00  0.00    -0.206 N 
ATOM     24  C   UNL     1      -8.880  -0.106   6.738  0.00  0.00    +0.242 C 
ATOM     25  O   UNL     1      -9.492  -0.271   5.704  0.00  0.00    -0.273 OA
ATOM     26  H   UNL     1      -7.501   1.033   7.669  0.00  0.00    +0.177 HD
BRANCH  23  28
ATOM     27  C   UNL     1      -6.917   2.730   5.856  0.00  0.00    +0.142 C 
ATOM     28  N   UNL     1      -7.774   1.759   5.756  0.00  0.00    -0.188 NA
BRANCH  27  32
ATOM     29  C   UNL     1      -6.258   5.330   2.562  0.00  0.00    +0.033 A 
ATOM     30  C   UNL     1      -5.556   5.518   3.750  0.00  0.00    +0.024 A 
ATOM     31  C   UNL     1      -5.768   4.677   4.820  0.00  0.00    +0.015 A 
ATOM     32  C   UNL     1      -6.689   3.631   4.714  0.00  0.00    +0.036 A 
ATOM     33  C   UNL     1      -7.395   3.443   3.517  0.00  0.00    +0.127 A 
ATOM     34  C   UNL     1      -7.179   4.297   2.450  0.00  0.00    +0.069 A 
BRANCH  33  35
ATOM     35  O   UNL     1      -8.292   2.429   3.407  0.00  0.00    -0.506 OA
ATOM     36  H   UNL     1      -9.191   2.669   3.669  0.00  0.00    +0.292 HD
ENDBRANCH  33  35
BRANCH  29  37
ATOM     37  N   UNL     1      -6.038   6.186   1.483  0.00  0.00    -0.330 N 
BRANCH  37  39
ATOM     38  C   UNL     1      -5.769   8.531   2.121  0.00  0.00    +0.024 C 
ATOM     39  C   UNL     1      -5.067   7.276   1.599  0.00  0.00    +0.102 C 
ENDBRANCH  37  39
BRANCH  37  40
ATOM     40  C   UNL     1      -6.779   5.994   0.234  0.00  0.00    +0.102 C 
ATOM     41  C   UNL     1      -5.997   5.052  -0.683  0.00  0.00    +0.024 C 
ENDBRANCH  37  40
ENDBRANCH  29  37
ENDBRANCH  27  32
ENDBRANCH  23  28
ENDBRANCH  22  24
ENDBRANCH   1  22
TORSDOF 10
