REMARK  Name = ZINC65522237
REMARK  9 active torsions:
REMARK  status: ('A' for Active; 'I' for Inactive)
REMARK    1  A    between atoms: C_1  and  C_2
REMARK    2  A    between atoms: C_2  and  C_3
REMARK    3  A    between atoms: C_2  and  N_9
REMARK    4  A    between atoms: C_12  and  N_14
REMARK    5  A    between atoms: N_17  and  C_18
REMARK    6  A    between atoms: N_17  and  C_23
REMARK    7  A    between atoms: C_18  and  C_19
REMARK    8  A    between atoms: C_19  and  C_20
REMARK    9  A    between atoms: C_23  and  C_24
REMARK                            x       y       z     vdW  Elec       q    Type
REMARK                         _______ _______ _______ _____ _____    ______ ____
ROOT
ATOM      1  N   UNL     1      -0.604  -1.292   4.450  0.00  0.00    -0.298 N 
ATOM      2  C   UNL     1      -0.338  -1.746   5.691  0.00  0.00    +0.303 C 
ATOM      3  O   UNL     1       0.813  -1.924   6.040  0.00  0.00    -0.253 OA
ATOM      4  N   UNL     1      -1.348  -2.002   6.545  0.00  0.00    -0.281 N 
ATOM      5  H   UNL     1      -1.522  -1.149   4.172  0.00  0.00    +0.150 HD
ENDROOT
BRANCH   1   9
ATOM      6  N   UNL     1       0.713  -0.491   1.192  0.00  0.00    +0.385 N 
ATOM      7  C   UNL     1       0.638  -1.972   1.272  0.00  0.00    -0.076 C 
ATOM      8  C   UNL     1       0.891  -2.295   2.760  0.00  0.00    +0.002 C 
ATOM      9  C   UNL     1       0.495  -1.013   3.522  0.00  0.00    +0.056 C 
ATOM     10  C   UNL     1       0.035  -0.024   2.429  0.00  0.00    -0.056 C 
ATOM     11  H   UNL     1       1.674  -0.184   1.179  0.00  0.00    -0.081 HD
BRANCH   6  13
ATOM     12  C   UNL     1      -0.019   1.526   0.010  0.00  0.00    -0.008 C 
ATOM     13  C   UNL     1       0.002  -0.004   0.002  0.00  0.00    -0.041 C 
BRANCH  13  14
ATOM     14  C   UNL     1       0.707  -0.490  -1.238  0.00  0.00    -0.061 A 
ATOM     15  C   UNL     1       2.089  -0.511  -1.284  0.00  0.00    +0.002 A 
ATOM     16  C   UNL     1       2.736  -0.957  -2.421  0.00  0.00    +0.000 A 
ATOM     17  C   UNL     1       2.002  -1.382  -3.512  0.00  0.00    +0.000 A 
ATOM     18  C   UNL     1       0.620  -1.362  -3.466  0.00  0.00    +0.000 A 
ATOM     19  C   UNL     1      -0.027  -0.920  -2.327  0.00  0.00    +0.002 A 
ENDBRANCH  13  14
ENDBRANCH   6  13
ENDBRANCH   1   9
BRANCH   4  20
ATOM     20  C   UNL     1      -2.735  -1.788   6.125  0.00  0.00    +0.119 C 
BRANCH  20  21
ATOM     21  C   UNL     1      -3.282  -3.070   5.496  0.00  0.00    +0.114 C 
BRANCH  21  22
ATOM     22  C   UNL     1      -4.708  -2.849   5.064  0.00  0.00    +0.212 C 
ATOM     23  O   UNL     1      -5.236  -1.772   5.242  0.00  0.00    -0.276 OA
ATOM     24  N   UNL     1      -5.398  -3.849   4.479  0.00  0.00    -0.329 N 
ATOM     25  H   UNL     1      -4.976  -4.711   4.337  0.00  0.00    +0.145 HD
ATOM     26  H   UNL     1      -6.317  -3.707   4.201  0.00  0.00    +0.145 HD
ENDBRANCH  21  22
ENDBRANCH  20  21
ENDBRANCH   4  20
BRANCH   4  27
ATOM     27  C   UNL     1      -1.059  -2.496   7.894  0.00  0.00    +0.144 C 
BRANCH  27  28
ATOM     28  C   UNL     1      -0.897  -1.328   8.833  0.00  0.00    -0.030 A 
ATOM     29  C   UNL     1       0.348  -0.759   9.019  0.00  0.00    +0.005 A 
ATOM     30  C   UNL     1       0.497   0.313   9.880  0.00  0.00    +0.000 A 
ATOM     31  C   UNL     1      -0.600   0.815  10.554  0.00  0.00    +0.000 A 
ATOM     32  C   UNL     1      -1.846   0.246  10.367  0.00  0.00    +0.000 A 
ATOM     33  C   UNL     1      -1.996  -0.823   9.503  0.00  0.00    +0.005 A 
ENDBRANCH  27  28
ENDBRANCH   4  27
TORSDOF 8
