REMARK  Name = ZINC35523176
REMARK  4 active torsions:
REMARK  status: ('A' for Active; 'I' for Inactive)
REMARK    1  A    between atoms: C_5  and  N_7
REMARK    2  A    between atoms: C_13  and  C_15
REMARK    3  A    between atoms: C_15  and  N_16
REMARK    4  A    between atoms: C_24  and  C_26
REMARK                            x       y       z     vdW  Elec       q    Type
REMARK                         _______ _______ _______ _____ _____    ______ ____
ROOT
ATOM      1  N   UNL     1       0.133  -8.094  -1.089  0.00  0.00    +0.395 N 
ATOM      2  C   UNL     1      -1.108  -8.489  -0.409  0.00  0.00    -0.055 C 
ATOM      3  C   UNL     1      -0.968  -9.912   0.146  0.00  0.00    +0.103 C 
ATOM      4  N   UNL     1      -0.487 -10.777  -0.938  0.00  0.00    -0.353 N 
ATOM      5  C   UNL     1      -0.504 -12.132  -1.001  0.00  0.00    +0.086 A 
ATOM      6  C   UNL     1       0.032 -12.505  -2.183  0.00  0.00    +0.019 A 
ATOM      7  C   UNL     1       0.395 -11.329  -2.874  0.00  0.00    +0.021 A 
ATOM      8  C   UNL     1       0.070 -10.290  -2.092  0.00  0.00    +0.009 A 
ATOM      9  C   UNL     1       0.258  -8.818  -2.365  0.00  0.00    +0.011 C 
ATOM     10  H   UNL     1       0.921  -8.315  -0.500  0.00  0.00    -0.080 HD
ENDROOT
BRANCH   9  11
ATOM     11  C   UNL     1       1.626  -8.581  -2.953  0.00  0.00    -0.054 A 
ATOM     12  C   UNL     1       2.737  -8.563  -2.130  0.00  0.00    +0.004 A 
ATOM     13  C   UNL     1       3.992  -8.345  -2.667  0.00  0.00    +0.021 A 
ATOM     14  C   UNL     1       4.136  -8.145  -4.028  0.00  0.00    +0.059 A 
ATOM     15  C   UNL     1       3.023  -8.164  -4.852  0.00  0.00    +0.059 A 
ATOM     16  C   UNL     1       1.769  -8.387  -4.313  0.00  0.00    +0.023 A 
ATOM     17 CL   UNL     1       3.203  -7.912  -6.560  0.00  0.00    -0.082 Cl
ATOM     18 CL   UNL     1       5.712  -7.871  -4.704  0.00  0.00    -0.082 Cl
ENDBRANCH   9  11
BRANCH   1  19
ATOM     19  C   UNL     1       0.108  -6.648  -1.349  0.00  0.00    +0.020 C 
BRANCH  19  26
ATOM     20  N   UNL     1       1.237  -2.078  -0.022  0.00  0.00    -0.326 N 
ATOM     21  C   UNL     1       1.256  -2.833   1.238  0.00  0.00    +0.124 C 
ATOM     22  C   UNL     1       0.077  -3.815   1.239  0.00  0.00    +0.126 C 
ATOM     23  N   UNL     1       0.082  -4.555  -0.031  0.00  0.00    -0.300 N 
ATOM     24  C   UNL     1       0.063  -3.800  -1.291  0.00  0.00    +0.126 C 
ATOM     25  C   UNL     1       1.236  -2.818  -1.292  0.00  0.00    +0.124 C 
ATOM     26  C   UNL     1       0.104  -5.903  -0.039  0.00  0.00    +0.199 C 
ATOM     27  O   UNL     1       0.119  -6.516   1.008  0.00  0.00    -0.278 OA
BRANCH  20  32
ATOM     28  C   UNL     1      -0.017   1.377   0.010  0.00  0.00    +0.002 A 
ATOM     29  C   UNL     1       1.170   2.087   0.002  0.00  0.00    +0.002 A 
ATOM     30  C   UNL     1       2.380   1.417  -0.013  0.00  0.00    +0.022 A 
ATOM     31  C   UNL     1       2.406   0.035  -0.022  0.00  0.00    +0.062 A 
ATOM     32  C   UNL     1       1.215  -0.681  -0.014  0.00  0.00    +0.048 A 
ATOM     33  C   UNL     1       0.002  -0.004   0.002  0.00  0.00    +0.024 A 
ATOM     34 CL   UNL     1       3.925  -0.805  -0.042  0.00  0.00    -0.082 Cl
ENDBRANCH  20  32
ENDBRANCH  19  26
ENDBRANCH   1  19
TORSDOF 4
