REMARK  Name = ZINC12466175
REMARK  8 active torsions:
REMARK  status: ('A' for Active; 'I' for Inactive)
REMARK    1  A    between atoms: C_1  and  C_2
REMARK    2  A    between atoms: C_2  and  O_3
REMARK    3  A    between atoms: O_3  and  C_4
REMARK    4  A    between atoms: C_11  and  C_16
REMARK    5  A    between atoms: C_16  and  C_18
REMARK    6  A    between atoms: C_16  and  N_64
REMARK    7  A    between atoms: N_22  and  C_23
REMARK    8  A    between atoms: C_31  and  C_34
REMARK                            x       y       z     vdW  Elec       q    Type
REMARK                         _______ _______ _______ _____ _____    ______ ____
ROOT
ATOM      1  C   UNL     1       0.013   1.235  -2.408  0.00  0.00    +0.039 C 
ENDROOT
BRANCH   1   9
ATOM      2  C   UNL     1      -2.970   0.680  -7.814  0.00  0.00    +0.121 A 
ATOM      3  C   UNL     1      -3.393   2.005  -7.888  0.00  0.00    +0.047 A 
ATOM      4  C   UNL     1      -3.072   2.901  -6.893  0.00  0.00    +0.030 A 
ATOM      5  C   UNL     1      -2.318   2.485  -5.800  0.00  0.00    +0.049 A 
ATOM      6  C   UNL     1      -1.889   1.147  -5.721  0.00  0.00    +0.002 A 
ATOM      7  C   UNL     1      -2.221   0.246  -6.739  0.00  0.00    +0.055 A 
ATOM      8  C   UNL     1      -1.091   0.724  -4.568  0.00  0.00    +0.017 A 
ATOM      9  C   UNL     1      -0.802   1.639  -3.610  0.00  0.00    +0.011 A 
ATOM     10  C   UNL     1      -1.256   2.969  -3.736  0.00  0.00    +0.251 A 
ATOM     11  O   UNL     1      -0.980   3.776  -2.866  0.00  0.00    -0.268 OA
ATOM     12  N   UNL     1      -1.985   3.368  -4.793  0.00  0.00    -0.322 N 
ATOM     13  H   UNL     1      -2.281   4.290  -4.848  0.00  0.00    +0.169 HD
BRANCH   2  14
ATOM     14  O   UNL     1      -3.296  -0.191  -8.806  0.00  0.00    -0.492 OA
BRANCH  14  16
ATOM     15  C   UNL     1      -4.339  -0.796 -10.900  0.00  0.00    +0.048 C 
ATOM     16  C   UNL     1      -4.073   0.322  -9.890  0.00  0.00    +0.225 C 
ENDBRANCH  14  16
ENDBRANCH   2  14
ENDBRANCH   1   9
BRANCH   1  23
ATOM     17  C   UNL     1      -2.095   1.052  -1.231  0.00  0.00    -0.077 C 
ATOM     18  C   UNL     1      -2.873   1.544  -0.009  0.00  0.00    -0.018 C 
ATOM     19  C   UNL     1      -2.170   1.064   1.264  0.00  0.00    -0.001 C 
ATOM     20  C   UNL     1      -0.729   1.579   1.267  0.00  0.00    -0.031 C 
ATOM     21  C   UNL     1      -0.013   1.086   0.008  0.00  0.00    -0.074 C 
ATOM     22  C   UNL     1      -0.002   1.054   2.507  0.00  0.00    +0.005 C 
ATOM     23  N   UNL     1      -0.724   1.602  -1.181  0.00  0.00    +0.389 N 
ATOM     24  H   UNL     1      -0.777   2.626  -1.118  0.00  0.00    -0.080 HD
ENDBRANCH   1  23
BRANCH   1  25
ATOM     25  C   UNL     1       1.329   1.969  -2.423  0.00  0.00    +0.143 A 
ATOM     26  N   UNL     1       1.524   3.231  -2.126  0.00  0.00    -0.115 NA
ATOM     27  N   UNL     1       2.781   3.480  -2.257  0.00  0.00    -0.023 NA
ATOM     28  N   UNL     1       3.393   2.411  -2.631  0.00  0.00    -0.044 NA
ATOM     29  N   UNL     1       2.532   1.456  -2.739  0.00  0.00    -0.227 N 
BRANCH  29  30
ATOM     30  C   UNL     1       2.812   0.073  -3.135  0.00  0.00    +0.111 C 
ATOM     31  C   UNL     1       3.854  -0.548  -2.183  0.00  0.00    +0.027 C 
ATOM     32  C   UNL     1       4.726  -1.439  -3.104  0.00  0.00    +0.002 C 
ATOM     33  C   UNL     1       4.826  -0.596  -4.399  0.00  0.00    +0.002 C 
ATOM     34  C   UNL     1       3.429   0.043  -4.544  0.00  0.00    +0.027 C 
ENDBRANCH  29  30
ENDBRANCH   1  25
TORSDOF 6
