REMARK  Name = ZINC53148714
REMARK  6 active torsions:
REMARK  status: ('A' for Active; 'I' for Inactive)
REMARK    1  A    between atoms: C_6  and  C_7
REMARK    2  A    between atoms: C_7  and  N_8
REMARK    3  A    between atoms: N_8  and  C_9
REMARK    4  A    between atoms: C_11  and  N_19
REMARK    5  A    between atoms: C_13  and  S_15
REMARK    6  A    between atoms: S_15  and  N_18
REMARK                            x       y       z     vdW  Elec       q    Type
REMARK                         _______ _______ _______ _____ _____    ______ ____
ROOT
ATOM      1  C   UNL     1      -2.909  -1.718  -1.616  0.00  0.00    +0.031 A 
ATOM      2  C   UNL     1      -3.677  -2.180  -0.557  0.00  0.00    +0.045 A 
ATOM      3  C   UNL     1      -4.851  -2.875  -0.807  0.00  0.00    +0.028 A 
ATOM      4  C   UNL     1      -5.254  -3.107  -2.117  0.00  0.00    +0.051 A 
ATOM      5  C   UNL     1      -4.487  -2.646  -3.169  0.00  0.00    +0.108 A 
ATOM      6  C   UNL     1      -3.320  -1.948  -2.923  0.00  0.00    +0.051 A 
ENDROOT
BRANCH   5   7
ATOM      7  S   UNL     1      -5.001  -2.942  -4.828  0.00  0.00    +0.056 S 
ATOM      8  O   UNL     1      -3.831  -2.883  -5.632  0.00  0.00    -0.153 OA
ATOM      9  O   UNL     1      -5.845  -4.084  -4.794  0.00  0.00    -0.153 OA
BRANCH   7  10
ATOM     10  N   UNL     1      -5.951  -1.664  -5.282  0.00  0.00    -0.204 NA
ATOM     11  H   UNL     1      -5.983  -1.389  -6.211  0.00  0.00    +0.144 HD
ATOM     12  H   UNL     1      -6.476  -1.190  -4.617  0.00  0.00    +0.144 HD
ENDBRANCH   7  10
ENDBRANCH   5   7
BRANCH   3  13
ATOM     13  N   UNL     1      -5.627  -3.343   0.256  0.00  0.00    -0.358 N 
ATOM     14  H   UNL     1      -5.346  -3.181   1.170  0.00  0.00    +0.142 HD
ATOM     15  H   UNL     1      -6.448  -3.829   0.080  0.00  0.00    +0.142 HD
ENDBRANCH   3  13
BRANCH   1  16
ATOM     16  N   UNL     1      -1.726  -1.017  -1.368  0.00  0.00    -0.340 N 
ATOM     17  H   UNL     1      -1.191  -0.691  -2.109  0.00  0.00    +0.146 HD
BRANCH  16  18
ATOM     18  C   UNL     1      -1.293  -0.775   0.010  0.00  0.00    +0.137 C 
BRANCH  18  24
ATOM     19  C   UNL     1      -0.017   1.378   0.010  0.00  0.00    +0.008 A 
ATOM     20  C   UNL     1       1.170   2.086   0.002  0.00  0.00    +0.040 A 
ATOM     21  C   UNL     1       2.379   1.412  -0.013  0.00  0.00    +0.142 A 
ATOM     22  C   UNL     1       2.397   0.026  -0.021  0.00  0.00    +0.076 A 
ATOM     23  C   UNL     1       1.208  -0.680  -0.013  0.00  0.00    +0.028 A 
ATOM     24  C   UNL     1       0.002  -0.004   0.002  0.00  0.00    -0.029 A 
ATOM     25 CL   UNL     1       3.911  -0.823  -0.040  0.00  0.00    -0.081 Cl
ATOM     26  F   UNL     1       3.539   2.103  -0.021  0.00  0.00    -0.204 F 
ENDBRANCH  18  24
ENDBRANCH  16  18
ENDBRANCH   1  16
TORSDOF 6
