REMARK  Name = ZINC36065892
REMARK  11 active torsions:
REMARK  status: ('A' for Active; 'I' for Inactive)
REMARK    1  A    between atoms: C_1  and  C_2
REMARK    2  A    between atoms: C_5  and  C_36
REMARK    3  A    between atoms: C_6  and  C_8
REMARK    4  A    between atoms: C_8  and  N_9
REMARK    5  A    between atoms: N_9  and  C_10
REMARK    6  A    between atoms: N_9  and  C_20
REMARK    7  A    between atoms: C_10  and  C_11
REMARK    8  A    between atoms: C_20  and  C_21
REMARK    9  A    between atoms: C_23  and  C_26
REMARK   10  A    between atoms: N_28  and  C_29
REMARK   11  A    between atoms: C_29  and  C_30
REMARK                            x       y       z     vdW  Elec       q    Type
REMARK                         _______ _______ _______ _____ _____    ______ ____
ROOT
ATOM      1  N   UNL     1       2.417  -4.241   2.624  0.00  0.00    +0.391 N 
ATOM      2  H   UNL     1       2.793  -5.049   2.151  0.00  0.00    -0.080 HD
ENDROOT
BRANCH   1   3
ATOM      3  C   UNL     1       1.447  -3.569   1.750  0.00  0.00    -0.042 C 
BRANCH   3   9
ATOM      4  C   UNL     1       0.355  -7.822  -0.650  0.00  0.00    +0.044 C 
ATOM      5  C   UNL     1      -0.092  -6.604   0.116  0.00  0.00    -0.050 A 
ATOM      6  C   UNL     1      -1.436  -6.405   0.374  0.00  0.00    +0.003 A 
ATOM      7  C   UNL     1      -1.846  -5.288   1.077  0.00  0.00    +0.004 A 
ATOM      8  C   UNL     1      -0.913  -4.370   1.522  0.00  0.00    -0.049 A 
ATOM      9  C   UNL     1       0.430  -4.570   1.265  0.00  0.00    -0.061 A 
ATOM     10  C   UNL     1       0.841  -5.689   0.565  0.00  0.00    +0.005 A 
ATOM     11  C   UNL     1      -1.360  -3.151   2.288  0.00  0.00    +0.044 C 
ENDBRANCH   3   9
ENDBRANCH   1   3
BRANCH   1  12
ATOM     12  C   UNL     1       3.508  -3.313   2.951  0.00  0.00    -0.042 C 
BRANCH  12  13
ATOM     13  C   UNL     1       4.318  -3.034   1.711  0.00  0.00    -0.060 A 
ATOM     14  C   UNL     1       5.306  -3.918   1.319  0.00  0.00    +0.005 A 
ATOM     15  C   UNL     1       6.051  -3.666   0.182  0.00  0.00    +0.050 A 
ATOM     16  C   UNL     1       5.809  -2.526  -0.567  0.00  0.00    +0.166 A 
ATOM     17  C   UNL     1       4.814  -1.636  -0.172  0.00  0.00    +0.166 A 
ATOM     18  C   UNL     1       4.068  -1.897   0.965  0.00  0.00    +0.051 A 
ATOM     19  O   UNL     1       4.773  -0.604  -1.065  0.00  0.00    -0.453 OA
ATOM     20  C   UNL     1       6.022  -0.663  -1.779  0.00  0.00    +0.466 C 
ATOM     21  O   UNL     1       6.391  -2.053  -1.708  0.00  0.00    -0.453 OA
ENDBRANCH  12  13
ENDBRANCH   1  12
BRANCH   1  22
ATOM     22  C   UNL     1       1.749  -4.666   3.862  0.00  0.00    +0.020 C 
BRANCH  22  23
ATOM     23  C   UNL     1       0.857  -5.845   3.572  0.00  0.00    +0.179 A 
ATOM     24  N   UNL     1       1.254  -6.992   3.107  0.00  0.00    -0.210 NA
ATOM     25  C   UNL     1       0.169  -7.803   2.977  0.00  0.00    +0.163 A 
ATOM     26  C   UNL     1      -0.915  -7.090   3.387  0.00  0.00    +0.230 A 
ATOM     27  O   UNL     1      -0.470  -5.879   3.758  0.00  0.00    -0.449 OA
BRANCH  25  28
ATOM     28  C   UNL     1       0.168  -9.192   2.483  0.00  0.00    +0.266 C 
ATOM     29  O   UNL     1      -0.875  -9.813   2.415  0.00  0.00    -0.268 OA
ATOM     30  N   UNL     1       1.324  -9.775   2.108  0.00  0.00    -0.306 N 
ATOM     31  H   UNL     1       2.157  -9.280   2.163  0.00  0.00    +0.149 HD
BRANCH  30  32
ATOM     32  C   UNL     1       1.324 -11.155   1.618  0.00  0.00    +0.141 C 
BRANCH  32  33
ATOM     33  C   UNL     1       2.731 -11.565   1.268  0.00  0.00    -0.012 A 
ATOM     34  C   UNL     1       3.227 -11.354  -0.010  0.00  0.00    +0.008 A 
ATOM     35  C   UNL     1       4.527 -11.746  -0.286  0.00  0.00    +0.020 A 
ATOM     36  C   UNL     1       5.281 -12.331   0.714  0.00  0.00    +0.111 A 
ATOM     37  N   UNL     1       4.777 -12.517   1.918  0.00  0.00    -0.263 NA
ATOM     38  C   UNL     1       3.546 -12.150   2.218  0.00  0.00    +0.115 A 
ENDBRANCH  32  33
ENDBRANCH  30  32
ENDBRANCH  25  28
ENDBRANCH  22  23
ENDBRANCH   1  22
TORSDOF 9
