REMARK  Name = ZINC37294976
REMARK  8 active torsions:
REMARK  status: ('A' for Active; 'I' for Inactive)
REMARK    1  A    between atoms: C_1  and  C_2
REMARK    2  A    between atoms: C_6  and  C_21
REMARK    3  A    between atoms: C_8  and  N_11
REMARK    4  A    between atoms: N_11  and  C_12
REMARK    5  A    between atoms: C_12  and  C_14
REMARK    6  A    between atoms: C_12  and  C_15
REMARK    7  A    between atoms: C_21  and  C_22
REMARK    8  A    between atoms: C_21  and  C_23
REMARK                            x       y       z     vdW  Elec       q    Type
REMARK                         _______ _______ _______ _____ _____    ______ ____
ROOT
ATOM      1  N   UNL     1      -0.561  -2.695   1.310  0.00  0.00    +0.386 N 
ATOM      2  H   UNL     1      -1.116  -2.406   0.518  0.00  0.00    -0.085 HD
ATOM      3  H   UNL     1      -0.460  -3.699   1.301  0.00  0.00    -0.085 HD
ENDROOT
BRANCH   1   9
ATOM      4  C   UNL     1      -0.354   1.317  -0.219  0.00  0.00    +0.007 C 
ATOM      5  C   UNL     1      -0.196  -0.201  -0.120  0.00  0.00    -0.016 C 
ATOM      6  C   UNL     1       0.541  -0.718  -1.358  0.00  0.00    +0.003 C 
ATOM      7  C   UNL     1       0.699  -2.237  -1.260  0.00  0.00    +0.002 C 
ATOM      8  C   UNL     1       1.502  -2.586  -0.005  0.00  0.00    -0.022 C 
ATOM      9  C   UNL     1       0.765  -2.069   1.232  0.00  0.00    -0.067 C 
ATOM     10  C   UNL     1       0.607  -0.550   1.134  0.00  0.00    -0.012 C 
BRANCH   8  11
ATOM     11  C   UNL     1       1.661  -4.104   0.093  0.00  0.00    -0.016 C 
ATOM     12  C   UNL     1       2.397  -4.621  -1.144  0.00  0.00    +0.007 C 
ATOM     13  C   UNL     1       2.464  -4.453   1.348  0.00  0.00    +0.007 C 
ENDBRANCH   8  11
ENDBRANCH   1   9
BRANCH   1  14
ATOM     14  C   UNL     1      -1.226  -2.281   2.552  0.00  0.00    -0.036 C 
ATOM     15  C   UNL     1      -2.662  -2.811   2.563  0.00  0.00    -0.008 C 
BRANCH  14  16
ATOM     16  C   UNL     1      -0.476  -2.840   3.734  0.00  0.00    -0.010 A 
ATOM     17  C   UNL     1      -0.122  -2.224   4.889  0.00  0.00    +0.026 A 
ATOM     18  C   UNL     1       0.572  -2.942   5.846  0.00  0.00    +0.023 A 
ATOM     19  C   UNL     1       0.878  -4.239   5.600  0.00  0.00    +0.046 A 
ATOM     20  S   UNL     1       0.171  -4.485   3.979  0.00  0.00    -0.102 S 
ATOM     21 BR   UNL     1      -0.571  -0.411   5.187  0.00  0.00    -0.050 Br
ENDBRANCH  14  16
ENDBRANCH   1  14
TORSDOF 4
