REMARK  Name = ZINC43528216
REMARK  6 active torsions:
REMARK  status: ('A' for Active; 'I' for Inactive)
REMARK    1  A    between atoms: C_1  and  C_2
REMARK    2  A    between atoms: C_4  and  C_27
REMARK    3  A    between atoms: C_6  and  C_8
REMARK    4  A    between atoms: C_17  and  C_19
REMARK    5  A    between atoms: C_19  and  N_20
REMARK    6  A    between atoms: N_20  and  C_21
REMARK                            x       y       z     vdW  Elec       q    Type
REMARK                         _______ _______ _______ _____ _____    ______ ____
ROOT
ATOM      1  C   UNL     1       0.051  -2.697   2.514  0.00  0.00    +0.024 C 
ATOM      2  C   UNL     1      -0.754  -3.994   2.401  0.00  0.00    -0.069 C 
ATOM      3  N   UNL     1       0.106  -5.144   2.689  0.00  0.00    +0.381 N 
ATOM      4  C   UNL     1       1.203  -5.223   1.721  0.00  0.00    -0.078 C 
ATOM      5  C   UNL     1       2.073  -3.966   1.812  0.00  0.00    -0.015 C 
ATOM      6  C   UNL     1       1.497  -3.040   2.895  0.00  0.00    -0.007 C 
ATOM      7  C   UNL     1       1.478  -3.805   4.225  0.00  0.00    -0.013 C 
ATOM      8  C   UNL     1       0.627  -5.069   4.056  0.00  0.00    -0.086 C 
ATOM      9  H   UNL     1      -0.446  -5.984   2.603  0.00  0.00    -0.082 HD
ENDROOT
BRANCH   1  15
ATOM     10  C   UNL     1      -0.018   1.503   0.010  0.00  0.00    +0.088 C 
ATOM     11  C   UNL     1       0.002  -0.004   0.002  0.00  0.00    +0.127 A 
ATOM     12  N   UNL     1       0.005  -0.637  -1.152  0.00  0.00    -0.232 NA
ATOM     13  C   UNL     1       0.023  -1.970  -1.197  0.00  0.00    +0.081 A 
ATOM     14  C   UNL     1       0.038  -2.686   0.008  0.00  0.00    +0.052 A 
ATOM     15  C   UNL     1       0.035  -1.975   1.192  0.00  0.00    +0.047 A 
ATOM     16  N   UNL     1       0.022  -0.650   1.151  0.00  0.00    -0.237 NA
BRANCH  13  17
ATOM     17  C   UNL     1       0.026  -2.678  -2.491  0.00  0.00    +0.038 A 
ATOM     18  C   UNL     1       0.018  -2.159  -3.760  0.00  0.00    +0.017 A 
ATOM     19  C   UNL     1       0.023  -3.025  -4.829  0.00  0.00    +0.008 A 
ATOM     20  C   UNL     1       0.035  -4.364  -4.597  0.00  0.00    +0.046 A 
ATOM     21  S   UNL     1       0.049  -4.434  -2.813  0.00  0.00    -0.095 S 
ENDBRANCH  13  17
ENDBRANCH   1  15
BRANCH   8  22
ATOM     22  C   UNL     1       1.487  -6.303   4.339  0.00  0.00    -0.098 C 
BRANCH  22  23
ATOM     23  N   UNL     1       0.703  -7.517   4.076  0.00  0.00    +0.380 N 
ATOM     24  H   UNL     1      -0.110  -7.528   4.674  0.00  0.00    -0.086 HD
ATOM     25  H   UNL     1       0.410  -7.526   3.110  0.00  0.00    -0.086 HD
BRANCH  23  26
ATOM     26  C   UNL     1       1.528  -8.701   4.349  0.00  0.00    -0.068 C 
ATOM     27  C   UNL     1       2.689  -8.757   3.352  0.00  0.00    +0.012 C 
ATOM     28  C   UNL     1       3.497 -10.035   3.592  0.00  0.00    +0.158 C 
ATOM     29  O   UNL     1       2.639 -11.171   3.465  0.00  0.00    -0.380 OA
ATOM     30  C   UNL     1       1.562 -11.196   4.404  0.00  0.00    +0.158 C 
ATOM     31  C   UNL     1       0.676  -9.965   4.196  0.00  0.00    +0.012 C 
ENDBRANCH  23  26
ENDBRANCH  22  23
ENDBRANCH   8  22
TORSDOF 5
