REMARK  Name = ZINC63373362
REMARK  12 active torsions:
REMARK  status: ('A' for Active; 'I' for Inactive)
REMARK    1  A    between atoms: C_1  and  C_2
REMARK    2  A    between atoms: C_2  and  C_3
REMARK    3  A    between atoms: C_3  and  C_4
REMARK    4  A    between atoms: C_4  and  C_5
REMARK    5  A    between atoms: C_5  and  N_6
REMARK    6  A    between atoms: C_12  and  C_28
REMARK    7  A    between atoms: C_24  and  C_27
REMARK    8  A    between atoms: C_32  and  O_37
REMARK    9  A    between atoms: C_33  and  O_34
REMARK   10  A    between atoms: O_34  and  C_35
REMARK   11  A    between atoms: C_35  and  C_36
REMARK   12  A    between atoms: O_37  and  C_38
REMARK                            x       y       z     vdW  Elec       q    Type
REMARK                         _______ _______ _______ _____ _____    ______ ____
ROOT
ATOM      1  N   UNL     1       1.471  -3.983  -2.539  0.00  0.00    -0.291 N 
ATOM      2  C   UNL     1       2.573  -4.743  -1.920  0.00  0.00    +0.203 C 
ATOM      3  C   UNL     1       1.982  -5.848  -1.071  0.00  0.00    +0.234 C 
ATOM      4  O   UNL     1       2.417  -6.105   0.032  0.00  0.00    -0.274 OA
ATOM      5  N   UNL     1       0.927  -6.546  -1.609  0.00  0.00    -0.283 N 
ATOM      6  C   UNL     1       0.219  -7.458  -0.728  0.00  0.00    +0.121 C 
ATOM      7  C   UNL     1      -0.672  -8.456  -1.473  0.00  0.00    +0.069 C 
ATOM      8  C   UNL     1      -1.321  -7.683  -2.592  0.00  0.00    -0.027 C 
ATOM      9  C   UNL     1      -2.586  -7.430  -2.895  0.00  0.00    -0.000 A 
ATOM     10  C   UNL     1      -3.852  -7.917  -2.323  0.00  0.00    +0.010 A 
ATOM     11  C   UNL     1      -4.990  -7.420  -2.875  0.00  0.00    +0.001 A 
ATOM     12  C   UNL     1      -4.997  -6.498  -3.926  0.00  0.00    +0.002 A 
ATOM     13  C   UNL     1      -3.881  -6.006  -4.521  0.00  0.00    +0.026 A 
ATOM     14  C   UNL     1      -2.622  -6.463  -4.036  0.00  0.00    +0.043 A 
ATOM     15  N   UNL     1      -1.415  -6.186  -4.436  0.00  0.00    -0.375 N 
ATOM     16  C   UNL     1      -0.479  -6.988  -3.650  0.00  0.00    +0.139 C 
ATOM     17  C   UNL     1       0.613  -6.210  -2.987  0.00  0.00    +0.135 C 
ATOM     18  C   UNL     1       0.469  -4.715  -3.112  0.00  0.00    +0.242 C 
ATOM     19  O   UNL     1      -0.467  -4.199  -3.684  0.00  0.00    -0.273 OA
ATOM     20  C   UNL     1       1.881  -6.536  -3.777  0.00  0.00    +0.044 C 
ATOM     21  H   UNL     1      -1.177  -5.557  -5.135  0.00  0.00    +0.160 HD
ENDROOT
BRANCH   7  22
ATOM     22  C   UNL     1      -1.722  -9.008  -0.543  0.00  0.00    +0.007 A 
ATOM     23  C   UNL     1      -2.630  -8.156   0.058  0.00  0.00    +0.008 A 
ATOM     24  C   UNL     1      -3.594  -8.659   0.911  0.00  0.00    +0.004 A 
ATOM     25  C   UNL     1      -3.655 -10.017   1.167  0.00  0.00    +0.049 A 
ATOM     26  C   UNL     1      -2.748 -10.876   0.568  0.00  0.00    +0.162 A 
ATOM     27  C   UNL     1      -1.780 -10.370  -0.295  0.00  0.00    +0.166 A 
BRANCH  26  28
ATOM     28  O   UNL     1      -2.806 -12.211   0.819  0.00  0.00    -0.491 OA
ATOM     29  C   UNL     1      -3.828 -12.659   1.711  0.00  0.00    +0.277 C 
ENDBRANCH  26  28
BRANCH  27  30
ATOM     30  O   UNL     1      -0.891 -11.210  -0.890  0.00  0.00    -0.488 OA
BRANCH  30  31
ATOM     31  C   UNL     1       0.328 -11.466  -0.190  0.00  0.00    +0.226 C 
ATOM     32  C   UNL     1       1.194 -12.425  -1.008  0.00  0.00    +0.048 C 
ENDBRANCH  30  31
ENDBRANCH  27  30
ENDBRANCH   7  22
BRANCH   1  33
ATOM     33  C   UNL     1       1.449  -2.518  -2.535  0.00  0.00    +0.108 C 
BRANCH  33  34
ATOM     34  C   UNL     1       0.733  -2.022  -1.277  0.00  0.00    +0.019 C 
BRANCH  34  35
ATOM     35  C   UNL     1       0.709  -0.492  -1.273  0.00  0.00    +0.001 C 
BRANCH  35  37
ATOM     36  C   UNL     1      -0.030   1.533  -0.012  0.00  0.00    +0.004 C 
ATOM     37  C   UNL     1      -0.007   0.004  -0.015  0.00  0.00    -0.003 C 
ENDBRANCH  35  37
ENDBRANCH  34  35
ENDBRANCH  33  34
ENDBRANCH   1  33
TORSDOF 8
