REMARK  Name = ZINC66188090
REMARK  9 active torsions:
REMARK  status: ('A' for Active; 'I' for Inactive)
REMARK    1  A    between atoms: C_1  and  C_2
REMARK    2  A    between atoms: C_2  and  C_3
REMARK    3  A    between atoms: C_3  and  C_4
REMARK    4  A    between atoms: C_4  and  C_5
REMARK    5  A    between atoms: C_8  and  C_11
REMARK    6  A    between atoms: C_11  and  N_12
REMARK    7  A    between atoms: N_15  and  C_16
REMARK    8  A    between atoms: N_15  and  C_17
REMARK    9  A    between atoms: N_20  and  C_23
REMARK                            x       y       z     vdW  Elec       q    Type
REMARK                         _______ _______ _______ _____ _____    ______ ____
ROOT
ATOM      1  N   UNL     1      -2.039  -6.402   3.477  0.00  0.00    -0.299 N 
ATOM      2  C   UNL     1      -1.426  -7.153   4.413  0.00  0.00    +0.302 C 
ATOM      3  O   UNL     1      -0.803  -6.618   5.310  0.00  0.00    -0.253 OA
ATOM      4  N   UNL     1      -1.503  -8.497   4.356  0.00  0.00    -0.286 N 
ATOM      5  C   UNL     1      -2.254  -9.142   3.275  0.00  0.00    +0.134 C 
ATOM      6  H   UNL     1      -2.536  -6.829   2.761  0.00  0.00    +0.150 HD
ENDROOT
BRANCH   4   7
ATOM      7  C   UNL     1      -0.837  -9.313   5.373  0.00  0.00    +0.074 C 
ATOM      8  C   UNL     1       0.186 -10.234   4.702  0.00  0.00    +0.004 C 
ATOM      9  C   UNL     1       0.821 -11.139   5.760  0.00  0.00    -0.077 C 
ATOM     10  N   UNL     1      -0.220 -11.949   6.405  0.00  0.00    +0.382 N 
ATOM     11  C   UNL     1      -1.165 -11.076   7.111  0.00  0.00    -0.077 C 
ATOM     12  C   UNL     1      -1.876 -10.168   6.105  0.00  0.00    +0.004 C 
ATOM     13  H   UNL     1      -0.714 -12.480   5.704  0.00  0.00    -0.081 HD
BRANCH  10  14
ATOM     14  C   UNL     1       0.403 -12.871   7.364  0.00  0.00    -0.064 C 
ATOM     15  C   UNL     1       1.375 -13.798   6.627  0.00  0.00    +0.013 C 
ATOM     16  C   UNL     1       1.960 -14.806   7.620  0.00  0.00    +0.158 C 
ATOM     17  O   UNL     1       0.897 -15.538   8.234  0.00  0.00    -0.380 OA
ATOM     18  C   UNL     1      -0.016 -14.729   8.977  0.00  0.00    +0.158 C 
ATOM     19  C   UNL     1      -0.680 -13.718   8.039  0.00  0.00    +0.013 C 
ENDBRANCH  10  14
ENDBRANCH   4   7
BRANCH   1  20
ATOM     20  C   UNL     1      -1.955  -4.941   3.539  0.00  0.00    +0.109 C 
BRANCH  20  24
ATOM     21  C   UNL     1      -2.848  -2.593   0.015  0.00  0.00    -0.011 C 
ATOM     22  C   UNL     1      -3.525  -2.205   1.331  0.00  0.00    +0.004 C 
ATOM     23  C   UNL     1      -2.749  -2.811   2.502  0.00  0.00    +0.005 C 
ATOM     24  C   UNL     1      -2.731  -4.335   2.368  0.00  0.00    +0.006 C 
ATOM     25  C   UNL     1      -2.054  -4.723   1.052  0.00  0.00    +0.005 C 
ATOM     26  C   UNL     1      -2.830  -4.117  -0.119  0.00  0.00    +0.004 C 
BRANCH  21  27
ATOM     27  C   UNL     1      -1.413  -2.063   0.004  0.00  0.00    +0.003 C 
BRANCH  27  28
ATOM     28  C   UNL     1      -1.433  -0.534   0.013  0.00  0.00    +0.000 C 
BRANCH  28  30
ATOM     29  C   UNL     1      -0.019   1.526   0.010  0.00  0.00    +0.004 C 
ATOM     30  C   UNL     1       0.002  -0.004   0.002  0.00  0.00    -0.003 C 
ENDBRANCH  28  30
ENDBRANCH  27  28
ENDBRANCH  21  27
ENDBRANCH  20  24
ENDBRANCH   1  20
TORSDOF 7
