REMARK  Name = ZINC40177087
REMARK  10 active torsions:
REMARK  status: ('A' for Active; 'I' for Inactive)
REMARK    1  A    between atoms: C_1  and  C_2
REMARK    2  A    between atoms: C_4  and  C_26
REMARK    3  A    between atoms: C_8  and  N_13
REMARK    4  A    between atoms: C_10  and  C_12
REMARK    5  A    between atoms: C_14  and  C_16
REMARK    6  A    between atoms: C_19  and  C_21
REMARK    7  A    between atoms: C_21  and  O_22
REMARK    8  A    between atoms: O_22  and  C_23
REMARK    9  A    between atoms: C_23  and  C_24
REMARK   10  A    between atoms: C_23  and  C_25
REMARK                            x       y       z     vdW  Elec       q    Type
REMARK                         _______ _______ _______ _____ _____    ______ ____
ROOT
ATOM      1  N   UNL     1       0.050  -2.190   3.615  0.00  0.00    -0.278 N 
ATOM      2  C   UNL     1      -0.036  -2.915   4.748  0.00  0.00    +0.284 C 
ATOM      3  O   UNL     1      -0.021  -4.130   4.695  0.00  0.00    -0.266 OA
ATOM      4  H   UNL     1       0.119  -1.223   3.663  0.00  0.00    +0.155 HD
ENDROOT
BRANCH   1  12
ATOM      5  C   UNL     1       2.442   0.943   0.283  0.00  0.00    +0.044 C 
ATOM      6  C   UNL     1       1.787  -0.412   0.201  0.00  0.00    -0.049 A 
ATOM      7  C   UNL     1       1.755  -1.087  -1.017  0.00  0.00    +0.008 A 
ATOM      8  C   UNL     1       1.171  -2.312  -1.125  0.00  0.00    -0.024 A 
ATOM      9  C   UNL     1       0.590  -2.910   0.007  0.00  0.00    +0.076 A 
ATOM     10  C   UNL     1       0.625  -2.222   1.243  0.00  0.00    +0.022 A 
ATOM     11  C   UNL     1       1.239  -0.964   1.320  0.00  0.00    +0.015 A 
ATOM     12  C   UNL     1       0.040  -2.826   2.380  0.00  0.00    +0.045 A 
ATOM     13  C   UNL     1      -0.543  -4.073   2.224  0.00  0.00    +0.047 A 
ATOM     14  C   UNL     1      -0.537  -4.684   0.977  0.00  0.00    +0.041 A 
ATOM     15  N   UNL     1       0.010  -4.113  -0.071  0.00  0.00    -0.251 NA
ATOM     16  C   UNL     1      -1.175  -6.041   0.823  0.00  0.00    +0.065 C 
ATOM     17  C   UNL     1       1.146  -3.024  -2.453  0.00  0.00    +0.046 C 
ENDBRANCH   1  12
BRANCH   2  18
ATOM     18  C   UNL     1      -0.149  -2.239   6.044  0.00  0.00    +0.190 A 
ATOM     19  C   UNL     1      -0.238  -2.850   7.263  0.00  0.00    +0.055 A 
ATOM     20  C   UNL     1      -0.327  -1.828   8.221  0.00  0.00    +0.048 A 
ATOM     21  C   UNL     1      -0.289  -0.653   7.554  0.00  0.00    +0.131 A 
ATOM     22  O   UNL     1      -0.177  -0.905   6.243  0.00  0.00    -0.453 OA
BRANCH  21  23
ATOM     23  C   UNL     1      -0.358   0.715   8.182  0.00  0.00    +0.234 C 
BRANCH  23  24
ATOM     24  O   UNL     1       0.964   1.165   8.488  0.00  0.00    -0.369 OA
BRANCH  24  25
ATOM     25  C   UNL     1       1.012   2.459   9.091  0.00  0.00    +0.113 C 
ATOM     26  C   UNL     1       0.933   2.317  10.612  0.00  0.00    +0.037 C 
ATOM     27  C   UNL     1       2.323   3.151   8.711  0.00  0.00    +0.037 C 
ENDBRANCH  24  25
ENDBRANCH  23  24
ENDBRANCH  21  23
ENDBRANCH   2  18
TORSDOF 5
