REMARK  Name = ZINC40702206
REMARK  7 active torsions:
REMARK  status: ('A' for Active; 'I' for Inactive)
REMARK    1  A    between atoms: C_1  and  C_2
REMARK    2  A    between atoms: C_2  and  N_3
REMARK    3  A    between atoms: N_3  and  C_4
REMARK    4  A    between atoms: C_15  and  N_32
REMARK    5  A    between atoms: C_16  and  N_20
REMARK    6  A    between atoms: N_20  and  C_21
REMARK    7  A    between atoms: C_29  and  C_31
REMARK                            x       y       z     vdW  Elec       q    Type
REMARK                         _______ _______ _______ _____ _____    ______ ____
ROOT
ATOM      1  N   UNL     1       0.743  -0.535   1.062  0.00  0.00    -0.283 N 
ATOM      2  C   UNL     1       2.119  -0.702   0.960  0.00  0.00    +0.151 A 
ATOM      3  C   UNL     1       2.788  -0.372  -0.221  0.00  0.00    +0.104 A 
ATOM      4  C   UNL     1       4.171  -0.558  -0.269  0.00  0.00    +0.126 A 
ATOM      5  N   UNL     1       4.794  -1.040   0.804  0.00  0.00    -0.333 N 
ATOM      6  C   UNL     1       4.125  -1.339   1.899  0.00  0.00    +0.200 A 
ATOM      7  N   UNL     1       2.821  -1.173   1.988  0.00  0.00    -0.220 NA
ATOM      8  H   UNL     1       5.755  -1.173   0.779  0.00  0.00    +0.168 HD
ENDROOT
BRANCH   1   9
ATOM      9  C   UNL     1      -0.109  -1.613   0.824  0.00  0.00    +0.043 A 
ATOM     10  C   UNL     1      -0.580  -1.860  -0.448  0.00  0.00    +0.024 A 
ATOM     11  C   UNL     1      -1.431  -2.933  -0.696  0.00  0.00    +0.002 A 
ATOM     12  C   UNL     1      -1.822  -3.766   0.308  0.00  0.00    +0.008 A 
ATOM     13  C   UNL     1      -1.365  -3.549   1.619  0.00  0.00    -0.016 A 
ATOM     14  C   UNL     1      -0.493  -2.463   1.883  0.00  0.00    +0.003 A 
ATOM     15  C   UNL     1      -0.034  -2.251   3.192  0.00  0.00    +0.010 A 
ATOM     16  C   UNL     1      -0.425  -3.091   4.189  0.00  0.00    +0.001 A 
ATOM     17  C   UNL     1      -1.278  -4.163   3.929  0.00  0.00    +0.001 A 
ATOM     18  C   UNL     1      -1.753  -4.392   2.674  0.00  0.00    +0.008 A 
ENDBRANCH   1   9
BRANCH   3  19
ATOM     19  N   UNL     1       2.090   0.133  -1.329  0.00  0.00    -0.353 N 
ATOM     20  H   UNL     1       1.143   0.332  -1.255  0.00  0.00    +0.143 HD
ATOM     21  H   UNL     1       2.553   0.283  -2.167  0.00  0.00    +0.143 HD
ENDBRANCH   3  19
BRANCH   1  23
ATOM     22  C   UNL     1      -0.040   0.835   2.930  0.00  0.00    +0.025 C 
ATOM     23  C   UNL     1       0.188   0.773   1.419  0.00  0.00    +0.109 C 
ENDBRANCH   1  23
BRANCH   4  24
ATOM     24  N   UNL     1       4.886  -0.246  -1.421  0.00  0.00    -0.299 N 
ATOM     25  H   UNL     1       4.417   0.048  -2.217  0.00  0.00    +0.154 HD
BRANCH  24  26
ATOM     26  C   UNL     1       6.274  -0.357  -1.429  0.00  0.00    +0.042 A 
ATOM     27  C   UNL     1       7.063   0.774  -1.385  0.00  0.00    +0.024 A 
ATOM     28  C   UNL     1       8.450   0.671  -1.394  0.00  0.00    +0.004 A 
ATOM     29  C   UNL     1       9.066  -0.542  -1.447  0.00  0.00    +0.028 A 
ATOM     30  C   UNL     1       8.301  -1.720  -1.493  0.00  0.00    +0.073 A 
ATOM     31  C   UNL     1       6.887  -1.626  -1.479  0.00  0.00    +0.022 A 
ATOM     32  C   UNL     1       6.125  -2.806  -1.520  0.00  0.00    +0.013 A 
ATOM     33  C   UNL     1       6.787  -4.001  -1.568  0.00  0.00    +0.024 A 
ATOM     34  C   UNL     1       8.179  -4.024  -1.573  0.00  0.00    +0.039 A 
ATOM     35  N   UNL     1       8.887  -2.921  -1.546  0.00  0.00    -0.252 NA
ATOM     36  C   UNL     1       8.890  -5.351  -1.626  0.00  0.00    +0.065 C 
ENDBRANCH  24  26
ENDBRANCH   4  24
TORSDOF 5
