REMARK  Name = ZINC09859566
REMARK  8 active torsions:
REMARK  status: ('A' for Active; 'I' for Inactive)
REMARK    1  A    between atoms: C_1  and  C_2
REMARK    2  A    between atoms: C_2  and  O_3
REMARK    3  A    between atoms: O_3  and  C_4
REMARK    4  A    between atoms: C_7  and  C_10
REMARK    5  A    between atoms: C_14  and  S_16
REMARK    6  A    between atoms: S_16  and  C_17
REMARK    7  A    between atoms: C_17  and  C_18
REMARK    8  A    between atoms: N_20  and  C_21
REMARK                            x       y       z     vdW  Elec       q    Type
REMARK                         _______ _______ _______ _____ _____    ______ ____
ROOT
ATOM      1  C   UNL     1       3.596   6.968  -1.078  0.00  0.00    +0.165 A 
ATOM      2  N   UNL     1       3.537   5.701  -0.692  0.00  0.00    -0.193 NA
ATOM      3  C   UNL     1       2.381   5.155  -0.319  0.00  0.00    +0.228 A 
ATOM      4  C   UNL     1       1.234   5.931  -0.339  0.00  0.00    +0.051 A 
ATOM      5  C   UNL     1       1.329   7.260  -0.751  0.00  0.00    +0.108 A 
ATOM      6  N   UNL     1       2.518   7.739  -1.110  0.00  0.00    -0.221 NA
ATOM      7  C   UNL     1      -0.093   5.364   0.077  0.00  0.00    +0.082 C 
ATOM      8  C   UNL     1      -0.044   3.859   0.079  0.00  0.00    -0.000 A 
ATOM      9  C   UNL     1      -1.228   3.144   0.085  0.00  0.00    +0.007 A 
ATOM     10  C   UNL     1      -1.207   1.762   0.084  0.00  0.00    +0.001 A 
ATOM     11  C   UNL     1       0.002   1.090   0.084  0.00  0.00    +0.004 A 
ATOM     12  C   UNL     1       1.186   1.798   0.077  0.00  0.00    +0.046 A 
ATOM     13  C   UNL     1       1.168   3.189   0.075  0.00  0.00    +0.134 A 
ATOM     14  O   UNL     1       2.343   3.864   0.070  0.00  0.00    -0.437 OA
ENDROOT
BRANCH   1  18
ATOM     15  C   UNL     1       7.343   8.602  -2.248  0.00  0.00    +0.121 A 
ATOM     16  C   UNL     1       7.262   7.277  -1.839  0.00  0.00    +0.046 A 
ATOM     17  C   UNL     1       6.049   6.745  -1.460  0.00  0.00    +0.015 A 
ATOM     18  C   UNL     1       4.902   7.538  -1.486  0.00  0.00    +0.019 A 
ATOM     19  C   UNL     1       4.986   8.867  -1.901  0.00  0.00    +0.015 A 
ATOM     20  C   UNL     1       6.203   9.395  -2.274  0.00  0.00    +0.046 A 
BRANCH  15  21
ATOM     21  O   UNL     1       8.540   9.124  -2.622  0.00  0.00    -0.492 OA
BRANCH  21  23
ATOM     22  C   UNL     1       9.976  10.900  -3.412  0.00  0.00    +0.048 C 
ATOM     23  C   UNL     1       8.552  10.493  -3.030  0.00  0.00    +0.225 C 
ENDBRANCH  21  23
ENDBRANCH  15  21
ENDBRANCH   1  18
BRANCH   5  24
ATOM     24  S   UNL     1      -0.101   8.288  -0.795  0.00  0.00    -0.096 S 
BRANCH  24  25
ATOM     25  C   UNL     1       0.638   9.829  -1.388  0.00  0.00    +0.171 C 
BRANCH  25  26
ATOM     26  C   UNL     1      -0.430  10.886  -1.507  0.00  0.00    +0.228 C 
ATOM     27  O   UNL     1      -1.578  10.622  -1.218  0.00  0.00    -0.275 OA
ATOM     28  N   UNL     1      -0.110  12.123  -1.933  0.00  0.00    -0.283 N 
ATOM     29  H   UNL     1       0.818  12.353  -2.102  0.00  0.00    +0.155 HD
BRANCH  28  30
ATOM     30  C   UNL     1      -1.115  13.078  -2.133  0.00  0.00    +0.069 A 
ATOM     31  C   UNL     1      -2.229  13.098  -1.304  0.00  0.00    +0.026 A 
ATOM     32  C   UNL     1      -3.216  14.044  -1.500  0.00  0.00    +0.002 A 
ATOM     33  C   UNL     1      -3.103  14.963  -2.527  0.00  0.00    +0.003 A 
ATOM     34  C   UNL     1      -1.998  14.944  -3.358  0.00  0.00    +0.040 A 
ATOM     35  C   UNL     1      -1.003  14.003  -3.164  0.00  0.00    +0.144 A 
ATOM     36  F   UNL     1       0.076  13.983  -3.977  0.00  0.00    -0.204 F 
ENDBRANCH  28  30
ENDBRANCH  25  26
ENDBRANCH  24  25
ENDBRANCH   5  24
TORSDOF 7
