REMARK  Name = ZINC12083771
REMARK  5 active torsions:
REMARK  status: ('A' for Active; 'I' for Inactive)
REMARK    1  A    between atoms: C_1  and  C_2
REMARK    2  A    between atoms: C_4  and  C_27
REMARK    3  A    between atoms: C_12  and  C_14
REMARK    4  A    between atoms: C_15  and  N_26
REMARK    5  A    between atoms: C_17  and  C_25
REMARK                            x       y       z     vdW  Elec       q    Type
REMARK                         _______ _______ _______ _____ _____    ______ ____
ROOT
ATOM      1  C   UNL     1      -0.392   0.069   0.052  0.00  0.00    +0.044 C 
ATOM      2  C   UNL     1      -1.055   0.666   1.267  0.00  0.00    -0.049 A 
ATOM      3  C   UNL     1      -2.424   0.893   1.278  0.00  0.00    +0.009 A 
ATOM      4  C   UNL     1      -3.052   1.429   2.371  0.00  0.00    -0.024 A 
ATOM      5  C   UNL     1      -2.317   1.782   3.526  0.00  0.00    +0.083 A 
ATOM      6  C   UNL     1      -0.924   1.542   3.477  0.00  0.00    +0.041 A 
ATOM      7  C   UNL     1      -0.305   0.999   2.379  0.00  0.00    +0.020 A 
ATOM      8  S   UNL     1      -0.387   2.105   5.074  0.00  0.00    -0.052 S 
ATOM      9  C   UNL     1      -1.990   2.606   5.686  0.00  0.00    +0.166 A 
ATOM     10  N   UNL     1      -2.777   2.320   4.676  0.00  0.00    -0.224 NA
ATOM     11  N   UNL     1      -2.317   3.155   6.914  0.00  0.00    -0.260 N 
ATOM     12  C   UNL     1      -1.355   3.376   7.831  0.00  0.00    +0.258 C 
ATOM     13  O   UNL     1      -0.197   3.092   7.580  0.00  0.00    -0.269 OA
ATOM     14  C   UNL     1      -4.543   1.650   2.340  0.00  0.00    +0.046 C 
ATOM     15  H   UNL     1      -3.239   3.382   7.114  0.00  0.00    +0.157 HD
ENDROOT
BRANCH  12  16
ATOM     16  C   UNL     1      -1.689   3.937   9.085  0.00  0.00    +0.097 A 
ATOM     17  C   UNL     1      -0.852   4.229  10.145  0.00  0.00    +0.054 A 
ATOM     18  C   UNL     1      -1.465   4.811  11.329  0.00  0.00    +0.030 A 
ATOM     19  C   UNL     1      -0.829   5.204  12.546  0.00  0.00    -0.034 A 
ATOM     20  C   UNL     1      -1.565   5.728  13.556  0.00  0.00    +0.074 A 
ATOM     21  C   UNL     1      -2.954   5.892  13.422  0.00  0.00    +0.250 A 
ATOM     22  O   UNL     1      -3.604   6.366  14.339  0.00  0.00    -0.268 OA
ATOM     23  N   UNL     1      -3.567   5.526  12.279  0.00  0.00    -0.317 N 
ATOM     24  H   UNL     1      -4.526   5.641  12.188  0.00  0.00    +0.169 HD
ATOM     25  C   UNL     1      -2.852   4.998  11.252  0.00  0.00    +0.090 A 
ATOM     26  S   UNL     1      -3.291   4.431   9.683  0.00  0.00    -0.064 S 
ATOM     27  C   UNL     1       0.659   5.035  12.708  0.00  0.00    +0.044 C 
BRANCH  17  28
ATOM     28  N   UNL     1       0.511   3.981  10.082  0.00  0.00    -0.356 N 
ATOM     29  H   UNL     1       0.918   3.716   9.242  0.00  0.00    +0.142 HD
ATOM     30  H   UNL     1       1.058   4.072  10.877  0.00  0.00    +0.142 HD
ENDBRANCH  17  28
ENDBRANCH  12  16
TORSDOF 2
