REMARK  Name = ZINC09043206
REMARK  6 active torsions:
REMARK  status: ('A' for Active; 'I' for Inactive)
REMARK    1  A    between atoms: C_1  and  N_55
REMARK    2  A    between atoms: C_3  and  C_29
REMARK    3  A    between atoms: C_5  and  C_21
REMARK    4  A    between atoms: C_12  and  C_17
REMARK    5  A    between atoms: C_21  and  C_23
REMARK    6  A    between atoms: C_33  and  N_35
REMARK                            x       y       z     vdW  Elec       q    Type
REMARK                         _______ _______ _______ _____ _____    ______ ____
ROOT
ATOM      1  C   UNL     1       2.752  -2.417   0.035  0.00  0.00    -0.094 C 
ATOM      2  C   UNL     1       0.919  -1.740  -1.419  0.00  0.00    -0.068 C 
ATOM      3  C   UNL     1      -0.057  -0.536  -1.450  0.00  0.00    +0.013 C 
ATOM      4  C   UNL     1       0.002  -0.004   0.002  0.00  0.00    +0.068 C 
ATOM      5  C   UNL     1       1.333  -0.523   0.559  0.00  0.00    +0.050 C 
ATOM      6  C   UNL     1       1.112  -1.381   1.775  0.00  0.00    -0.027 A 
ATOM      7  C   UNL     1       0.420  -2.552   1.991  0.00  0.00    +0.004 A 
ATOM      8  C   UNL     1       0.398  -3.119   3.253  0.00  0.00    +0.001 A 
ATOM      9  C   UNL     1       1.072  -2.508   4.294  0.00  0.00    +0.014 A 
ATOM     10  C   UNL     1       1.767  -1.335   4.082  0.00  0.00    +0.076 A 
ATOM     11  C   UNL     1       1.794  -0.757   2.814  0.00  0.00    +0.047 A 
ATOM     12  N   UNL     1       2.416   0.405   2.354  0.00  0.00    -0.286 N 
ATOM     13  C   UNL     1       2.195   0.615   1.043  0.00  0.00    +0.212 C 
ATOM     14  O   UNL     1       2.609   1.541   0.379  0.00  0.00    -0.277 OA
ATOM     15  H   UNL     1       2.945   0.994   2.915  0.00  0.00    +0.155 HD
ATOM     16  N   UNL     1       1.979  -1.264  -0.519  0.00  0.00    +0.391 N 
ATOM     17  H   UNL     1       2.618  -0.646  -1.032  0.00  0.00    -0.080 HD
ENDROOT
BRANCH   3  18
ATOM     18  C   UNL     1      -1.453  -0.984  -1.798  0.00  0.00    -0.043 A 
ATOM     19  C   UNL     1      -2.054  -1.996  -1.072  0.00  0.00    +0.004 A 
ATOM     20  C   UNL     1      -3.337  -2.404  -1.387  0.00  0.00    +0.002 A 
ATOM     21  C   UNL     1      -4.014  -1.808  -2.435  0.00  0.00    +0.033 A 
ATOM     22  C   UNL     1      -3.410  -0.801  -3.164  0.00  0.00    +0.126 A 
ATOM     23  C   UNL     1      -2.130  -0.389  -2.845  0.00  0.00    +0.036 A 
BRANCH  22  24
ATOM     24  N   UNL     1      -4.135  -0.163  -4.286  0.00  0.00    +0.056 N 
ATOM     25  O   UNL     1      -3.603   0.725  -4.928  0.00  0.00    -0.126 OA
ATOM     26  O   UNL     1      -5.263  -0.526  -4.567  0.00  0.00    -0.126 OA
ENDBRANCH  22  24
ENDBRANCH   3  18
BRANCH  10  27
ATOM     27  C   UNL     1       2.498  -0.678   5.223  0.00  0.00    +0.419 C 
ATOM     28  F   UNL     1       2.326  -1.436   6.386  0.00  0.00    -0.166 F 
ATOM     29  F   UNL     1       3.861  -0.594   4.918  0.00  0.00    -0.166 F 
ATOM     30  F   UNL     1       1.986   0.609   5.426  0.00  0.00    -0.166 F 
ENDBRANCH  10  27
BRANCH   4  31
ATOM     31  C   UNL     1      -0.018   1.503   0.010  0.00  0.00    +0.166 C 
ATOM     32  O   UNL     1       0.392   2.118  -0.946  0.00  0.00    -0.292 OA
BRANCH  31  33
ATOM     33  C   UNL     1      -0.544   2.227   1.183  0.00  0.00    +0.021 A 
ATOM     34  C   UNL     1      -1.035   1.534   2.297  0.00  0.00    +0.031 A 
ATOM     35  C   UNL     1      -1.513   2.253   3.375  0.00  0.00    +0.111 A 
ATOM     36  N   UNL     1      -1.521   3.571   3.360  0.00  0.00    -0.263 NA
ATOM     37  C   UNL     1      -1.074   4.263   2.331  0.00  0.00    +0.111 A 
ATOM     38  C   UNL     1      -0.573   3.627   1.212  0.00  0.00    +0.031 A 
ENDBRANCH  31  33
ENDBRANCH   4  31
TORSDOF 5
