REMARK  Name = ZINC01809711
REMARK  13 active torsions:
REMARK  status: ('A' for Active; 'I' for Inactive)
REMARK    1  A    between atoms: C_1  and  C_2
REMARK    2  A    between atoms: C_2  and  C_4
REMARK    3  A    between atoms: C_2  and  N_12
REMARK    4  A    between atoms: C_4  and  C_5
REMARK    5  A    between atoms: C_5  and  C_6
REMARK    6  A    between atoms: C_13  and  C_15
REMARK    7  A    between atoms: C_15  and  S_16
REMARK    8  A    between atoms: S_16  and  C_17
REMARK    9  A    between atoms: C_26  and  C_28
REMARK   10  A    between atoms: C_26  and  C_29
REMARK   11  A    between atoms: N_32  and  C_33
REMARK   12  A    between atoms: C_33  and  C_34
REMARK   13  A    between atoms: C_34  and  C_35
REMARK                            x       y       z     vdW  Elec       q    Type
REMARK                         _______ _______ _______ _____ _____    ______ ____
ROOT
ATOM      1  C   UNL     1      -5.739  -1.846  -2.652  0.00  0.00    +0.173 A 
ATOM      2  N   UNL     1      -6.197  -2.132  -1.451  0.00  0.00    -0.216 NA
ATOM      3  C   UNL     1      -7.428  -2.602  -1.286  0.00  0.00    +0.117 A 
ATOM      4  C   UNL     1      -8.298  -2.817  -2.370  0.00  0.00    +0.076 A 
ATOM      5  C   UNL     1      -9.620  -3.338  -2.030  0.00  0.00    -0.018 A 
ATOM      6  C   UNL     1      -9.876  -3.559  -0.722  0.00  0.00    +0.021 A 
ATOM      7  S   UNL     1      -8.392  -3.094   0.122  0.00  0.00    -0.071 S 
ATOM      8  C   UNL     1     -11.155  -4.086  -0.147  0.00  0.00    +0.203 C 
ATOM      9  O   UNL     1     -12.161  -4.017  -1.170  0.00  0.00    -0.368 OA
ATOM     10  C   UNL     1     -11.737  -4.557  -2.425  0.00  0.00    +0.068 C 
ATOM     11  C   UNL     1     -10.697  -3.636  -3.070  0.00  0.00    +0.071 C 
ATOM     12  C   UNL     1     -11.121  -5.939  -2.200  0.00  0.00    +0.041 C 
ATOM     13  C   UNL     1     -12.945  -4.688  -3.354  0.00  0.00    +0.041 C 
ATOM     14  C   UNL     1      -7.772  -2.498  -3.662  0.00  0.00    +0.263 A 
ATOM     15  O   UNL     1      -8.454  -2.651  -4.661  0.00  0.00    -0.267 OA
ATOM     16  N   UNL     1      -6.518  -2.020  -3.759  0.00  0.00    -0.287 N 
ENDROOT
BRANCH   1  17
ATOM     17  S   UNL     1      -4.100  -1.225  -2.832  0.00  0.00    -0.078 S 
BRANCH  17  18
ATOM     18  C   UNL     1      -3.465  -1.164  -1.134  0.00  0.00    +0.173 C 
BRANCH  18  20
ATOM     19  N   UNL     1      -1.372  -0.511   0.012  0.00  0.00    -0.312 N 
ATOM     20  C   UNL     1      -2.051  -0.643  -1.145  0.00  0.00    +0.224 C 
ATOM     21  O   UNL     1      -1.524  -0.341  -2.194  0.00  0.00    -0.275 OA
ATOM     22  H   UNL     1      -1.794  -0.752   0.852  0.00  0.00    +0.149 HD
BRANCH  19  24
ATOM     23  C   UNL     1      -0.019   1.526   0.010  0.00  0.00    +0.028 C 
ATOM     24  C   UNL     1       0.002  -0.004   0.002  0.00  0.00    +0.070 C 
BRANCH  24  25
ATOM     25  C   UNL     1       0.742  -0.511   1.242  0.00  0.00    +0.026 C 
BRANCH  25  26
ATOM     26  C   UNL     1       0.872  -2.034   1.171  0.00  0.00    +0.037 C 
BRANCH  26  27
ATOM     27  C   UNL     1       1.601  -2.533   2.392  0.00  0.00    -0.047 A 
ATOM     28  C   UNL     1       2.979  -2.641   2.378  0.00  0.00    +0.003 A 
ATOM     29  C   UNL     1       3.647  -3.099   3.498  0.00  0.00    +0.000 A 
ATOM     30  C   UNL     1       2.938  -3.448   4.632  0.00  0.00    +0.000 A 
ATOM     31  C   UNL     1       1.560  -3.340   4.646  0.00  0.00    +0.000 A 
ATOM     32  C   UNL     1       0.892  -2.878   3.527  0.00  0.00    +0.003 A 
ENDBRANCH  26  27
ENDBRANCH  25  26
ENDBRANCH  24  25
ENDBRANCH  19  24
ENDBRANCH  18  20
ENDBRANCH  17  18
ENDBRANCH   1  17
BRANCH  16  33
ATOM     33  C   UNL     1      -5.977  -1.686  -5.079  0.00  0.00    +0.132 C 
BRANCH  33  34
ATOM     34  C   UNL     1      -5.292  -2.917  -5.676  0.00  0.00    +0.057 C 
BRANCH  34  35
ATOM     35  C   UNL     1      -4.735  -2.573  -7.034  0.00  0.00    -0.046 A 
ATOM     36  C   UNL     1      -5.515  -2.739  -8.163  0.00  0.00    +0.004 A 
ATOM     37  C   UNL     1      -5.004  -2.424  -9.408  0.00  0.00    +0.000 A 
ATOM     38  C   UNL     1      -3.714  -1.942  -9.524  0.00  0.00    +0.000 A 
ATOM     39  C   UNL     1      -2.934  -1.776  -8.395  0.00  0.00    +0.000 A 
ATOM     40  C   UNL     1      -3.446  -2.087  -7.149  0.00  0.00    +0.004 A 
ENDBRANCH  34  35
ENDBRANCH  33  34
ENDBRANCH  16  33
TORSDOF 10
