REMARK  Name = ZINC38702086
REMARK  6 active torsions:
REMARK  status: ('A' for Active; 'I' for Inactive)
REMARK    1  A    between atoms: C_1  and  C_2
REMARK    2  A    between atoms: C_4  and  C_35
REMARK    3  A    between atoms: C_5  and  O_34
REMARK    4  A    between atoms: C_6  and  C_8
REMARK    5  A    between atoms: N_16  and  C_26
REMARK    6  A    between atoms: C_17  and  C_19
REMARK                            x       y       z     vdW  Elec       q    Type
REMARK                         _______ _______ _______ _____ _____    ______ ____
ROOT
ATOM      1  C   UNL     1      -0.204  -3.109   2.772  0.00  0.00    +0.102 A 
ATOM      2  C   UNL     1       0.031  -2.390   3.949  0.00  0.00    +0.035 A 
ATOM      3  C   UNL     1       0.080  -3.330   4.961  0.00  0.00    +0.126 A 
ATOM      4  N   UNL     1      -0.124  -4.541   4.364  0.00  0.00    -0.272 N 
ATOM      5  H   UNL     1      -0.143  -5.394   4.827  0.00  0.00    +0.189 HD
ATOM      6  N   UNL     1      -0.290  -4.384   3.099  0.00  0.00    -0.173 NA
ATOM      7  C   UNL     1       0.325  -2.636   6.231  0.00  0.00    +0.266 C 
ATOM      8  O   UNL     1       0.423  -3.182   7.313  0.00  0.00    -0.268 OA
ATOM      9  N   UNL     1       0.428  -1.310   6.027  0.00  0.00    -0.280 N 
ATOM     10  C   UNL     1       0.253  -1.049   4.593  0.00  0.00    +0.142 C 
ENDROOT
BRANCH   1  16
ATOM     11  C   UNL     1       1.439  -0.053  -0.816  0.00  0.00    +0.044 C 
ATOM     12  C   UNL     1       0.447  -1.073  -0.321  0.00  0.00    -0.049 A 
ATOM     13  C   UNL     1      -0.592  -1.479  -1.140  0.00  0.00    +0.010 A 
ATOM     14  C   UNL     1      -1.507  -2.414  -0.694  0.00  0.00    -0.008 A 
ATOM     15  C   UNL     1      -1.388  -2.950   0.579  0.00  0.00    +0.129 A 
ATOM     16  C   UNL     1      -0.340  -2.542   1.408  0.00  0.00    +0.044 A 
ATOM     17  C   UNL     1       0.580  -1.603   0.947  0.00  0.00    +0.017 A 
ATOM     18  C   UNL     1      -2.635  -2.851  -1.592  0.00  0.00    +0.047 C 
BRANCH  15  19
ATOM     19  O   UNL     1      -2.287  -3.868   1.018  0.00  0.00    -0.506 OA
ATOM     20  H   UNL     1      -2.041  -4.783   0.825  0.00  0.00    +0.292 HD
ENDBRANCH  15  19
ENDBRANCH   1  16
BRANCH  10  21
ATOM     21  C   UNL     1      -0.944  -0.162   4.369  0.00  0.00    -0.021 A 
ATOM     22  C   UNL     1      -2.115  -0.390   5.069  0.00  0.00    +0.006 A 
ATOM     23  C   UNL     1      -3.213   0.424   4.864  0.00  0.00    +0.001 A 
ATOM     24  C   UNL     1      -3.142   1.466   3.958  0.00  0.00    +0.015 A 
ATOM     25  C   UNL     1      -1.972   1.695   3.258  0.00  0.00    +0.018 A 
ATOM     26  C   UNL     1      -0.871   0.884   3.468  0.00  0.00    +0.021 A 
ATOM     27 BR   UNL     1      -1.874   3.120   2.019  0.00  0.00    -0.050 Br
ENDBRANCH  10  21
BRANCH   9  28
ATOM     28  C   UNL     1       0.672  -0.300   7.060  0.00  0.00    +0.100 C 
ATOM     29  C   UNL     1       1.997  -0.603   7.779  0.00  0.00    +0.047 C 
ATOM     30  C   UNL     1       2.107   0.253   9.065  0.00  0.00    +0.168 C 
ATOM     31  S   UNL     1       0.347   0.511   9.530  0.00  0.00    -0.029 S 
ATOM     32  O   UNL     1       0.073  -0.211  10.723  0.00  0.00    -0.174 OA
ATOM     33  O   UNL     1       0.051   1.899   9.469  0.00  0.00    -0.174 OA
ATOM     34  C   UNL     1      -0.471  -0.339   8.114  0.00  0.00    +0.188 C 
ENDBRANCH   9  28
TORSDOF 4
