REMARK  Name = ZINC39854711
REMARK  5 active torsions:
REMARK  status: ('A' for Active; 'I' for Inactive)
REMARK    1  A    between atoms: C_1  and  C_2
REMARK    2  A    between atoms: C_2  and  C_30
REMARK    3  A    between atoms: C_7  and  C_18
REMARK    4  A    between atoms: N_20  and  N_21
REMARK    5  A    between atoms: C_22  and  C_24
REMARK                            x       y       z     vdW  Elec       q    Type
REMARK                         _______ _______ _______ _____ _____    ______ ____
ROOT
ATOM      1  C   UNL     1      -0.019   1.526   0.010  0.00  0.00    +0.013 C 
ATOM      2  C   UNL     1       0.002  -0.004   0.002  0.00  0.00    -0.007 C 
ATOM      3  C   UNL     1       1.030  -0.582  -1.039  0.00  0.00    +0.047 C 
ATOM      4  C   UNL     1       0.959  -2.102  -0.688  0.00  0.00    +0.012 C 
ATOM      5  C   UNL     1       0.763  -2.125   0.847  0.00  0.00    +0.024 C 
ATOM      6  C   UNL     1       0.750  -0.599   1.252  0.00  0.00    +0.098 C 
ATOM      7  C   UNL     1       2.170  -0.101   0.974  0.00  0.00    +0.079 A 
ATOM      8  C   UNL     1       2.341  -0.091  -0.420  0.00  0.00    +0.068 A 
ATOM      9  N   UNL     1       3.470   0.292  -0.954  0.00  0.00    -0.248 NA
ATOM     10  C   UNL     1       4.476   0.683  -0.160  0.00  0.00    +0.090 A 
ATOM     11  C   UNL     1       5.704   1.103  -0.700  0.00  0.00    +0.030 A 
ATOM     12  C   UNL     1       6.707   1.497   0.131  0.00  0.00    +0.002 A 
ATOM     13  C   UNL     1       6.536   1.491   1.514  0.00  0.00    +0.002 A 
ATOM     14  C   UNL     1       5.362   1.090   2.073  0.00  0.00    +0.030 A 
ATOM     15  C   UNL     1       4.303   0.675   1.247  0.00  0.00    +0.090 A 
ATOM     16  N   UNL     1       3.137   0.275   1.770  0.00  0.00    -0.247 NA
ATOM     17  C   UNL     1      -1.399  -0.594  -0.172  0.00  0.00    +0.013 C 
ENDROOT
BRANCH   6  18
ATOM     18  C   UNL     1       0.166  -0.274   2.603  0.00  0.00    +0.242 C 
ATOM     19  O   UNL     1      -0.830   0.414   2.684  0.00  0.00    -0.273 OA
ATOM     20  N   UNL     1       0.751  -0.747   3.721  0.00  0.00    -0.233 N 
ATOM     21  H   UNL     1       1.548  -1.297   3.656  0.00  0.00    +0.173 HD
BRANCH  20  22
ATOM     22  N   UNL     1       0.209  -0.445   4.977  0.00  0.00    -0.230 N 
ATOM     23  C   UNL     1       0.794  -0.919   6.095  0.00  0.00    +0.260 C 
ATOM     24  O   UNL     1       1.792  -1.608   6.013  0.00  0.00    -0.269 OA
ATOM     25  H   UNL     1      -0.588   0.104   5.042  0.00  0.00    +0.173 HD
BRANCH  23  26
ATOM     26  C   UNL     1       0.221  -0.601   7.420  0.00  0.00    +0.038 A 
ATOM     27  C   UNL     1      -0.928   0.186   7.517  0.00  0.00    +0.013 A 
ATOM     28  C   UNL     1      -1.457   0.479   8.757  0.00  0.00    +0.001 A 
ATOM     29  C   UNL     1      -0.851  -0.004   9.903  0.00  0.00    +0.000 A 
ATOM     30  C   UNL     1       0.289  -0.784   9.814  0.00  0.00    +0.001 A 
ATOM     31  C   UNL     1       0.825  -1.089   8.580  0.00  0.00    +0.013 A 
ENDBRANCH  23  26
ENDBRANCH  20  22
ENDBRANCH   6  18
TORSDOF 3
