REMARK  Name = ZINC64940725
REMARK  10 active torsions:
REMARK  status: ('A' for Active; 'I' for Inactive)
REMARK    1  A    between atoms: C_1  and  O_2
REMARK    2  A    between atoms: O_2  and  C_3
REMARK    3  A    between atoms: C_3  and  C_4
REMARK    4  A    between atoms: C_4  and  C_5
REMARK    5  A    between atoms: C_5  and  N_6
REMARK    6  A    between atoms: N_9  and  N_10
REMARK    7  A    between atoms: N_10  and  S_11
REMARK    8  A    between atoms: S_11  and  C_14
REMARK    9  A    between atoms: C_17  and  S_20
REMARK   10  A    between atoms: S_20  and  C_21
REMARK                            x       y       z     vdW  Elec       q    Type
REMARK                         _______ _______ _______ _____ _____    ______ ____
ROOT
ATOM      1  S   UNL     1      -1.690  -8.032   1.150  0.00  0.00    +0.074 S 
ATOM      2  O   UNL     1      -0.415  -8.544   0.785  0.00  0.00    -0.152 OA
ATOM      3  O   UNL     1      -1.930  -7.407   2.403  0.00  0.00    -0.152 OA
ENDROOT
BRANCH   1   4
ATOM      4  C   UNL     1      -2.825  -9.375   1.032  0.00  0.00    +0.107 A 
ATOM      5  C   UNL     1      -4.000  -9.351   1.760  0.00  0.00    +0.029 A 
ATOM      6  C   UNL     1      -4.891 -10.402   1.670  0.00  0.00    +0.017 A 
ATOM      7  C   UNL     1      -4.606 -11.485   0.846  0.00  0.00    +0.016 A 
ATOM      8  C   UNL     1      -3.424 -11.505   0.116  0.00  0.00    +0.017 A 
ATOM      9  C   UNL     1      -2.540 -10.448   0.206  0.00  0.00    +0.029 A 
BRANCH   7  10
ATOM     10  S   UNL     1      -5.740 -12.828   0.729  0.00  0.00    -0.016 S 
BRANCH  10  11
ATOM     11  C   UNL     1      -4.949 -13.969  -0.438  0.00  0.00    +0.448 C 
ATOM     12  F   UNL     1      -3.708 -14.370   0.070  0.00  0.00    -0.160 F 
ATOM     13  F   UNL     1      -5.764 -15.092  -0.617  0.00  0.00    -0.160 F 
ATOM     14  F   UNL     1      -4.764 -13.326  -1.667  0.00  0.00    -0.160 F 
ENDBRANCH  10  11
ENDBRANCH   7  10
ENDBRANCH   1   4
BRANCH   1  15
ATOM     15  N   UNL     1      -2.110  -6.933  -0.015  0.00  0.00    -0.107 NA
ATOM     16  H   UNL     1      -1.474  -6.694  -0.708  0.00  0.00    +0.172 HD
BRANCH  15  20
ATOM     17  N   UNL     1      -2.408  -4.226   0.002  0.00  0.00    -0.298 N 
ATOM     18  C   UNL     1      -3.507  -5.005   0.009  0.00  0.00    +0.315 C 
ATOM     19  O   UNL     1      -4.612  -4.497   0.022  0.00  0.00    -0.251 OA
ATOM     20  N   UNL     1      -3.383  -6.347   0.000  0.00  0.00    -0.216 N 
ATOM     21  H   UNL     1      -1.526  -4.632  -0.008  0.00  0.00    +0.150 HD
ATOM     22  H   UNL     1      -4.174  -6.908   0.005  0.00  0.00    +0.172 HD
BRANCH  17  23
ATOM     23  C   UNL     1      -2.543  -2.768   0.011  0.00  0.00    +0.108 C 
BRANCH  23  24
ATOM     24  C   UNL     1      -1.154  -2.126   0.002  0.00  0.00    +0.047 C 
BRANCH  24  25
ATOM     25  C   UNL     1      -1.295  -0.603   0.011  0.00  0.00    +0.161 C 
BRANCH  25  27
ATOM     26  C   UNL     1      -0.017   1.425   0.010  0.00  0.00    +0.193 C 
ATOM     27  O   UNL     1       0.002  -0.004   0.002  0.00  0.00    -0.383 OA
ENDBRANCH  25  27
ENDBRANCH  24  25
ENDBRANCH  23  24
ENDBRANCH  17  23
ENDBRANCH  15  20
ENDBRANCH   1  15
TORSDOF 9
