REMARK  Name = ZINC13832867
REMARK  9 active torsions:
REMARK  status: ('A' for Active; 'I' for Inactive)
REMARK    1  A    between atoms: C_1  and  C_2
REMARK    2  A    between atoms: C_2  and  C_3
REMARK    3  A    between atoms: C_3  and  N_4
REMARK    4  A    between atoms: N_4  and  C_5
REMARK    5  A    between atoms: C_5  and  C_6
REMARK    6  A    between atoms: C_9  and  C_12
REMARK    7  A    between atoms: C_17  and  C_18
REMARK    8  A    between atoms: C_24  and  N_29
REMARK    9  A    between atoms: C_30  and  C_32
REMARK                            x       y       z     vdW  Elec       q    Type
REMARK                         _______ _______ _______ _____ _____    ______ ____
ROOT
ATOM      1  C   UNL     1      -1.397  -2.754   1.284  0.00  0.00    +0.141 C 
ENDROOT
BRANCH   1   2
ATOM      2  N   UNL     1      -1.442  -2.010   0.023  0.00  0.00    -0.309 N 
ATOM      3  C   UNL     1      -1.450  -2.694  -1.188  0.00  0.00    +0.143 A 
ATOM      4  C   UNL     1      -0.242  -3.099  -1.765  0.00  0.00    +0.074 A 
ATOM      5  C   UNL     1      -0.269  -3.781  -2.975  0.00  0.00    +0.028 A 
ATOM      6  C   UNL     1      -1.501  -4.033  -3.563  0.00  0.00    +0.022 A 
ATOM      7  C   UNL     1      -2.653  -3.603  -2.936  0.00  0.00    +0.113 A 
ATOM      8  N   UNL     1      -2.600  -2.961  -1.783  0.00  0.00    -0.238 NA
BRANCH   4   9
ATOM      9  N   UNL     1       0.974  -2.821  -1.133  0.00  0.00    -0.273 N 
ATOM     10  C   UNL     1       2.108  -2.745  -1.859  0.00  0.00    +0.330 C 
ATOM     11  O   UNL     1       2.060  -2.816  -3.069  0.00  0.00    -0.263 OA
ATOM     12  H   UNL     1       1.002  -2.682  -0.174  0.00  0.00    +0.155 HD
BRANCH  10  13
ATOM     13  C   UNL     1       3.425  -2.572  -1.171  0.00  0.00    +0.441 C 
ATOM     14  O   UNL     1       4.451  -2.503  -1.828  0.00  0.00    -0.235 OA
ATOM     15  O   UNL     1       3.473  -2.500   0.046  0.00  0.00    -0.235 OA
ENDBRANCH  10  13
ENDBRANCH   4   9
BRANCH   2  16
ATOM     16  C   UNL     1      -1.479  -0.545   0.037  0.00  0.00    +0.106 C 
BRANCH  16  18
ATOM     17  C   UNL     1      -0.088   1.530   0.027  0.00  0.00    +0.005 C 
ATOM     18  C   UNL     1      -0.050   0.001   0.012  0.00  0.00    +0.016 C 
ENDBRANCH  16  18
ENDBRANCH   2  16
ENDBRANCH   1   2
BRANCH   1  19
ATOM     19  C   UNL     1      -2.797  -2.939   1.808  0.00  0.00    -0.030 A 
ATOM     20  C   UNL     1      -3.388  -1.942   2.565  0.00  0.00    +0.006 A 
ATOM     21  C   UNL     1      -4.670  -2.106   3.048  0.00  0.00    +0.009 A 
ATOM     22  C   UNL     1      -5.371  -3.279   2.772  0.00  0.00    -0.017 A 
ATOM     23  C   UNL     1      -4.771  -4.280   2.009  0.00  0.00    +0.009 A 
ATOM     24  C   UNL     1      -3.490  -4.103   1.527  0.00  0.00    +0.006 A 
BRANCH  22  25
ATOM     25  C   UNL     1      -6.748  -3.461   3.288  0.00  0.00    -0.007 A 
ATOM     26  C   UNL     1      -7.029  -3.227   4.631  0.00  0.00    +0.009 A 
ATOM     27  C   UNL     1      -8.313  -3.398   5.108  0.00  0.00    +0.001 A 
ATOM     28  C   UNL     1      -9.329  -3.802   4.258  0.00  0.00    +0.001 A 
ATOM     29  C   UNL     1      -9.069  -4.039   2.923  0.00  0.00    +0.012 A 
ATOM     30  C   UNL     1      -7.779  -3.866   2.424  0.00  0.00    +0.030 A 
BRANCH  30  31
ATOM     31  C   UNL     1      -7.496  -4.113   0.994  0.00  0.00    +0.207 A 
ATOM     32  N   UNL     1      -8.370  -4.499   0.061  0.00  0.00    -0.106 NA
ATOM     33  N   UNL     1      -7.729  -4.602  -1.052  0.00  0.00    -0.021 NA
ATOM     34  N   UNL     1      -6.493  -4.298  -0.860  0.00  0.00    -0.021 NA
ATOM     35  N   UNL     1      -6.318  -3.989   0.379  0.00  0.00    -0.106 NA
ENDBRANCH  30  31
ENDBRANCH  22  25
ENDBRANCH   1  19
TORSDOF 8
