REMARK  Name = ZINC20527456
REMARK  10 active torsions:
REMARK  status: ('A' for Active; 'I' for Inactive)
REMARK    1  A    between atoms: C_1  and  O_2
REMARK    2  A    between atoms: O_2  and  C_3
REMARK    3  A    between atoms: C_6  and  O_32
REMARK    4  A    between atoms: C_7  and  C_9
REMARK    5  A    between atoms: N_10  and  N_11
REMARK    6  A    between atoms: C_15  and  S_18
REMARK    7  A    between atoms: N_16  and  N_17
REMARK    8  A    between atoms: S_18  and  C_19
REMARK    9  A    between atoms: C_19  and  C_20
REMARK   10  A    between atoms: C_20  and  C_22
REMARK                            x       y       z     vdW  Elec       q    Type
REMARK                         _______ _______ _______ _____ _____    ______ ____
ROOT
ATOM      1  N   UNL     1      -4.127  -6.045   2.454  0.00  0.00    -0.204 N 
ATOM      2  C   UNL     1      -3.556  -4.827   2.114  0.00  0.00    +0.254 A 
ATOM      3  N   UNL     1      -4.041  -3.643   2.397  0.00  0.00    -0.109 NA
ATOM      4  N   UNL     1      -3.165  -2.681   1.877  0.00  0.00    -0.119 NA
ATOM      5  C   UNL     1      -2.172  -3.309   1.293  0.00  0.00    +0.210 A 
ATOM      6  N   UNL     1      -2.391  -4.652   1.419  0.00  0.00    -0.211 N 
ATOM      7  H   UNL     1      -3.632  -6.984   2.166  0.00  0.00    +0.177 HD
ENDROOT
BRANCH   6   8
ATOM      8  N   UNL     1      -1.586  -5.645   0.939  0.00  0.00    -0.294 N 
ATOM      9  H   UNL     1      -0.666  -5.391   0.391  0.00  0.00    +0.163 HD
ATOM     10  H   UNL     1      -1.856  -6.699   1.100  0.00  0.00    +0.163 HD
ENDBRANCH   6   8
BRANCH   1  12
ATOM     11  C   UNL     1      -5.868  -7.218   3.484  0.00  0.00    +0.142 C 
ATOM     12  N   UNL     1      -5.333  -6.078   3.166  0.00  0.00    -0.187 NA
BRANCH  11  17
ATOM     13  C   UNL     1      -8.907  -8.502   5.280  0.00  0.00    +0.121 A 
ATOM     14  C   UNL     1      -9.528  -7.314   5.643  0.00  0.00    +0.049 A 
ATOM     15  C   UNL     1      -8.962  -6.099   5.305  0.00  0.00    +0.049 A 
ATOM     16  C   UNL     1      -7.767  -6.059   4.606  0.00  0.00    +0.126 A 
ATOM     17  C   UNL     1      -7.137  -7.253   4.232  0.00  0.00    +0.039 A 
ATOM     18  C   UNL     1      -7.715  -8.477   4.577  0.00  0.00    +0.058 A 
BRANCH  13  20
ATOM     19  C   UNL     1     -10.701  -9.646   6.342  0.00  0.00    +0.277 C 
ATOM     20  O   UNL     1      -9.470  -9.693   5.616  0.00  0.00    -0.495 OA
ENDBRANCH  13  20
BRANCH  16  21
ATOM     21  O   UNL     1      -7.209  -4.863   4.280  0.00  0.00    -0.506 OA
ATOM     22  H   UNL     1      -6.260  -4.832   3.725  0.00  0.00    +0.292 HD
ENDBRANCH  16  21
ENDBRANCH  11  17
ENDBRANCH   1  12
BRANCH   5  23
ATOM     23  S   UNL     1      -0.802  -2.555   0.483  0.00  0.00    -0.077 S 
BRANCH  23  24
ATOM     24  C   UNL     1      -1.112  -0.776   0.661  0.00  0.00    +0.152 C 
BRANCH  24  25
ATOM     25  C   UNL     1       0.002  -0.004   0.002  0.00  0.00    +0.147 C 
ATOM     26  O   UNL     1       0.911  -0.593  -0.533  0.00  0.00    -0.296 OA
BRANCH  25  27
ATOM     27  C   UNL     1      -0.018   1.503   0.010  0.00  0.00    +0.062 C 
ATOM     28  C   UNL     1      -1.071   2.004  -0.980  0.00  0.00    +0.000 C 
ATOM     29  C   UNL     1      -1.092   3.534  -0.972  0.00  0.00    +0.007 C 
ATOM     30  C   UNL     1       0.284   4.065  -1.378  0.00  0.00    -0.010 C 
ATOM     31  C   UNL     1       0.629   3.567  -2.783  0.00  0.00    +0.007 C 
ATOM     32  C   UNL     1       0.649   2.037  -2.792  0.00  0.00    -0.010 C 
ATOM     33  C   UNL     1      -0.727   1.506  -2.386  0.00  0.00    +0.007 C 
ATOM     34  C   UNL     1       1.702   1.536  -1.801  0.00  0.00    +0.007 C 
ATOM     35  C   UNL     1       1.358   2.034  -0.396  0.00  0.00    +0.000 C 
ATOM     36  C   UNL     1       1.337   3.564  -0.387  0.00  0.00    +0.007 C 
ENDBRANCH  25  27
ENDBRANCH  24  25
ENDBRANCH  23  24
ENDBRANCH   5  23
TORSDOF 9
