REMARK  Name = ZINC21866421
REMARK  8 active torsions:
REMARK  status: ('A' for Active; 'I' for Inactive)
REMARK    1  A    between atoms: C_1  and  C_2
REMARK    2  A    between atoms: N_4  and  C_5
REMARK    3  A    between atoms: N_16  and  C_28
REMARK    4  A    between atoms: C_17  and  C_19
REMARK    5  A    between atoms: C_17  and  C_20
REMARK    6  A    between atoms: N_22  and  C_23
REMARK    7  A    between atoms: C_33  and  O_34
REMARK    8  A    between atoms: O_34  and  C_35
REMARK                            x       y       z     vdW  Elec       q    Type
REMARK                         _______ _______ _______ _____ _____    ______ ____
ROOT
ATOM      1  C   UNL     1       6.075   3.301  -2.418  0.00  0.00    +0.072 A 
ATOM      2  C   UNL     1       7.251   3.935  -1.841  0.00  0.00    +0.025 A 
ATOM      3  C   UNL     1       8.246   4.742  -2.405  0.00  0.00    +0.050 A 
ATOM      4  C   UNL     1       9.243   5.189  -1.556  0.00  0.00    +0.124 A 
ATOM      5  C   UNL     1       9.259   4.857  -0.208  0.00  0.00    +0.040 A 
ATOM      6  C   UNL     1       8.287   4.061   0.369  0.00  0.00    +0.029 A 
ATOM      7  C   UNL     1       7.269   3.592  -0.463  0.00  0.00    +0.052 A 
ATOM      8  N   UNL     1       6.192   2.804  -0.214  0.00  0.00    -0.332 N 
ATOM      9  C   UNL     1       5.451   2.642  -1.394  0.00  0.00    +0.128 A 
ATOM     10  C   UNL     1       4.221   1.843  -1.402  0.00  0.00    +0.270 C 
ATOM     11  O   UNL     1       3.672   1.526  -2.441  0.00  0.00    -0.268 OA
ATOM     12  N   UNL     1       3.729   1.477  -0.196  0.00  0.00    -0.247 N 
ATOM     13  C   UNL     1       4.247   2.033   1.048  0.00  0.00    +0.133 C 
ATOM     14  C   UNL     1       5.773   2.160   1.038  0.00  0.00    +0.158 C 
ATOM     15  C   UNL     1       3.833   1.123   2.207  0.00  0.00    +0.044 C 
ATOM     16  F   UNL     1      10.226   5.972  -2.052  0.00  0.00    -0.205 F 
ENDROOT
BRANCH  12  17
ATOM     17  C   UNL     1       2.689   0.541  -0.142  0.00  0.00    +0.079 A 
ATOM     18  C   UNL     1       2.975  -0.817  -0.114  0.00  0.00    +0.027 A 
ATOM     19  C   UNL     1       1.947  -1.738  -0.061  0.00  0.00    +0.002 A 
ATOM     20  C   UNL     1       0.632  -1.312  -0.034  0.00  0.00    +0.004 A 
ATOM     21  C   UNL     1       0.339   0.039  -0.061  0.00  0.00    +0.047 A 
ATOM     22  C   UNL     1       1.364   0.970  -0.116  0.00  0.00    +0.141 A 
BRANCH  22  23
ATOM     23  O   UNL     1       1.077   2.299  -0.143  0.00  0.00    -0.493 OA
ATOM     24  C   UNL     1      -0.296   2.669  -0.003  0.00  0.00    +0.277 C 
ENDBRANCH  22  23
ENDBRANCH  12  17
BRANCH   1  28
ATOM     25  C   UNL     1       6.135   3.643  -6.160  0.00  0.00    +0.109 C 
ATOM     26  C   UNL     1       6.581   3.479  -4.730  0.00  0.00    +0.214 C 
ATOM     27  O   UNL     1       7.764   3.460  -4.462  0.00  0.00    -0.276 OA
ATOM     28  N   UNL     1       5.666   3.355  -3.748  0.00  0.00    -0.283 N 
ATOM     29  H   UNL     1       4.597   3.296  -3.997  0.00  0.00    +0.155 HD
ENDBRANCH   1  28
BRANCH  13  30
ATOM     30  C   UNL     1       3.641   3.396   1.262  0.00  0.00    +0.239 C 
ATOM     31  O   UNL     1       2.969   3.905   0.390  0.00  0.00    -0.273 OA
ATOM     32  N   UNL     1       3.845   4.050   2.424  0.00  0.00    -0.311 N 
ATOM     33  H   UNL     1       4.520   3.626   3.182  0.00  0.00    +0.149 HD
BRANCH  32  34
ATOM     34  C   UNL     1       3.167   5.324   2.676  0.00  0.00    +0.073 C 
ATOM     35  C   UNL     1       3.965   6.481   2.042  0.00  0.00    +0.022 C 
ATOM     36  C   UNL     1       3.815   7.645   3.054  0.00  0.00    +0.002 C 
ATOM     37  C   UNL     1       3.882   6.920   4.421  0.00  0.00    +0.002 C 
ATOM     38  C   UNL     1       3.114   5.602   4.188  0.00  0.00    +0.022 C 
ENDBRANCH  32  34
ENDBRANCH  13  30
TORSDOF 5
