REMARK  Name = ZINC40066620
REMARK  8 active torsions:
REMARK  status: ('A' for Active; 'I' for Inactive)
REMARK    1  A    between atoms: C_1  and  C_2
REMARK    2  A    between atoms: C_3  and  C_23
REMARK    3  A    between atoms: C_4  and  N_12
REMARK    4  A    between atoms: N_5  and  C_11
REMARK    5  A    between atoms: C_8  and  C_9
REMARK    6  A    between atoms: N_12  and  C_13
REMARK    7  A    between atoms: C_13  and  C_14
REMARK    8  A    between atoms: N_27  and  C_31
REMARK                            x       y       z     vdW  Elec       q    Type
REMARK                         _______ _______ _______ _____ _____    ______ ____
ROOT
ATOM      1  C   UNL     1       0.064   1.138  -0.611  0.00  0.00    +0.046 C 
ATOM      2  C   UNL     1      -0.051  -0.271  -0.089  0.00  0.00    -0.017 A 
ATOM      3  C   UNL     1      -1.308  -0.820   0.214  0.00  0.00    +0.019 A 
ATOM      4  C   UNL     1      -1.388  -2.136   0.698  0.00  0.00    +0.109 A 
ATOM      5  N   UNL     1      -0.263  -2.876   0.874  0.00  0.00    -0.298 N 
ATOM      6  C   UNL     1       0.952  -2.374   0.591  0.00  0.00    +0.270 A 
ATOM      7  O   UNL     1       1.944  -3.061   0.758  0.00  0.00    -0.266 OA
ATOM      8  C   UNL     1       1.087  -1.052   0.094  0.00  0.00    +0.120 A 
ATOM      9  C   UNL     1      -0.375  -4.246   1.381  0.00  0.00    +0.154 C 
ENDROOT
BRANCH   3  10
ATOM     10  C   UNL     1      -2.525  -0.027   0.028  0.00  0.00    +0.032 C 
ATOM     11  C   UNL     1      -3.529  -0.497  -0.761  0.00  0.00    +0.077 C 
ATOM     12  C   UNL     1      -4.828   0.048  -0.999  0.00  0.00    +0.259 C 
ATOM     13  O   UNL     1      -5.181   1.083  -0.464  0.00  0.00    -0.269 OA
ATOM     14  N   UNL     1      -5.633  -0.605  -1.819  0.00  0.00    -0.252 N 
ATOM     15  C   UNL     1      -5.240  -1.754  -2.413  0.00  0.00    +0.121 C 
ATOM     16  S   UNL     1      -6.110  -2.753  -3.497  0.00  0.00    -0.027 S 
ATOM     17  S   UNL     1      -3.580  -1.961  -1.786  0.00  0.00    -0.061 S 
BRANCH  14  18
ATOM     18  C   UNL     1      -6.973  -0.076  -2.087  0.00  0.00    +0.083 C 
ATOM     19  C   UNL     1      -8.023  -1.102  -1.655  0.00  0.00    +0.023 C 
ATOM     20  C   UNL     1      -9.422  -0.549  -1.935  0.00  0.00    +0.002 C 
ATOM     21  C   UNL     1      -9.569  -0.268  -3.431  0.00  0.00    +0.000 C 
ATOM     22  C   UNL     1      -8.520   0.758  -3.863  0.00  0.00    +0.002 C 
ATOM     23  C   UNL     1      -7.120   0.205  -3.583  0.00  0.00    +0.023 C 
ENDBRANCH  14  18
ENDBRANCH   3  10
BRANCH   8  24
ATOM     24  C   UNL     1       2.382  -0.524  -0.211  0.00  0.00    +0.105 C 
ATOM     25  N   UNL     1       3.410  -0.105  -0.453  0.00  0.00    -0.191 NA
ENDBRANCH   8  24
BRANCH   4  26
ATOM     26  N   UNL     1      -2.606  -2.676   0.994  0.00  0.00    -0.326 N 
ATOM     27  H   UNL     1      -3.070  -3.216   0.336  0.00  0.00    +0.148 HD
BRANCH  26  28
ATOM     28  C   UNL     1      -3.212  -2.439   2.307  0.00  0.00    +0.138 C 
BRANCH  28  29
ATOM     29  C   UNL     1      -4.481  -3.242   2.426  0.00  0.00    -0.027 A 
ATOM     30  C   UNL     1      -5.685  -2.694   2.023  0.00  0.00    +0.009 A 
ATOM     31  C   UNL     1      -6.852  -3.426   2.130  0.00  0.00    +0.050 A 
ATOM     32  C   UNL     1      -6.818  -4.713   2.643  0.00  0.00    +0.166 A 
ATOM     33  C   UNL     1      -5.606  -5.265   3.049  0.00  0.00    +0.167 A 
ATOM     34  C   UNL     1      -4.440  -4.527   2.934  0.00  0.00    +0.054 A 
ATOM     35  O   UNL     1      -5.836  -6.529   3.512  0.00  0.00    -0.453 OA
ATOM     36  C   UNL     1      -7.252  -6.594   3.765  0.00  0.00    +0.466 C 
ATOM     37  O   UNL     1      -7.808  -5.630   2.851  0.00  0.00    -0.453 OA
ENDBRANCH  28  29
ENDBRANCH  26  28
ENDBRANCH   4  26
TORSDOF 6
