REMARK  Name = ZINC01683919
REMARK  2 active torsions:
REMARK  status: ('A' for Active; 'I' for Inactive)
REMARK    1  A    between atoms: C_6  and  N_7
REMARK    2  A    between atoms: N_7  and  C_8
REMARK                            x       y       z     vdW  Elec       q    Type
REMARK                         _______ _______ _______ _____ _____    ______ ____
ROOT
ATOM      1  C   UNL     1      -0.752   1.593  -1.232  0.00  0.00    +0.174 C 
ATOM      2  C   UNL     1      -0.013   1.086   0.008  0.00  0.00    +0.137 C 
ATOM      3  N   UNL     1      -0.698   1.558   1.213  0.00  0.00    -0.297 N 
ATOM      4  C   UNL     1      -1.272   2.771   1.250  0.00  0.00    +0.306 C 
ATOM      5  O   UNL     1      -1.741   3.174   2.297  0.00  0.00    -0.252 OA
ATOM      6  N   UNL     1      -1.341   3.550   0.158  0.00  0.00    -0.239 N 
ATOM      7  C   UNL     1      -1.057   3.060  -1.062  0.00  0.00    +0.242 C 
ATOM      8  O   UNL     1      -1.047   3.797  -2.025  0.00  0.00    -0.273 OA
ATOM      9  H   UNL     1      -0.737   0.986   1.995  0.00  0.00    +0.150 HD
ATOM     10  H   UNL     1      -1.599   4.481   0.251  0.00  0.00    +0.159 HD
ENDROOT
BRANCH   1  11
ATOM     11  N   UNL     1       0.089   1.401  -2.416  0.00  0.00    -0.332 N 
ATOM     12  H   UNL     1       1.053   1.357  -2.324  0.00  0.00    +0.147 HD
BRANCH  11  18
ATOM     13  C   UNL     1      -1.880   1.338  -3.811  0.00  0.00    +0.024 A 
ATOM     14  C   UNL     1      -2.457   1.226  -5.061  0.00  0.00    +0.017 A 
ATOM     15  C   UNL     1      -1.661   1.045  -6.178  0.00  0.00    +0.018 A 
ATOM     16  C   UNL     1      -0.285   0.982  -6.048  0.00  0.00    +0.017 A 
ATOM     17  C   UNL     1       0.298   1.100  -4.802  0.00  0.00    +0.024 A 
ATOM     18  C   UNL     1      -0.498   1.282  -3.678  0.00  0.00    +0.028 A 
ATOM     19 BR   UNL     1      -2.456   0.884  -7.887  0.00  0.00    -0.050 Br
ENDBRANCH  11  18
ENDBRANCH   1  11
TORSDOF 2
