REMARK  Name = ZINC13052233
REMARK  9 active torsions:
REMARK  status: ('A' for Active; 'I' for Inactive)
REMARK    1  A    between atoms: C_1  and  C_2
REMARK    2  A    between atoms: C_2  and  C_4
REMARK    3  A    between atoms: C_2  and  O_35
REMARK    4  A    between atoms: C_4  and  N_5
REMARK    5  A    between atoms: C_11  and  C_33
REMARK    6  A    between atoms: C_15  and  S_16
REMARK    7  A    between atoms: S_16  and  C_17
REMARK    8  A    between atoms: C_17  and  C_19
REMARK    9  A    between atoms: C_17  and  C_25
REMARK                            x       y       z     vdW  Elec       q    Type
REMARK                         _______ _______ _______ _____ _____    ______ ____
ROOT
ATOM      1  N   UNL     1       1.173   2.110   0.002  0.00  0.00    -0.285 N 
ATOM      2  C   UNL     1      -0.018   1.467   0.010  0.00  0.00    +0.262 A 
ATOM      3  O   UNL     1      -1.067   2.084   0.018  0.00  0.00    -0.267 OA
ATOM      4  C   UNL     1       0.002  -0.004   0.002  0.00  0.00    +0.065 A 
ATOM      5  C   UNL     1      -1.175  -0.752   0.009  0.00  0.00    +0.016 A 
ATOM      6  C   UNL     1      -1.114  -2.116   0.000  0.00  0.00    +0.016 A 
ATOM      7  C   UNL     1       0.123  -2.775  -0.015  0.00  0.00    +0.065 A 
ATOM      8  C   UNL     1       1.307  -2.049  -0.022  0.00  0.00    +0.043 A 
ATOM      9  C   UNL     1       1.258  -0.652  -0.013  0.00  0.00    +0.080 A 
ATOM     10  N   UNL     1       2.386   0.095  -0.020  0.00  0.00    -0.223 NA
ATOM     11  C   UNL     1       2.342   1.405  -0.013  0.00  0.00    +0.173 A 
ENDROOT
BRANCH   7  12
ATOM     12  C   UNL     1       0.167  -4.254  -0.023  0.00  0.00    +0.387 C 
ATOM     13  O   UNL     1       1.236  -4.829  -0.036  0.00  0.00    -0.241 OA
ATOM     14  O   UNL     1      -0.979  -4.962  -0.017  0.00  0.00    -0.241 OA
ENDBRANCH   7  12
BRANCH   1  15
ATOM     15  C   UNL     1       1.208   3.575   0.010  0.00  0.00    +0.158 C 
BRANCH  15  17
ATOM     16  C   UNL     1       1.271   5.606   1.463  0.00  0.00    +0.039 C 
ATOM     17  C   UNL     1       1.234   4.077   1.455  0.00  0.00    +0.131 C 
BRANCH  17  18
ATOM     18  O   UNL     1       0.062   3.625   2.137  0.00  0.00    -0.390 OA
ATOM     19  H   UNL     1       0.012   3.907   3.061  0.00  0.00    +0.210 HD
ENDBRANCH  17  18
ENDBRANCH  15  17
ENDBRANCH   1  15
BRANCH  11  20
ATOM     20  S   UNL     1       3.861   2.297  -0.023  0.00  0.00    -0.070 S 
BRANCH  20  21
ATOM     21  C   UNL     1       5.035   0.919  -0.042  0.00  0.00    +0.170 C 
BRANCH  21  22
ATOM     22  C   UNL     1       6.437   1.455  -0.177  0.00  0.00    +0.233 C 
ATOM     23  O   UNL     1       6.693   2.581   0.191  0.00  0.00    -0.274 OA
ATOM     24  N   UNL     1       7.405   0.682  -0.707  0.00  0.00    -0.296 N 
ATOM     25  C   UNL     1       7.120  -0.690  -1.155  0.00  0.00    +0.136 C 
ATOM     26  C   UNL     1       7.660  -0.850  -2.585  0.00  0.00    +0.179 C 
ATOM     27  O   UNL     1       9.031  -0.445  -2.616  0.00  0.00    -0.377 OA
ATOM     28  C   UNL     1       9.242   0.931  -2.289  0.00  0.00    +0.179 C 
ATOM     29  C   UNL     1       8.782   1.183  -0.849  0.00  0.00    +0.136 C 
ENDBRANCH  21  22
BRANCH  21  30
ATOM     30  C   UNL     1       4.916   0.140   1.243  0.00  0.00    -0.025 A 
ATOM     31  C   UNL     1       5.159   0.762   2.453  0.00  0.00    +0.005 A 
ATOM     32  C   UNL     1       5.045   0.049   3.632  0.00  0.00    +0.000 A 
ATOM     33  C   UNL     1       4.699  -1.289   3.600  0.00  0.00    +0.000 A 
ATOM     34  C   UNL     1       4.461  -1.912   2.389  0.00  0.00    +0.000 A 
ATOM     35  C   UNL     1       4.570  -1.198   1.211  0.00  0.00    +0.005 A 
ENDBRANCH  21  30
ENDBRANCH  20  21
ENDBRANCH  11  20
TORSDOF 8
