REMARK  Name = ZINC09423380
REMARK  10 active torsions:
REMARK  status: ('A' for Active; 'I' for Inactive)
REMARK    1  A    between atoms: C_1  and  C_2
REMARK    2  A    between atoms: C_2  and  C_3
REMARK    3  A    between atoms: C_3  and  C_30
REMARK    4  A    between atoms: C_9  and  N_19
REMARK    5  A    between atoms: C_10  and  C_14
REMARK    6  A    between atoms: C_14  and  O_16
REMARK    7  A    between atoms: O_16  and  C_17
REMARK    8  A    between atoms: C_17  and  C_18
REMARK    9  A    between atoms: C_20  and  C_22
REMARK   10  A    between atoms: C_22  and  N_62
REMARK                            x       y       z     vdW  Elec       q    Type
REMARK                         _______ _______ _______ _____ _____    ______ ____
ROOT
ATOM      1  C   UNL     1      -0.159  -1.672   4.208  0.00  0.00    +0.072 C 
ATOM      2  C   UNL     1       1.254  -1.197   3.868  0.00  0.00    +0.090 C 
ATOM      3  C   UNL     1       1.183   0.039   3.005  0.00  0.00    +0.051 A 
ATOM      4  C   UNL     1       0.020   0.785   2.913  0.00  0.00    +0.000 A 
ATOM      5  C   UNL     1      -0.017   1.914   2.123  0.00  0.00    +0.020 A 
ATOM      6  C   UNL     1       1.143   2.301   1.409  0.00  0.00    +0.030 A 
ATOM      7  C   UNL     1       1.331   3.441   0.527  0.00  0.00    +0.064 A 
ATOM      8  C   UNL     1       2.563   3.614  -0.064  0.00  0.00    +0.120 A 
ATOM      9  S   UNL     1       3.513   2.238   0.552  0.00  0.00    -0.060 S 
ATOM     10  C   UNL     1       2.276   1.471   1.569  0.00  0.00    +0.111 A 
ATOM     11  N   UNL     1       2.263   0.403   2.334  0.00  0.00    -0.244 NA
ATOM     12  C   UNL     1      -1.228   0.389   3.661  0.00  0.00    +0.197 C 
ATOM     13  O   UNL     1      -0.912  -0.552   4.686  0.00  0.00    -0.369 OA
ATOM     14  C   UNL     1      -0.826  -2.243   2.955  0.00  0.00    +0.042 C 
ENDROOT
BRANCH   7  15
ATOM     15  N   UNL     1       0.294   4.336   0.287  0.00  0.00    -0.285 N 
ATOM     16  C   UNL     1      -0.954   3.877   0.063  0.00  0.00    +0.201 C 
ATOM     17  O   UNL     1      -1.191   2.692   0.164  0.00  0.00    -0.278 OA
ATOM     18  H   UNL     1       0.468   5.290   0.281  0.00  0.00    +0.155 HD
BRANCH  16  19
ATOM     19  C   UNL     1      -2.054   4.837  -0.312  0.00  0.00    +0.019 C 
BRANCH  19  25
ATOM     20  C   UNL     1      -3.124   3.385  -1.927  0.00  0.00    -0.078 C 
ATOM     21  C   UNL     1      -4.347   2.497  -2.168  0.00  0.00    -0.019 C 
ATOM     22  C   UNL     1      -5.609   3.365  -2.177  0.00  0.00    -0.004 C 
ATOM     23  C   UNL     1      -5.711   4.117  -0.847  0.00  0.00    -0.019 C 
ATOM     24  C   UNL     1      -4.448   4.958  -0.644  0.00  0.00    -0.078 C 
ATOM     25  N   UNL     1      -3.273   4.062  -0.621  0.00  0.00    +0.385 N 
ATOM     26  H   UNL     1      -3.410   3.352   0.108  0.00  0.00    -0.081 HD
ENDBRANCH  19  25
ENDBRANCH  16  19
ENDBRANCH   7  15
BRANCH   1  28
ATOM     27  C   UNL     1      -1.502  -3.292   5.556  0.00  0.00    +0.007 C 
ATOM     28  C   UNL     1      -0.096  -2.749   5.293  0.00  0.00    +0.032 C 
ENDBRANCH   1  28
BRANCH   8  29
ATOM     29  C   UNL     1       2.977   4.641  -0.950  0.00  0.00    +0.348 C 
ATOM     30  O   UNL     1       2.176   5.475  -1.330  0.00  0.00    -0.244 OA
BRANCH  29  31
ATOM     31  O   UNL     1       4.257   4.693  -1.372  0.00  0.00    -0.461 OA
BRANCH  31  32
ATOM     32  C   UNL     1       4.604   5.754  -2.264  0.00  0.00    +0.229 C 
ATOM     33  C   UNL     1       6.086   5.649  -2.630  0.00  0.00    +0.048 C 
ENDBRANCH  31  32
ENDBRANCH  29  31
ENDBRANCH   8  29
TORSDOF 7
