REMARK  Name = ZINC45446791
REMARK  9 active torsions:
REMARK  status: ('A' for Active; 'I' for Inactive)
REMARK    1  A    between atoms: C_1  and  C_2
REMARK    2  A    between atoms: C_2  and  C_4
REMARK    3  A    between atoms: C_2  and  N_12
REMARK    4  A    between atoms: C_13  and  C_15
REMARK    5  A    between atoms: C_15  and  O_16
REMARK    6  A    between atoms: O_16  and  C_17
REMARK    7  A    between atoms: C_17  and  C_19
REMARK    8  A    between atoms: C_19  and  N_20
REMARK    9  A    between atoms: C_24  and  C_26
REMARK                            x       y       z     vdW  Elec       q    Type
REMARK                         _______ _______ _______ _____ _____    ______ ____
ROOT
ATOM      1  O   UNL     1       4.261  -1.264  -1.892  0.00  0.00    -0.454 OA
ENDROOT
BRANCH   1   2
ATOM      2  C   UNL     1       5.101  -1.695  -2.846  0.00  0.00    +0.329 C 
ATOM      3  O   UNL     1       4.678  -1.973  -3.944  0.00  0.00    -0.249 OA
BRANCH   2   4
ATOM      4  C   UNL     1       6.572  -1.832  -2.550  0.00  0.00    +0.271 C 
BRANCH   4   5
ATOM      5  N   UNL     1       7.268  -2.316  -3.745  0.00  0.00    -0.184 N 
ATOM      6  C   UNL     1       7.815  -1.558  -4.719  0.00  0.00    +0.439 A 
ATOM      7  O   UNL     1       7.822  -0.342  -4.767  0.00  0.00    -0.221 OA
ATOM      8  O   UNL     1       8.352  -2.392  -5.625  0.00  0.00    -0.388 OA
ATOM      9  C   UNL     1       8.144  -3.665  -5.224  0.00  0.00    +0.250 A 
ATOM     10  N   UNL     1       7.500  -3.655  -4.093  0.00  0.00    -0.126 NA
BRANCH   9  11
ATOM     11  C   UNL     1       8.583  -4.876  -5.950  0.00  0.00    +0.039 A 
ATOM     12  C   UNL     1       8.302  -6.142  -5.435  0.00  0.00    +0.016 A 
ATOM     13  C   UNL     1       8.713  -7.268  -6.117  0.00  0.00    +0.039 A 
ATOM     14  C   UNL     1       9.406  -7.144  -7.311  0.00  0.00    +0.123 A 
ATOM     15  C   UNL     1       9.688  -5.889  -7.826  0.00  0.00    +0.039 A 
ATOM     16  C   UNL     1       9.275  -4.757  -7.156  0.00  0.00    +0.016 A 
ATOM     17  F   UNL     1       9.807  -8.251  -7.974  0.00  0.00    -0.205 F 
ENDBRANCH   9  11
ENDBRANCH   4   5
ENDBRANCH   2   4
ENDBRANCH   1   2
BRANCH   1  18
ATOM     18  C   UNL     1       2.880  -1.158  -2.243  0.00  0.00    +0.327 C 
BRANCH  18  20
ATOM     19  N   UNL     1       0.764  -0.485  -1.153  0.00  0.00    -0.306 N 
ATOM     20  C   UNL     1       2.096  -0.663  -1.055  0.00  0.00    +0.251 C 
ATOM     21  O   UNL     1       2.664  -0.425  -0.010  0.00  0.00    -0.272 OA
ATOM     22  H   UNL     1       0.309  -0.676  -1.988  0.00  0.00    +0.149 HD
BRANCH  19  24
ATOM     23  C   UNL     1       0.009   1.526   0.016  0.00  0.00    +0.033 C 
ATOM     24  C   UNL     1       0.002  -0.004   0.002  0.00  0.00    +0.102 C 
BRANCH  24  25
ATOM     25  C   UNL     1      -1.418  -0.499  -0.091  0.00  0.00    -0.009 A 
ATOM     26  C   UNL     1      -1.976  -0.770  -1.327  0.00  0.00    +0.008 A 
ATOM     27  C   UNL     1      -3.278  -1.224  -1.413  0.00  0.00    +0.020 A 
ATOM     28  C   UNL     1      -4.025  -1.408  -0.263  0.00  0.00    +0.042 A 
ATOM     29  C   UNL     1      -3.468  -1.137   0.974  0.00  0.00    +0.040 A 
ATOM     30  C   UNL     1      -2.162  -0.688   1.060  0.00  0.00    +0.047 A 
ATOM     31 CL   UNL     1      -1.460  -0.353   2.612  0.00  0.00    -0.083 Cl
ATOM     32 CL   UNL     1      -5.661  -1.977  -0.372  0.00  0.00    -0.083 Cl
ENDBRANCH  24  25
ENDBRANCH  19  24
ENDBRANCH  18  20
ENDBRANCH   1  18
TORSDOF 8
