REMARK  Name = ZINC20985123
REMARK  5 active torsions:
REMARK  status: ('A' for Active; 'I' for Inactive)
REMARK    1  A    between atoms: C_5  and  C_7
REMARK    2  A    between atoms: C_7  and  N_8
REMARK    3  A    between atoms: N_12  and  S_14
REMARK    4  A    between atoms: S_14  and  C_17
REMARK    5  A    between atoms: C_20  and  C_22
REMARK                            x       y       z     vdW  Elec       q    Type
REMARK                         _______ _______ _______ _____ _____    ______ ____
ROOT
ATOM      1  S   UNL     1      -0.017   1.417   0.010  0.00  0.00    +0.065 S 
ATOM      2  O   UNL     1       0.002  -0.004   0.002  0.00  0.00    -0.152 OA
ATOM      3  O   UNL     1       1.172   2.195   0.003  0.00  0.00    -0.152 OA
ENDROOT
BRANCH   1   8
ATOM      4  N   UNL     1      -1.550   0.829   3.396  0.00  0.00    +0.392 N 
ATOM      5  C   UNL     1      -1.530   2.141   4.056  0.00  0.00    -0.075 C 
ATOM      6  C   UNL     1      -0.409   2.998   3.463  0.00  0.00    -0.002 C 
ATOM      7  C   UNL     1      -0.663   3.191   1.968  0.00  0.00    +0.105 C 
ATOM      8  N   UNL     1      -0.872   1.871   1.353  0.00  0.00    -0.193 NA
ATOM      9  C   UNL     1      -1.853   0.963   1.963  0.00  0.00    +0.034 C 
ATOM     10  H   UNL     1      -0.546   0.390   3.489  0.00  0.00    -0.079 HD
BRANCH   4  11
ATOM     11  C   UNL     1      -2.501  -0.077   4.053  0.00  0.00    -0.040 C 
BRANCH  11  16
ATOM     12  C   UNL     1      -3.069   0.750   7.693  0.00  0.00    +0.000 A 
ATOM     13  C   UNL     1      -1.982   0.139   8.288  0.00  0.00    +0.001 A 
ATOM     14  C   UNL     1      -1.061  -0.542   7.514  0.00  0.00    +0.020 A 
ATOM     15  C   UNL     1      -1.232  -0.617   6.143  0.00  0.00    +0.042 A 
ATOM     16  C   UNL     1      -2.318  -0.001   5.547  0.00  0.00    -0.046 A 
ATOM     17  C   UNL     1      -3.237   0.680   6.322  0.00  0.00    +0.003 A 
ATOM     18 CL   UNL     1      -0.081  -1.479   5.170  0.00  0.00    -0.083 Cl
ENDBRANCH  11  16
ENDBRANCH   4  11
ENDBRANCH   1   8
BRANCH   1  19
ATOM     19  C   UNL     1      -0.954   1.915  -1.397  0.00  0.00    +0.143 A 
ATOM     20  C   UNL     1      -0.912   3.090  -2.078  0.00  0.00    +0.037 A 
ATOM     21  C   UNL     1      -1.743   3.267  -3.162  0.00  0.00    +0.020 A 
ATOM     22  C   UNL     1      -2.588   2.249  -3.517  0.00  0.00    +0.041 A 
ATOM     23  S   UNL     1      -2.197   1.004  -2.298  0.00  0.00    -0.067 S 
BRANCH  22  24
ATOM     24  C   UNL     1      -3.564   2.193  -4.625  0.00  0.00    +0.098 A 
ATOM     25  C   UNL     1      -4.347   1.028  -4.817  0.00  0.00    +0.036 A 
ATOM     26  C   UNL     1      -5.237   1.013  -5.850  0.00  0.00    +0.073 A 
ATOM     27  C   UNL     1      -5.323   2.163  -6.667  0.00  0.00    +0.265 A 
ATOM     28  O   UNL     1      -6.106   2.195  -7.602  0.00  0.00    -0.266 OA
ATOM     29  N   UNL     1      -4.536   3.223  -6.405  0.00  0.00    -0.243 N 
ATOM     30  H   UNL     1      -4.593   4.120  -7.040  0.00  0.00    +0.192 HD
ATOM     31  N   UNL     1      -3.706   3.225  -5.426  0.00  0.00    -0.170 NA
ENDBRANCH  22  24
ENDBRANCH   1  19
TORSDOF 5
