REMARK  Name = ZINC40360174
REMARK  6 active torsions:
REMARK  status: ('A' for Active; 'I' for Inactive)
REMARK    1  A    between atoms: C_1  and  C_2
REMARK    2  A    between atoms: C_5  and  O_21
REMARK    3  A    between atoms: C_6  and  C_8
REMARK    4  A    between atoms: N_10  and  C_11
REMARK    5  A    between atoms: C_11  and  C_13
REMARK    6  A    between atoms: C_11  and  C_15
REMARK                            x       y       z     vdW  Elec       q    Type
REMARK                         _______ _______ _______ _____ _____    ______ ____
ROOT
ATOM      1  C   UNL     1       0.053  -2.841   2.459  0.00  0.00    +0.249 C 
ATOM      2  O   UNL     1       0.070  -4.056   2.449  0.00  0.00    -0.270 OA
ATOM      3  N   UNL     1       0.050  -2.176   3.631  0.00  0.00    -0.295 N 
ATOM      4  H   UNL     1       0.037  -1.206   3.639  0.00  0.00    +0.150 HD
ENDROOT
BRANCH   1  10
ATOM      5  C   UNL     1      -0.018   1.503   0.010  0.00  0.00    +0.044 C 
ATOM      6  C   UNL     1       0.002  -0.004   0.002  0.00  0.00    -0.050 A 
ATOM      7  C   UNL     1       0.006  -0.687  -1.203  0.00  0.00    +0.007 A 
ATOM      8  C   UNL     1       0.024  -2.067  -1.224  0.00  0.00    +0.046 A 
ATOM      9  C   UNL     1       0.040  -2.780  -0.034  0.00  0.00    +0.129 A 
ATOM     10  C   UNL     1       0.037  -2.093   1.187  0.00  0.00    +0.078 A 
ATOM     11  C   UNL     1       0.023  -0.696   1.193  0.00  0.00    +0.020 A 
BRANCH   9  12
ATOM     12  O   UNL     1       0.058  -4.137  -0.053  0.00  0.00    -0.506 OA
ATOM     13  H   UNL     1       0.947  -4.518  -0.063  0.00  0.00    +0.292 HD
ENDBRANCH   9  12
ENDBRANCH   1  10
BRANCH   3  14
ATOM     14  C   UNL     1       0.067  -2.918   4.894  0.00  0.00    +0.179 C 
BRANCH  14  15
ATOM     15  C   UNL     1       0.670  -2.041   5.993  0.00  0.00    +0.024 C 
ATOM     16  C   UNL     1       2.100  -1.655   5.610  0.00  0.00    +0.006 C 
ATOM     17  C   UNL     1       2.704  -0.778   6.709  0.00  0.00    +0.000 C 
ATOM     18  C   UNL     1       2.721  -1.553   8.028  0.00  0.00    +0.000 C 
ATOM     19  C   UNL     1       1.291  -1.940   8.411  0.00  0.00    +0.000 C 
ATOM     20  C   UNL     1       0.687  -2.817   7.312  0.00  0.00    +0.006 C 
ENDBRANCH  14  15
BRANCH  14  21
ATOM     21  C   UNL     1      -1.309  -3.290   5.263  0.00  0.00    +0.085 C 
ATOM     22  N   UNL     1      -2.371  -3.577   5.547  0.00  0.00    -0.195 NA
ENDBRANCH  14  21
ENDBRANCH   3  14
TORSDOF 5
