REMARK  Name = ZINC29168582
REMARK  9 active torsions:
REMARK  status: ('A' for Active; 'I' for Inactive)
REMARK    1  A    between atoms: C_1  and  C_2
REMARK    2  A    between atoms: C_5  and  C_8
REMARK    3  A    between atoms: C_8  and  C_9
REMARK    4  A    between atoms: C_9  and  C_10
REMARK    5  A    between atoms: N_13  and  C_16
REMARK    6  A    between atoms: C_16  and  C_17
REMARK    7  A    between atoms: C_23  and  S_30
REMARK    8  A    between atoms: C_27  and  C_29
REMARK    9  A    between atoms: S_30  and  N_33
REMARK                            x       y       z     vdW  Elec       q    Type
REMARK                         _______ _______ _______ _____ _____    ______ ____
ROOT
ATOM      1  C   UNL     1      -0.718   1.572   1.248  0.00  0.00    +0.203 C 
ATOM      2  O   UNL     1      -1.715   2.256   1.150  0.00  0.00    -0.277 OA
ATOM      3  N   UNL     1      -0.242   1.246   2.466  0.00  0.00    -0.270 N 
ATOM      4  C   UNL     1       0.895   0.466   2.699  0.00  0.00    +0.040 A 
ATOM      5  C   UNL     1       1.763  -0.130   1.782  0.00  0.00    +0.026 A 
ATOM      6  C   UNL     1       2.840  -0.869   2.224  0.00  0.00    +0.030 A 
ATOM      7  C   UNL     1       3.069  -1.025   3.579  0.00  0.00    +0.105 A 
ATOM      8  C   UNL     1       2.214  -0.437   4.492  0.00  0.00    +0.034 A 
ATOM      9  C   UNL     1       1.133   0.304   4.055  0.00  0.00    -0.022 A 
ATOM     10  C   UNL     1       0.060   1.041   4.824  0.00  0.00    +0.059 C 
ATOM     11  C   UNL     1      -0.835   1.662   3.739  0.00  0.00    +0.083 C 
ATOM     12  C   UNL     1      -2.262   1.124   3.861  0.00  0.00    +0.029 C 
ENDROOT
BRANCH   7  13
ATOM     13  S   UNL     1       4.446  -1.970   4.139  0.00  0.00    +0.056 S 
ATOM     14  O   UNL     1       4.126  -2.417   5.449  0.00  0.00    -0.153 OA
ATOM     15  O   UNL     1       4.778  -2.867   3.088  0.00  0.00    -0.153 OA
BRANCH  13  16
ATOM     16  N   UNL     1       5.725  -0.929   4.293  0.00  0.00    -0.204 NA
ATOM     17  H   UNL     1       6.609  -1.483   4.642  0.00  0.00    +0.144 HD
ATOM     18  H   UNL     1       5.473  -0.144   5.021  0.00  0.00    +0.144 HD
ENDBRANCH  13  16
ENDBRANCH   7  13
BRANCH   1  19
ATOM     19  C   UNL     1      -0.013   1.086   0.008  0.00  0.00    +0.019 C 
BRANCH  19  23
ATOM     20  C   UNL     1      -2.047   1.380  -3.741  0.00  0.00    -0.014 C 
ATOM     21  C   UNL     1      -0.641   1.970  -3.598  0.00  0.00    -0.015 C 
ATOM     22  C   UNL     1       0.058   1.323  -2.400  0.00  0.00    -0.078 C 
ATOM     23  N   UNL     1      -0.723   1.572  -1.182  0.00  0.00    +0.385 N 
ATOM     24  C   UNL     1      -2.061   0.974  -1.278  0.00  0.00    -0.078 C 
ATOM     25  C   UNL     1      -2.824   1.611  -2.442  0.00  0.00    -0.015 C 
ATOM     26  H   UNL     1      -0.849   2.660  -1.081  0.00  0.00    -0.081 HD
BRANCH  20  27
ATOM     27  C   UNL     1      -2.773   2.065  -4.901  0.00  0.00    +0.008 C 
BRANCH  27  28
ATOM     28  C   UNL     1      -4.129   1.391  -5.123  0.00  0.00    +0.035 C 
BRANCH  28  33
ATOM     29  C   UNL     1      -6.870   3.978  -9.503  0.00  0.00    +0.044 C 
ATOM     30  C   UNL     1      -6.156   3.303  -8.361  0.00  0.00    -0.050 A 
ATOM     31  C   UNL     1      -5.321   2.229  -8.606  0.00  0.00    +0.003 A 
ATOM     32  C   UNL     1      -4.665   1.610  -7.558  0.00  0.00    +0.004 A 
ATOM     33  C   UNL     1      -4.844   2.066  -6.265  0.00  0.00    -0.047 A 
ATOM     34  C   UNL     1      -5.683   3.137  -6.019  0.00  0.00    +0.004 A 
ATOM     35  C   UNL     1      -6.335   3.758  -7.067  0.00  0.00    +0.003 A 
ENDBRANCH  28  33
ENDBRANCH  27  28
ENDBRANCH  20  27
ENDBRANCH  19  23
ENDBRANCH   1  19
TORSDOF 7
