REMARK  Name = ZINC00942902
REMARK  5 active torsions:
REMARK  status: ('A' for Active; 'I' for Inactive)
REMARK    1  A    between atoms: C_1  and  C_2
REMARK    2  A    between atoms: C_3  and  C_22
REMARK    3  A    between atoms: C_9  and  O_13
REMARK    4  A    between atoms: O_13  and  C_14
REMARK    5  A    between atoms: C_14  and  C_15
REMARK                            x       y       z     vdW  Elec       q    Type
REMARK                         _______ _______ _______ _____ _____    ______ ____
ROOT
ATOM      1  C   UNL     1      -4.132   0.135   2.261  0.00  0.00    +0.087 C 
ATOM      2  C   UNL     1      -4.521  -0.720   1.082  0.00  0.00    +0.114 A 
ATOM      3  C   UNL     1      -3.680  -0.785   0.018  0.00  0.00    +0.067 A 
ATOM      4  C   UNL     1      -4.063  -1.616  -1.136  0.00  0.00    +0.200 A 
ATOM      5  O   UNL     1      -3.351  -1.708  -2.121  0.00  0.00    -0.286 OA
ATOM      6  C   UNL     1      -5.346  -2.334  -1.041  0.00  0.00    +0.065 A 
ATOM      7  C   UNL     1      -5.798  -3.151  -2.079  0.00  0.00    +0.019 A 
ATOM      8  C   UNL     1      -6.995  -3.796  -1.960  0.00  0.00    +0.046 A 
ATOM      9  C   UNL     1      -7.766  -3.644  -0.810  0.00  0.00    +0.125 A 
ATOM     10  C   UNL     1      -7.332  -2.837   0.228  0.00  0.00    +0.092 A 
ATOM     11  C   UNL     1      -6.117  -2.173   0.124  0.00  0.00    +0.142 A 
ATOM     12  O   UNL     1      -5.679  -1.383   1.125  0.00  0.00    -0.459 OA
ENDROOT
BRANCH   3  13
ATOM     13  C   UNL     1      -2.403  -0.030   0.016  0.00  0.00    -0.007 A 
ATOM     14  C   UNL     1      -2.416   1.364   0.026  0.00  0.00    +0.012 A 
ATOM     15  C   UNL     1      -1.228   2.065   0.019  0.00  0.00    +0.050 A 
ATOM     16  C   UNL     1      -0.017   1.387   0.010  0.00  0.00    +0.162 A 
ATOM     17  C   UNL     1       0.002  -0.004   0.002  0.00  0.00    +0.163 A 
ATOM     18  C   UNL     1      -1.189  -0.712   0.004  0.00  0.00    +0.058 A 
ATOM     19  O   UNL     1       1.181  -0.685  -0.006  0.00  0.00    -0.485 OA
ATOM     20  C   UNL     1       2.347   0.053  -0.387  0.00  0.00    +0.270 C 
ATOM     21  C   UNL     1       2.335   1.391   0.365  0.00  0.00    +0.270 C 
ATOM     22  O   UNL     1       1.144   2.098   0.002  0.00  0.00    -0.485 OA
ENDBRANCH   3  13
BRANCH   9  23
ATOM     23  O   UNL     1      -8.955  -4.292  -0.706  0.00  0.00    -0.487 OA
BRANCH  23  24
ATOM     24  C   UNL     1      -9.347  -5.109  -1.810  0.00  0.00    +0.264 C 
BRANCH  24  25
ATOM     25  C   UNL     1     -10.682  -5.744  -1.516  0.00  0.00    -0.010 A 
ATOM     26  C   UNL     1     -10.739  -6.975  -0.890  0.00  0.00    +0.010 A 
ATOM     27  C   UNL     1     -11.963  -7.555  -0.616  0.00  0.00    +0.039 A 
ATOM     28  C   UNL     1     -13.132  -6.908  -0.978  0.00  0.00    +0.123 A 
ATOM     29  C   UNL     1     -13.074  -5.678  -1.610  0.00  0.00    +0.039 A 
ATOM     30  C   UNL     1     -11.849  -5.096  -1.879  0.00  0.00    +0.010 A 
ATOM     31  F   UNL     1     -14.329  -7.477  -0.715  0.00  0.00    -0.205 F 
ENDBRANCH  24  25
ENDBRANCH  23  24
ENDBRANCH   9  23
TORSDOF 4
