REMARK  Name = ZINC17473084
REMARK  5 active torsions:
REMARK  status: ('A' for Active; 'I' for Inactive)
REMARK    1  A    between atoms: C_4  and  C_7
REMARK    2  A    between atoms: C_8  and  C_16
REMARK    3  A    between atoms: C_17  and  C_18
REMARK    4  A    between atoms: C_17  and  C_20
REMARK    5  A    between atoms: N_22  and  C_23
REMARK                            x       y       z     vdW  Elec       q    Type
REMARK                         _______ _______ _______ _____ _____    ______ ____
ROOT
ATOM      1  C   UNL     1       3.733  -0.694  -0.015  0.00  0.00    +0.097 A 
ATOM      2  C   UNL     1       4.001  -1.918   0.623  0.00  0.00    +0.075 A 
ATOM      3  N   UNL     1       5.326  -2.214   0.347  0.00  0.00    -0.299 N 
ATOM      4  C   UNL     1       6.120  -3.260   0.700  0.00  0.00    +0.093 A 
ATOM      5  C   UNL     1       7.410  -3.315   0.292  0.00  0.00    +0.018 A 
ATOM      6  C   UNL     1       7.941  -2.289  -0.501  0.00  0.00    +0.005 A 
ATOM      7  C   UNL     1       7.151  -1.236  -0.859  0.00  0.00    +0.047 A 
ATOM      8  C   UNL     1       5.813  -1.197  -0.425  0.00  0.00    +0.139 A 
ATOM      9  N   UNL     1       4.844  -0.307  -0.633  0.00  0.00    -0.227 NA
ENDROOT
BRANCH   1  13
ATOM     10  C   UNL     1       0.027   1.386   0.008  0.00  0.00    +0.000 A 
ATOM     11  C   UNL     1       1.215   2.095   0.009  0.00  0.00    +0.001 A 
ATOM     12  C   UNL     1       2.421   1.426   0.002  0.00  0.00    +0.010 A 
ATOM     13  C   UNL     1       2.442   0.031  -0.007  0.00  0.00    +0.002 A 
ATOM     14  C   UNL     1       1.241  -0.679  -0.008  0.00  0.00    +0.010 A 
ATOM     15  C   UNL     1       0.041   0.002  -0.001  0.00  0.00    +0.001 A 
ENDBRANCH   1  13
BRANCH   2  16
ATOM     16  C   UNL     1       3.111  -2.681   1.382  0.00  0.00    +0.052 C 
ATOM     17  C   UNL     1       2.371  -2.081   2.399  0.00  0.00    +0.116 C 
BRANCH  17  18
ATOM     18  C   UNL     1       1.437  -2.881   3.195  0.00  0.00    +0.259 C 
ATOM     19  O   UNL     1       1.308  -4.070   2.969  0.00  0.00    -0.269 OA
ATOM     20  N   UNL     1       0.721  -2.301   4.178  0.00  0.00    -0.279 N 
ATOM     21  H   UNL     1       0.871  -1.369   4.402  0.00  0.00    +0.155 HD
BRANCH  20  22
ATOM     22  C   UNL     1      -0.238  -3.043   4.877  0.00  0.00    +0.069 A 
ATOM     23  C   UNL     1      -0.025  -4.391   5.132  0.00  0.00    +0.026 A 
ATOM     24  C   UNL     1      -0.973  -5.121   5.822  0.00  0.00    +0.002 A 
ATOM     25  C   UNL     1      -2.135  -4.511   6.260  0.00  0.00    +0.003 A 
ATOM     26  C   UNL     1      -2.352  -3.169   6.008  0.00  0.00    +0.040 A 
ATOM     27  C   UNL     1      -1.404  -2.430   5.323  0.00  0.00    +0.144 A 
ATOM     28  F   UNL     1      -1.614  -1.118   5.082  0.00  0.00    -0.204 F 
ENDBRANCH  20  22
ENDBRANCH  17  18
BRANCH  17  29
ATOM     29  C   UNL     1       2.522  -0.682   2.665  0.00  0.00    +0.104 C 
ATOM     30  N   UNL     1       2.643   0.428   2.876  0.00  0.00    -0.191 NA
ENDBRANCH  17  29
ENDBRANCH   2  16
TORSDOF 5
