REMARK  Name = ZINC10986459
REMARK  7 active torsions:
REMARK  status: ('A' for Active; 'I' for Inactive)
REMARK    1  A    between atoms: C_4  and  C_7
REMARK    2  A    between atoms: C_11  and  C_12
REMARK    3  A    between atoms: C_12  and  O_14
REMARK    4  A    between atoms: O_14  and  C_15
REMARK    5  A    between atoms: C_15  and  C_16
REMARK    6  A    between atoms: N_18  and  C_19
REMARK    7  A    between atoms: C_22  and  N_26
REMARK                            x       y       z     vdW  Elec       q    Type
REMARK                         _______ _______ _______ _____ _____    ______ ____
ROOT
ATOM      1  C   UNL     1      -3.463   3.101   0.054  0.00  0.00    +0.328 C 
ENDROOT
BRANCH   1   2
ATOM      2  C   UNL     1      -4.778   2.366   0.046  0.00  0.00    +0.255 C 
ATOM      3  O   UNL     1      -4.795   1.153   0.036  0.00  0.00    -0.272 OA
ATOM      4  N   UNL     1      -5.936   3.056   0.049  0.00  0.00    -0.282 N 
ATOM      5  H   UNL     1      -5.924   4.023   0.123  0.00  0.00    +0.155 HD
BRANCH   4   6
ATOM      6  C   UNL     1      -7.155   2.377  -0.053  0.00  0.00    +0.048 A 
ATOM      7  C   UNL     1      -7.307   1.127   0.532  0.00  0.00    +0.026 A 
ATOM      8  C   UNL     1      -8.512   0.459   0.429  0.00  0.00    +0.034 A 
ATOM      9  C   UNL     1      -9.567   1.034  -0.256  0.00  0.00    +0.127 A 
ATOM     10  C   UNL     1      -9.419   2.278  -0.841  0.00  0.00    +0.049 A 
ATOM     11  C   UNL     1      -8.218   2.954  -0.737  0.00  0.00    +0.041 A 
ATOM     12 BR   UNL     1      -8.020   4.659  -1.530  0.00  0.00    -0.048 Br
BRANCH   9  13
ATOM     13  N   UNL     1     -10.857   0.316  -0.363  0.00  0.00    +0.056 N 
ATOM     14  O   UNL     1     -10.988  -0.780   0.151  0.00  0.00    -0.126 OA
ATOM     15  O   UNL     1     -11.786   0.821  -0.967  0.00  0.00    -0.126 OA
ENDBRANCH   9  13
ENDBRANCH   4   6
ENDBRANCH   1   2
BRANCH   1  16
ATOM     16  O   UNL     1      -2.389   2.158   0.049  0.00  0.00    -0.451 OA
BRANCH  16  17
ATOM     17  C   UNL     1      -1.135   2.656   0.055  0.00  0.00    +0.347 C 
ATOM     18  O   UNL     1      -0.959   3.860   0.065  0.00  0.00    -0.244 OA
BRANCH  17  23
ATOM     19  C   UNL     1       1.343   2.083   0.049  0.00  0.00    +0.003 A 
ATOM     20  C   UNL     1       2.216   1.010   0.038  0.00  0.00    +0.017 A 
ATOM     21  C   UNL     1       1.717  -0.250   0.028  0.00  0.00    +0.046 A 
ATOM     22  S   UNL     1       0.001  -0.006   0.035  0.00  0.00    -0.090 S 
ATOM     23  C   UNL     1      -0.022   1.777   0.050  0.00  0.00    +0.104 A 
BRANCH  19  27
ATOM     24  C   UNL     1       2.734   6.098   0.078  0.00  0.00    +0.000 A 
ATOM     25  C   UNL     1       3.240   5.187   0.989  0.00  0.00    +0.001 A 
ATOM     26  C   UNL     1       2.792   3.882   0.984  0.00  0.00    +0.008 A 
ATOM     27  C   UNL     1       1.828   3.482   0.059  0.00  0.00    -0.017 A 
ATOM     28  C   UNL     1       1.326   4.404  -0.860  0.00  0.00    +0.008 A 
ATOM     29  C   UNL     1       1.778   5.707  -0.842  0.00  0.00    +0.001 A 
ENDBRANCH  19  27
ENDBRANCH  17  23
ENDBRANCH  16  17
ENDBRANCH   1  16
TORSDOF 7
