REMARK  Name = ZINC09137465
REMARK  8 active torsions:
REMARK  status: ('A' for Active; 'I' for Inactive)
REMARK    1  A    between atoms: C_1  and  C_2
REMARK    2  A    between atoms: C_3  and  C_11
REMARK    3  A    between atoms: C_7  and  N_8
REMARK    4  A    between atoms: N_13  and  C_14
REMARK    5  A    between atoms: C_14  and  C_15
REMARK    6  A    between atoms: C_15  and  C_17
REMARK    7  A    between atoms: C_15  and  N_64
REMARK    8  A    between atoms: N_26  and  C_27
REMARK                            x       y       z     vdW  Elec       q    Type
REMARK                         _______ _______ _______ _____ _____    ______ ____
ROOT
ATOM      1  C   UNL     1       3.338  -1.688   4.532  0.00  0.00    -0.020 C 
ENDROOT
BRANCH   1   2
ATOM      2  C   UNL     1       2.720  -0.761   3.517  0.00  0.00    -0.059 A 
ATOM      3  C   UNL     1       1.398  -0.923   3.144  0.00  0.00    +0.004 A 
ATOM      4  C   UNL     1       0.837  -0.076   2.214  0.00  0.00    +0.023 A 
ATOM      5  C   UNL     1       1.594   0.948   1.642  0.00  0.00    +0.033 A 
ATOM      6  C   UNL     1       2.915   1.109   2.022  0.00  0.00    -0.026 A 
ATOM      7  C   UNL     1       3.474   0.252   2.957  0.00  0.00    +0.007 A 
ATOM      8  C   UNL     1       3.784   2.201   1.451  0.00  0.00    +0.038 C 
ATOM      9  C   UNL     1       3.128   2.776   0.193  0.00  0.00    +0.024 C 
ATOM     10  C   UNL     1       1.653   3.048   0.511  0.00  0.00    +0.105 C 
ATOM     11  N   UNL     1       0.970   1.767   0.702  0.00  0.00    -0.333 N 
ATOM     12  C   UNL     1      -0.446   1.970   1.038  0.00  0.00    +0.129 C 
ENDBRANCH   1   2
BRANCH   1  18
ATOM     13  C   UNL     1       4.103  -2.837   2.543  0.00  0.00    -0.078 C 
ATOM     14  C   UNL     1       4.492  -4.206   1.981  0.00  0.00    -0.019 C 
ATOM     15  C   UNL     1       3.265  -5.122   1.985  0.00  0.00    -0.004 C 
ATOM     16  C   UNL     1       2.724  -5.231   3.413  0.00  0.00    -0.019 C 
ATOM     17  C   UNL     1       2.386  -3.832   3.933  0.00  0.00    -0.078 C 
ATOM     18  N   UNL     1       3.613  -3.008   3.927  0.00  0.00    +0.385 N 
ATOM     19  H   UNL     1       4.336  -3.483   4.480  0.00  0.00    -0.081 HD
ENDBRANCH   1  18
BRANCH   1  20
ATOM     20  C   UNL     1       2.381  -1.862   5.712  0.00  0.00    +0.094 C 
BRANCH  20  23
ATOM     21  C   UNL     1       2.294  -3.111   7.803  0.00  0.00    +0.244 C 
ATOM     22  O   UNL     1       1.151  -2.724   7.952  0.00  0.00    -0.270 OA
ATOM     23  N   UNL     1       2.995  -2.736   6.715  0.00  0.00    -0.313 N 
ATOM     24  H   UNL     1       3.907  -3.045   6.595  0.00  0.00    +0.149 HD
BRANCH  21  27
ATOM     25  C   UNL     1       0.898  -3.651  10.280  0.00  0.00    +0.047 C 
ATOM     26  C   UNL     1       2.250  -4.260  10.013  0.00  0.00    -0.008 A 
ATOM     27  C   UNL     1       2.914  -3.993   8.814  0.00  0.00    +0.042 A 
ATOM     28  C   UNL     1       4.168  -4.557   8.578  0.00  0.00    +0.013 A 
ATOM     29  C   UNL     1       4.742  -5.379   9.526  0.00  0.00    +0.003 A 
ATOM     30  C   UNL     1       4.076  -5.645  10.709  0.00  0.00    +0.033 A 
ATOM     31  C   UNL     1       2.832  -5.088  10.950  0.00  0.00    +0.130 A 
BRANCH  31  32
ATOM     32  N   UNL     1       2.127  -5.378  12.219  0.00  0.00    +0.057 N 
ATOM     33  O   UNL     1       2.737  -5.853  13.160  0.00  0.00    -0.126 OA
ATOM     34  O   UNL     1       0.937  -5.141  12.322  0.00  0.00    -0.126 OA
ENDBRANCH  31  32
ENDBRANCH  21  27
ENDBRANCH  20  23
ENDBRANCH   1  20
TORSDOF 6
