REMARK  Name = ZINC15083362
REMARK  7 active torsions:
REMARK  status: ('A' for Active; 'I' for Inactive)
REMARK    1  A    between atoms: C_1  and  C_2
REMARK    2  A    between atoms: C_18  and  C_20
REMARK    3  A    between atoms: C_24  and  O_35
REMARK    4  A    between atoms: C_25  and  O_26
REMARK    5  A    between atoms: O_26  and  C_27
REMARK    6  A    between atoms: C_27  and  C_28
REMARK    7  A    between atoms: O_35  and  C_36
REMARK                            x       y       z     vdW  Elec       q    Type
REMARK                         _______ _______ _______ _____ _____    ______ ____
ROOT
ATOM      1  C   UNL     1      -0.018   1.503   0.010  0.00  0.00    +0.068 C 
ATOM      2  C   UNL     1       0.002  -0.004   0.002  0.00  0.00    +0.066 A 
ATOM      3  C   UNL     1       0.008  -0.810  -1.127  0.00  0.00    +0.023 A 
ATOM      4  C   UNL     1       0.033  -2.116  -0.714  0.00  0.00    +0.134 A 
ATOM      5  N   UNL     1       0.033  -2.117   0.636  0.00  0.00    -0.198 N 
ATOM      6  N   UNL     1       0.023  -0.778   1.062  0.00  0.00    -0.168 NA
ATOM      7  C   UNL     1       0.045  -3.246   1.460  0.00  0.00    +0.178 A 
ATOM      8  C   UNL     1       0.549  -3.159   2.757  0.00  0.00    +0.053 A 
ATOM      9  C   UNL     1       0.538  -4.306   3.535  0.00  0.00    +0.045 A 
ATOM     10  C   UNL     1       0.028  -5.470   2.975  0.00  0.00    +0.152 A 
ATOM     11  N   UNL     1      -0.429  -5.460   1.737  0.00  0.00    -0.136 NA
ATOM     12  N   UNL     1      -0.426  -4.399   1.015  0.00  0.00    -0.128 NA
ATOM     13 CL   UNL     1      -0.009  -6.937   3.903  0.00  0.00    -0.060 Cl
ATOM     14  N   UNL     1       0.064  -3.175  -1.620  0.00  0.00    -0.270 N 
ATOM     15  C   UNL     1       0.274  -2.891  -2.923  0.00  0.00    +0.219 C 
ATOM     16  O   UNL     1       0.119  -3.767  -3.747  0.00  0.00    -0.275 OA
ATOM     17  C   UNL     1       0.694  -1.524  -3.384  0.00  0.00    +0.109 C 
ATOM     18  C   UNL     1      -0.014  -0.426  -2.585  0.00  0.00    +0.067 C 
ATOM     19  H   UNL     1      -0.060  -4.090  -1.322  0.00  0.00    +0.156 HD
ENDROOT
BRANCH  18  20
ATOM     20  C   UNL     1       0.706   0.885  -2.775  0.00  0.00    +0.006 A 
ATOM     21  C   UNL     1       2.039   0.998  -2.428  0.00  0.00    +0.008 A 
ATOM     22  C   UNL     1       2.702   2.198  -2.601  0.00  0.00    +0.004 A 
ATOM     23  C   UNL     1       2.034   3.292  -3.122  0.00  0.00    +0.049 A 
ATOM     24  C   UNL     1       0.699   3.185  -3.471  0.00  0.00    +0.162 A 
ATOM     25  C   UNL     1       0.033   1.974  -3.303  0.00  0.00    +0.166 A 
BRANCH  24  26
ATOM     26  O   UNL     1       0.040   4.259  -3.984  0.00  0.00    -0.491 OA
ATOM     27  C   UNL     1       0.789   5.467  -4.134  0.00  0.00    +0.277 C 
ENDBRANCH  24  26
BRANCH  25  28
ATOM     28  O   UNL     1      -1.278   1.863  -3.650  0.00  0.00    -0.483 OA
BRANCH  28  29
ATOM     29  C   UNL     1      -2.244   2.167  -2.643  0.00  0.00    +0.267 C 
BRANCH  29  30
ATOM     30  C   UNL     1      -3.630   1.990  -3.206  0.00  0.00    +0.025 A 
ATOM     31  C   UNL     1      -3.797   1.582  -4.516  0.00  0.00    +0.010 A 
ATOM     32  C   UNL     1      -5.068   1.419  -5.033  0.00  0.00    +0.001 A 
ATOM     33  C   UNL     1      -6.175   1.663  -4.241  0.00  0.00    +0.003 A 
ATOM     34  C   UNL     1      -6.011   2.070  -2.931  0.00  0.00    +0.039 A 
ATOM     35  C   UNL     1      -4.737   2.229  -2.410  0.00  0.00    +0.130 A 
ATOM     36  F   UNL     1      -4.575   2.622  -1.128  0.00  0.00    -0.205 F 
ENDBRANCH  29  30
ENDBRANCH  28  29
ENDBRANCH  25  28
ENDBRANCH  18  20
TORSDOF 5
