REMARK  Name = ZINC12529304
REMARK  4 active torsions:
REMARK  status: ('A' for Active; 'I' for Inactive)
REMARK    1  A    between atoms: C_1  and  C_2
REMARK    2  A    between atoms: C_6  and  C_7
REMARK    3  A    between atoms: C_17  and  C_29
REMARK    4  A    between atoms: C_23  and  C_25
REMARK                            x       y       z     vdW  Elec       q    Type
REMARK                         _______ _______ _______ _____ _____    ______ ____
ROOT
ATOM      1  C   UNL     1      -0.307   1.346   0.245  0.00  0.00    +0.008 C 
ATOM      2  C   UNL     1      -0.064  -0.162   0.160  0.00  0.00    -0.006 C 
ATOM      3  C   UNL     1       0.546  -0.509  -1.205  0.00  0.00    +0.041 C 
ATOM      4  C   UNL     1       0.708  -2.013  -1.257  0.00  0.00    -0.021 C 
ATOM      5  C   UNL     1       0.395  -2.705  -2.364  0.00  0.00    +0.013 C 
ATOM      6  C   UNL     1       1.222  -2.697  -0.048  0.00  0.00    +0.072 C 
ATOM      7  C   UNL     1       1.304  -2.026   1.116  0.00  0.00    -0.017 C 
ATOM      8  C   UNL     1       0.906  -0.586   1.261  0.00  0.00    +0.038 C 
ATOM      9  C   UNL     1       1.826  -2.778   2.329  0.00  0.00    +0.155 C 
ATOM     10  N   UNL     1       2.206  -4.177   2.112  0.00  0.00    -0.208 N 
ATOM     11  C   UNL     1       2.067  -4.718   0.850  0.00  0.00    +0.238 C 
ATOM     12  N   UNL     1       1.603  -4.002  -0.144  0.00  0.00    -0.213 NA
ATOM     13  N   UNL     1       2.484  -6.002   0.923  0.00  0.00    -0.192 NA
ATOM     14  C   UNL     1       2.866  -6.286   2.138  0.00  0.00    +0.219 C 
ATOM     15  N   UNL     1       2.716  -5.188   2.929  0.00  0.00    -0.241 N 
ATOM     16  H   UNL     1       2.924  -5.121   3.875  0.00  0.00    +0.172 HD
ENDROOT
BRANCH   5  17
ATOM     17  C   UNL     1       0.050  -1.992  -3.607  0.00  0.00    -0.025 A 
ATOM     18  C   UNL     1       0.653  -0.766  -3.903  0.00  0.00    +0.009 A 
ATOM     19  C   UNL     1       0.326  -0.104  -5.068  0.00  0.00    +0.020 A 
ATOM     20  C   UNL     1      -0.599  -0.650  -5.942  0.00  0.00    +0.041 A 
ATOM     21  C   UNL     1      -1.201  -1.864  -5.654  0.00  0.00    +0.020 A 
ATOM     22  C   UNL     1      -0.879  -2.540  -4.496  0.00  0.00    +0.009 A 
ATOM     23 CL   UNL     1      -1.006   0.190  -7.406  0.00  0.00    -0.084 Cl
ENDBRANCH   5  17
BRANCH   9  24
ATOM     24  C   UNL     1       3.033  -2.042   2.851  0.00  0.00    -0.021 A 
ATOM     25  C   UNL     1       4.260  -2.203   2.237  0.00  0.00    +0.007 A 
ATOM     26  C   UNL     1       5.367  -1.528   2.716  0.00  0.00    +0.020 A 
ATOM     27  C   UNL     1       5.247  -0.691   3.811  0.00  0.00    +0.041 A 
ATOM     28  C   UNL     1       4.018  -0.530   4.426  0.00  0.00    +0.020 A 
ATOM     29  C   UNL     1       2.910  -1.201   3.942  0.00  0.00    +0.007 A 
ATOM     30 CL   UNL     1       6.637   0.156   4.413  0.00  0.00    -0.084 Cl
ENDBRANCH   9  24
BRANCH  14  31
ATOM     31  C   UNL     1       3.392  -7.622   2.594  0.00  0.00    +0.449 C 
ATOM     32  F   UNL     1       3.407  -8.511   1.514  0.00  0.00    -0.163 F 
ATOM     33  F   UNL     1       4.691  -7.468   3.089  0.00  0.00    -0.163 F 
ATOM     34  F   UNL     1       2.565  -8.128   3.603  0.00  0.00    -0.163 F 
ENDBRANCH  14  31
TORSDOF 3
