REMARK  Name = ZINC08762532
REMARK  15 active torsions:
REMARK  status: ('A' for Active; 'I' for Inactive)
REMARK    1  A    between atoms: C_1  and  C_2
REMARK    2  A    between atoms: N_6  and  O_7
REMARK    3  A    between atoms: O_7  and  C_8
REMARK    4  A    between atoms: C_8  and  C_9
REMARK    5  A    between atoms: N_11  and  C_12
REMARK    6  A    between atoms: C_12  and  C_14
REMARK    7  A    between atoms: C_12  and  C_19
REMARK    8  A    between atoms: C_14  and  C_15
REMARK    9  A    between atoms: C_15  and  C_16
REMARK   10  A    between atoms: C_16  and  C_17
REMARK   11  A    between atoms: C_19  and  O_21
REMARK   12  A    between atoms: O_21  and  C_22
REMARK   13  A    between atoms: C_33  and  C_42
REMARK   14  A    between atoms: C_38  and  C_39
REMARK   15  A    between atoms: C_38  and  O_41
REMARK                            x       y       z     vdW  Elec       q    Type
REMARK                         _______ _______ _______ _____ _____    ______ ____
ROOT
ATOM      1  C   UNL     1       1.263  -3.905   2.877  0.00  0.00    +0.016 C 
ATOM      2  C   UNL     1       0.637  -3.054   1.770  0.00  0.00    -0.007 C 
ATOM      3  C   UNL     1      -0.761  -3.568   1.625  0.00  0.00    +0.017 C 
ATOM      4  C   UNL     1      -1.280  -3.429   0.195  0.00  0.00    +0.059 C 
ATOM      5  C   UNL     1      -0.290  -4.123  -0.722  0.00  0.00    +0.080 C 
ATOM      6  N   UNL     1      -0.661  -5.021  -1.578  0.00  0.00    -0.089 NA
ATOM      7  C   UNL     1       1.120  -3.711  -0.580  0.00  0.00    +0.026 C 
ATOM      8  C   UNL     1       1.529  -3.208   0.577  0.00  0.00    -0.062 C 
ATOM      9  C   UNL     1       2.970  -2.744   0.708  0.00  0.00    +0.031 C 
ATOM     10  C   UNL     1       2.944  -1.294   1.203  0.00  0.00    +0.008 C 
ATOM     11  C   UNL     1       2.140  -1.196   2.501  0.00  0.00    -0.003 C 
ATOM     12  C   UNL     1       0.687  -1.606   2.260  0.00  0.00    +0.002 C 
ATOM     13  C   UNL     1      -0.073  -1.505   3.588  0.00  0.00    +0.005 C 
ATOM     14  C   UNL     1      -0.071  -0.050   4.045  0.00  0.00    +0.011 C 
ATOM     15  C   UNL     1       1.358   0.432   4.306  0.00  0.00    +0.011 C 
ATOM     16  C   UNL     1       2.240   0.200   3.067  0.00  0.00    +0.002 C 
ATOM     17  C   UNL     1       1.757   1.276   2.077  0.00  0.00    +0.008 C 
ATOM     18  C   UNL     1       1.519   2.512   2.975  0.00  0.00    +0.049 C 
ATOM     19  C   UNL     1       1.293   1.980   4.403  0.00  0.00    +0.132 C 
ATOM     20  C   UNL     1       1.955  -0.208   5.561  0.00  0.00    +0.015 C 
ENDROOT
BRANCH  19  21
ATOM     21  C   UNL     1       2.349   2.477   5.300  0.00  0.00    -0.070 C 
ATOM     22  C   UNL     1       3.191   2.873   6.016  0.00  0.00    +0.007 C 
ENDBRANCH  19  21
BRANCH  19  23
ATOM     23  O   UNL     1       0.010   2.389   4.881  0.00  0.00    -0.376 OA
ATOM     24  H   UNL     1      -0.101   3.348   4.939  0.00  0.00    +0.211 HD
ENDBRANCH  19  23
BRANCH   6  25
ATOM     25  O   UNL     1       0.300  -5.642  -2.413  0.00  0.00    -0.384 OA
BRANCH  25  26
ATOM     26  C   UNL     1      -0.248  -6.612  -3.308  0.00  0.00    +0.358 C 
BRANCH  26  27
ATOM     27  C   UNL     1       0.856  -7.205  -4.144  0.00  0.00    +0.254 C 
ATOM     28  O   UNL     1       2.000  -6.833  -3.989  0.00  0.00    -0.272 OA
ATOM     29  N   UNL     1       0.573  -8.148  -5.064  0.00  0.00    -0.299 N 
ATOM     30  H   UNL     1      -0.342  -8.445  -5.188  0.00  0.00    +0.150 HD
BRANCH  29  31
ATOM     31  C   UNL     1       1.647  -8.724  -5.877  0.00  0.00    +0.182 C 
BRANCH  31  32
ATOM     32  C   UNL     1       1.902  -7.842  -7.072  0.00  0.00    +0.327 C 
ATOM     33  O   UNL     1       1.253  -6.834  -7.228  0.00  0.00    -0.249 OA
BRANCH  32  34
ATOM     34  O   UNL     1       2.850  -8.174  -7.962  0.00  0.00    -0.467 OA
ATOM     35  C   UNL     1       3.041  -7.277  -9.088  0.00  0.00    +0.280 C 
ENDBRANCH  32  34
ENDBRANCH  31  32
BRANCH  31  36
ATOM     36  C   UNL     1       1.235 -10.119  -6.352  0.00  0.00    +0.034 C 
BRANCH  36  37
ATOM     37  C   UNL     1       1.097 -11.049  -5.145  0.00  0.00    +0.010 C 
BRANCH  37  38
ATOM     38  C   UNL     1       0.685 -12.444  -5.621  0.00  0.00    +0.068 C 
BRANCH  38  39
ATOM     39  C   UNL     1       0.549 -13.360  -4.432  0.00  0.00    +0.063 C 
ATOM     40  N   UNL     1       0.186 -14.668  -4.613  0.00  0.00    -0.348 N 
ATOM     41  H   UNL     1       0.715 -13.422  -2.412  0.00  0.00    +0.157 HD
ATOM     42  H   UNL     1       0.017 -15.005  -5.507  0.00  0.00    +0.143 HD
ATOM     43  H   UNL     1       0.099 -15.258  -3.848  0.00  0.00    +0.143 HD
ATOM     44  N   UNL     1       0.793 -12.843  -3.248  0.00  0.00    -0.391 N 
ATOM     45  H   UNL     1       1.062 -11.855  -3.164  0.00  0.00    +0.157 HD
ENDBRANCH  38  39
ENDBRANCH  37  38
ENDBRANCH  36  37
ENDBRANCH  31  36
ENDBRANCH  29  31
ENDBRANCH  26  27
ENDBRANCH  25  26
ENDBRANCH   6  25
TORSDOF 12
