REMARK  Name = ZINC03773354
REMARK  13 active torsions:
REMARK  status: ('A' for Active; 'I' for Inactive)
REMARK    1  A    between atoms: C_1  and  C_2
REMARK    2  A    between atoms: C_5  and  C_8
REMARK    3  A    between atoms: C_8  and  C_10
REMARK    4  A    between atoms: C_8  and  N_22
REMARK    5  A    between atoms: N_12  and  C_13
REMARK    6  A    between atoms: C_16  and  N_19
REMARK    7  A    between atoms: N_19  and  C_20
REMARK    8  A    between atoms: N_19  and  C_21
REMARK    9  A    between atoms: N_22  and  C_23
REMARK   10  A    between atoms: C_23  and  C_24
REMARK   11  A    between atoms: C_29  and  C_30
REMARK   12  A    between atoms: C_31  and  C_33
REMARK   13  A    between atoms: C_33  and  C_34
REMARK                            x       y       z     vdW  Elec       q    Type
REMARK                         _______ _______ _______ _____ _____    ______ ____
ROOT
ATOM      1  C   UNL     1       0.294  -4.040   0.758  0.00  0.00    +0.193 C 
ENDROOT
BRANCH   1   6
ATOM      2  C   UNL     1      -1.831  -0.180   4.497  0.00  0.00    +0.044 C 
ATOM      3  C   UNL     1      -1.277  -1.187   3.522  0.00  0.00    -0.050 A 
ATOM      4  C   UNL     1      -0.870  -0.780   2.265  0.00  0.00    +0.004 A 
ATOM      5  C   UNL     1      -0.362  -1.703   1.371  0.00  0.00    +0.006 A 
ATOM      6  C   UNL     1      -0.260  -3.033   1.734  0.00  0.00    -0.018 A 
ATOM      7  C   UNL     1      -0.666  -3.440   2.991  0.00  0.00    +0.006 A 
ATOM      8  C   UNL     1      -1.170  -2.516   3.887  0.00  0.00    +0.004 A 
ENDBRANCH   1   6
BRANCH   1   9
ATOM      9  C   UNL     1      -0.800  -4.989   0.341  0.00  0.00    +0.242 C 
ATOM     10  O   UNL     1      -0.850  -6.104   0.815  0.00  0.00    -0.273 OA
ATOM     11  N   UNL     1      -1.724  -4.598  -0.560  0.00  0.00    -0.284 N 
ATOM     12  H   UNL     1      -1.724  -3.685  -0.889  0.00  0.00    +0.155 HD
BRANCH  11  13
ATOM     13  C   UNL     1      -2.682  -5.510  -1.022  0.00  0.00    +0.034 A 
ATOM     14  C   UNL     1      -3.109  -5.460  -2.342  0.00  0.00    +0.025 A 
ATOM     15  C   UNL     1      -4.053  -6.359  -2.797  0.00  0.00    +0.025 A 
ATOM     16  C   UNL     1      -4.576  -7.313  -1.934  0.00  0.00    +0.029 A 
ATOM     17  C   UNL     1      -4.149  -7.362  -0.613  0.00  0.00    +0.025 A 
ATOM     18  C   UNL     1      -3.201  -6.467  -0.160  0.00  0.00    +0.025 A 
BRANCH  16  19
ATOM     19  N   UNL     1      -5.533  -8.223  -2.395  0.00  0.00    -0.336 N 
ATOM     20  C   UNL     1      -5.983  -8.171  -3.788  0.00  0.00    +0.129 C 
ATOM     21  C   UNL     1      -6.085  -9.229  -1.484  0.00  0.00    +0.129 C 
ENDBRANCH  16  19
ENDBRANCH  11  13
ENDBRANCH   1   9
BRANCH   1  22
ATOM     22  N   UNL     1       1.376  -4.794   1.396  0.00  0.00    -0.281 N 
ATOM     23  C   UNL     1       1.848  -5.916   0.817  0.00  0.00    +0.221 C 
ATOM     24  O   UNL     1       1.459  -6.239  -0.285  0.00  0.00    -0.275 OA
BRANCH  22  25
ATOM     25  C   UNL     1       1.946  -4.327   2.662  0.00  0.00    +0.144 C 
BRANCH  25  26
ATOM     26  C   UNL     1       3.384  -3.928   2.449  0.00  0.00    -0.027 A 
ATOM     27  C   UNL     1       4.403  -4.742   2.908  0.00  0.00    +0.005 A 
ATOM     28  C   UNL     1       5.721  -4.377   2.713  0.00  0.00    +0.000 A 
ATOM     29  C   UNL     1       6.021  -3.197   2.058  0.00  0.00    +0.000 A 
ATOM     30  C   UNL     1       5.003  -2.383   1.598  0.00  0.00    +0.003 A 
ATOM     31  C   UNL     1       3.684  -2.751   1.790  0.00  0.00    -0.046 A 
ATOM     32  C   UNL     1       2.574  -1.867   1.283  0.00  0.00    +0.044 C 
ENDBRANCH  25  26
ENDBRANCH  22  25
BRANCH  23  33
ATOM     33  C   UNL     1       2.857  -6.769   1.540  0.00  0.00    +0.131 C 
BRANCH  33  34
ATOM     34  C   UNL     1       3.004  -8.088   0.826  0.00  0.00    -0.039 A 
ATOM     35  C   UNL     1       2.193  -9.154   1.169  0.00  0.00    +0.004 A 
ATOM     36  C   UNL     1       2.327 -10.364   0.514  0.00  0.00    +0.000 A 
ATOM     37  C   UNL     1       3.272 -10.508  -0.485  0.00  0.00    +0.000 A 
ATOM     38  C   UNL     1       4.082  -9.442  -0.829  0.00  0.00    +0.000 A 
ATOM     39  C   UNL     1       3.945  -8.231  -0.176  0.00  0.00    +0.004 A 
ENDBRANCH  33  34
ENDBRANCH  23  33
ENDBRANCH   1  22
TORSDOF 9
