REMARK  Name = ZINC49113498
REMARK  8 active torsions:
REMARK  status: ('A' for Active; 'I' for Inactive)
REMARK    1  A    between atoms: C_1  and  C_2
REMARK    2  A    between atoms: C_2  and  C_4
REMARK    3  A    between atoms: C_2  and  C_17
REMARK    4  A    between atoms: C_4  and  C_5
REMARK    5  A    between atoms: C_13  and  O_16
REMARK    6  A    between atoms: N_19  and  C_20
REMARK    7  A    between atoms: C_21  and  C_36
REMARK    8  A    between atoms: C_24  and  C_27
REMARK                            x       y       z     vdW  Elec       q    Type
REMARK                         _______ _______ _______ _____ _____    ______ ____
ROOT
ATOM      1  C   UNL     1      -1.369  -0.644   0.124  0.00  0.00    +0.220 C 
ATOM      2  O   UNL     1      -1.718  -1.474  -0.687  0.00  0.00    -0.275 OA
ATOM      3  N   UNL     1      -2.244  -0.192   1.045  0.00  0.00    -0.288 N 
ATOM      4  H   UNL     1      -1.946   0.417   1.739  0.00  0.00    +0.155 HD
ENDROOT
BRANCH   3   5
ATOM      5  C   UNL     1      -3.554  -0.592   1.000  0.00  0.00    +0.021 C 
ATOM      6  C   UNL     1      -4.057  -1.234   2.059  0.00  0.00    +0.058 C 
ATOM      7  C   UNL     1      -5.478  -1.712   2.142  0.00  0.00    +0.044 C 
ATOM      8  C   UNL     1      -6.101  -1.752   0.745  0.00  0.00    +0.013 C 
ATOM      9  C   UNL     1      -5.846  -0.407   0.056  0.00  0.00    +0.025 C 
ATOM     10  C   UNL     1      -4.351  -0.280  -0.234  0.00  0.00    +0.059 C 
BRANCH   9  11
ATOM     11  C   UNL     1      -6.624  -0.342  -1.233  0.00  0.00    -0.038 A 
ATOM     12  C   UNL     1      -6.395  -1.278  -2.225  0.00  0.00    +0.045 A 
ATOM     13  C   UNL     1      -7.108  -1.220  -3.410  0.00  0.00    +0.162 A 
ATOM     14  C   UNL     1      -8.053  -0.224  -3.601  0.00  0.00    +0.193 A 
ATOM     15  C   UNL     1      -8.282   0.712  -2.605  0.00  0.00    +0.162 A 
ATOM     16  C   UNL     1      -7.570   0.648  -1.419  0.00  0.00    +0.045 A 
ATOM     17  F   UNL     1      -9.202   1.684  -2.789  0.00  0.00    -0.202 F 
ATOM     18  F   UNL     1      -8.750  -0.166  -4.757  0.00  0.00    -0.199 F 
ATOM     19  F   UNL     1      -6.883  -2.134  -4.379  0.00  0.00    -0.202 F 
ENDBRANCH   9  11
BRANCH   6  20
ATOM     20  C   UNL     1      -3.206  -1.476   3.158  0.00  0.00    +0.384 C 
ATOM     21  O   UNL     1      -2.063  -1.033   3.158  0.00  0.00    -0.241 OA
ATOM     22  O   UNL     1      -3.609  -2.131   4.112  0.00  0.00    -0.241 OA
ENDBRANCH   6  20
ENDBRANCH   3   5
BRANCH   1  24
ATOM     23  C   UNL     1       0.018   1.397  -0.121  0.00  0.00    +0.017 C 
ATOM     24  C   UNL     1       0.042  -0.117   0.103  0.00  0.00    +0.078 C 
BRANCH  24  25
ATOM     25  C   UNL     1       0.821  -0.788  -1.030  0.00  0.00    +0.069 C 
BRANCH  25  26
ATOM     26  C   UNL     1       2.263  -0.354  -0.975  0.00  0.00    +0.064 A 
ATOM     27  C   UNL     1       3.372  -1.204  -0.911  0.00  0.00    +0.045 A 
ATOM     28  C   UNL     1       4.486  -0.436  -0.877  0.00  0.00    +0.116 A 
ATOM     29  N   UNL     1       4.090   0.863  -0.918  0.00  0.00    -0.222 N 
ATOM     30  N   UNL     1       2.691   0.882  -0.984  0.00  0.00    -0.170 NA
ATOM     31  C   UNL     1       4.931   1.981  -0.901  0.00  0.00    +0.154 A 
ATOM     32  C   UNL     1       4.379   3.256  -0.943  0.00  0.00    +0.052 A 
ATOM     33  C   UNL     1       5.219   4.355  -0.926  0.00  0.00    +0.050 A 
ATOM     34  C   UNL     1       6.593   4.138  -0.868  0.00  0.00    +0.135 A 
ATOM     35  C   UNL     1       7.072   2.838  -0.829  0.00  0.00    +0.158 A 
ATOM     36  N   UNL     1       6.242   1.813  -0.841  0.00  0.00    -0.233 NA
BRANCH  34  37
ATOM     37  O   UNL     1       7.456   5.189  -0.850  0.00  0.00    -0.505 OA
ATOM     38  H   UNL     1       7.670   5.507   0.038  0.00  0.00    +0.292 HD
ENDBRANCH  34  37
ENDBRANCH  25  26
ENDBRANCH  24  25
ENDBRANCH   1  24
TORSDOF 7
