REMARK  Name = ZINC38670241
REMARK  10 active torsions:
REMARK  status: ('A' for Active; 'I' for Inactive)
REMARK    1  A    between atoms: C_1  and  N_2
REMARK    2  A    between atoms: C_10  and  C_12
REMARK    3  A    between atoms: C_12  and  C_14
REMARK    4  A    between atoms: C_12  and  N_31
REMARK    5  A    between atoms: C_14  and  N_15
REMARK    6  A    between atoms: C_16  and  C_18
REMARK    7  A    between atoms: C_24  and  O_29
REMARK    8  A    between atoms: O_29  and  C_30
REMARK    9  A    between atoms: N_31  and  C_32
REMARK   10  A    between atoms: N_31  and  C_33
REMARK                            x       y       z     vdW  Elec       q    Type
REMARK                         _______ _______ _______ _____ _____    ______ ____
ROOT
ATOM      1  C   UNL     1       5.074  -3.026  -1.914  0.00  0.00    +0.094 C 
ENDROOT
BRANCH   1   2
ATOM      2  N   UNL     1       3.986  -3.874  -2.406  0.00  0.00    -0.312 N 
ATOM      3  C   UNL     1       3.886  -4.146  -3.722  0.00  0.00    +0.251 C 
ATOM      4  O   UNL     1       4.699  -3.687  -4.502  0.00  0.00    -0.270 OA
ATOM      5  H   UNL     1       3.337  -4.239  -1.784  0.00  0.00    +0.149 HD
BRANCH   3   6
ATOM      6  C   UNL     1       2.791  -4.998  -4.217  0.00  0.00    +0.122 A 
ATOM      7  C   UNL     1       2.665  -5.301  -5.566  0.00  0.00    +0.032 A 
ATOM      8  C   UNL     1       1.567  -6.102  -5.971  0.00  0.00    +0.022 A 
ATOM      9  C   UNL     1       1.496  -6.605  -7.279  0.00  0.00    +0.012 A 
ATOM     10  C   UNL     1       0.455  -7.409  -7.643  0.00  0.00    +0.004 A 
ATOM     11  C   UNL     1      -0.543  -7.730  -6.734  0.00  0.00    +0.049 A 
ATOM     12  C   UNL     1      -0.506  -7.230  -5.444  0.00  0.00    +0.163 A 
ATOM     13  C   UNL     1       0.544  -6.402  -5.054  0.00  0.00    +0.180 A 
ATOM     14  O   UNL     1       0.571  -5.871  -3.807  0.00  0.00    -0.418 OA
ATOM     15  C   UNL     1       1.790  -5.569  -3.298  0.00  0.00    +0.350 A 
ATOM     16  O   UNL     1       2.049  -5.758  -2.124  0.00  0.00    -0.244 OA
BRANCH  12  17
ATOM     17  O   UNL     1      -1.491  -7.546  -4.562  0.00  0.00    -0.491 OA
ATOM     18  C   UNL     1      -2.535  -8.400  -5.034  0.00  0.00    +0.277 C 
ENDBRANCH  12  17
ENDBRANCH   3   6
ENDBRANCH   1   2
BRANCH   1  19
ATOM     19  C   UNL     1       4.884  -2.768  -0.418  0.00  0.00    -0.021 C 
BRANCH  19  29
ATOM     20  C   UNL     1       0.196   1.683   0.475  0.00  0.00    +0.129 C 
ATOM     21  N   UNL     1       0.133   0.221   0.400  0.00  0.00    -0.333 N 
ATOM     22  C   UNL     1      -1.153  -0.478   0.527  0.00  0.00    +0.105 C 
ATOM     23  C   UNL     1      -0.946  -1.671   1.469  0.00  0.00    +0.024 C 
ATOM     24  C   UNL     1       0.052  -2.637   0.831  0.00  0.00    +0.038 C 
ATOM     25  C   UNL     1       1.297  -1.903   0.405  0.00  0.00    -0.026 A 
ATOM     26  C   UNL     1       1.296  -0.531   0.199  0.00  0.00    +0.033 A 
ATOM     27  C   UNL     1       2.459   0.115  -0.204  0.00  0.00    +0.023 A 
ATOM     28  C   UNL     1       3.618  -0.609  -0.404  0.00  0.00    +0.004 A 
ATOM     29  C   UNL     1       3.619  -1.977  -0.202  0.00  0.00    -0.059 A 
ATOM     30  C   UNL     1       2.464  -2.622   0.209  0.00  0.00    +0.007 A 
ENDBRANCH  19  29
BRANCH  19  31
ATOM     31  N   UNL     1       6.030  -2.008   0.098  0.00  0.00    +0.382 N 
ATOM     32  C   UNL     1       5.870  -1.799   1.543  0.00  0.00    -0.096 C 
ATOM     33  C   UNL     1       7.268  -2.758  -0.154  0.00  0.00    -0.096 C 
ATOM     34  H   UNL     1       6.078  -1.114  -0.368  0.00  0.00    -0.082 HD
ENDBRANCH  19  31
ENDBRANCH   1  19
TORSDOF 6
