REMARK  Name = ZINC02279525
REMARK  1 active torsions:
REMARK  status: ('A' for Active; 'I' for Inactive)
REMARK    1  A    between atoms: N_11  and  N_12
REMARK                            x       y       z     vdW  Elec       q    Type
REMARK                         _______ _______ _______ _____ _____    ______ ____
ROOT
ATOM      1  N   UNL     1      -1.296  -0.824   0.717  0.00  0.00    -0.218 N 
ATOM      2  C   UNL     1      -1.170  -2.066   0.209  0.00  0.00    +0.323 C 
ATOM      3  O   UNL     1      -2.120  -2.603  -0.326  0.00  0.00    -0.251 OA
ATOM      4  N   UNL     1       0.009  -2.713   0.296  0.00  0.00    -0.245 N 
ATOM      5  C   UNL     1       1.194  -1.977   0.180  0.00  0.00    +0.052 A 
ATOM      6  C   UNL     1       1.127  -0.721  -0.418  0.00  0.00    +0.025 A 
ATOM      7  C   UNL     1       2.263   0.051  -0.552  0.00  0.00    +0.002 A 
ATOM      8  C   UNL     1       3.481  -0.416  -0.094  0.00  0.00    +0.001 A 
ATOM      9  C   UNL     1       3.562  -1.661   0.498  0.00  0.00    +0.016 A 
ATOM     10  C   UNL     1       2.423  -2.446   0.635  0.00  0.00    +0.030 A 
ATOM     11  S   UNL     1       2.564  -4.038   1.385  0.00  0.00    -0.114 S 
ATOM     12  C   UNL     1       0.838  -4.463   1.764  0.00  0.00    +0.099 C 
ATOM     13  C   UNL     1       0.007  -4.156   0.514  0.00  0.00    +0.123 C 
ATOM     14  C   UNL     1      -1.394  -4.665   0.720  0.00  0.00    -0.003 C 
ATOM     15  C   UNL     1      -1.587  -5.802   1.385  0.00  0.00    -0.003 C 
ATOM     16  C   UNL     1      -0.427  -6.551   1.899  0.00  0.00    -0.003 C 
ATOM     17  C   UNL     1       0.728  -5.931   2.080  0.00  0.00    -0.010 C 
ATOM     18  H   UNL     1      -2.110  -0.318   0.566  0.00  0.00    +0.174 HD
ENDROOT
BRANCH   1  29
ATOM     19  C   UNL     1       0.035   5.315   3.391  0.00  0.00    +0.002 A 
ATOM     20  C   UNL     1      -1.129   5.441   2.647  0.00  0.00    +0.002 A 
ATOM     21  C   UNL     1      -1.643   4.360   1.965  0.00  0.00    +0.030 A 
ATOM     22  C   UNL     1      -0.987   3.128   2.022  0.00  0.00    +0.091 A 
ATOM     23  C   UNL     1       0.191   3.006   2.777  0.00  0.00    +0.067 A 
ATOM     24  C   UNL     1       0.694   4.105   3.457  0.00  0.00    +0.028 A 
ATOM     25  N   UNL     1       0.601   1.690   2.643  0.00  0.00    -0.325 N 
ATOM     26  H   UNL     1       1.411   1.275   3.058  0.00  0.00    +0.169 HD
ATOM     27  C   UNL     1      -0.307   1.064   1.837  0.00  0.00    +0.211 A 
ATOM     28  N   UNL     1      -1.235   1.911   1.470  0.00  0.00    -0.213 NA
ATOM     29  N   UNL     1      -0.251  -0.262   1.462  0.00  0.00    -0.233 N 
ATOM     30  H   UNL     1       0.511  -0.806   1.715  0.00  0.00    +0.173 HD
ENDBRANCH   1  29
TORSDOF 1
