REMARK  Name = ZINC12496923
REMARK  12 active torsions:
REMARK  status: ('A' for Active; 'I' for Inactive)
REMARK    1  A    between atoms: C_1  and  N_2
REMARK    2  A    between atoms: N_2  and  C_3
REMARK    3  A    between atoms: N_2  and  C_4
REMARK    4  A    between atoms: C_7  and  C_10
REMARK    5  A    between atoms: N_18  and  C_21
REMARK    6  A    between atoms: C_28  and  C_29
REMARK    7  A    between atoms: C_28  and  C_33
REMARK    8  A    between atoms: C_29  and  C_30
REMARK    9  A    between atoms: C_30  and  S_31
REMARK   10  A    between atoms: S_31  and  C_32
REMARK   11  A    between atoms: C_33  and  O_35
REMARK   12  A    between atoms: O_35  and  C_36
REMARK                            x       y       z     vdW  Elec       q    Type
REMARK                         _______ _______ _______ _____ _____    ______ ____
ROOT
ATOM      1  C   UNL     1      -0.018   1.472   0.010  0.00  0.00    -0.027 C 
ATOM      2  C   UNL     1       0.002  -0.004   0.002  0.00  0.00    +0.077 C 
ATOM      3  C   UNL     1       1.085  -0.292  -1.115  0.00  0.00    +0.086 C 
ATOM      4  C   UNL     1       1.173  -1.773  -0.866  0.00  0.00    +0.229 C 
ATOM      5  O   UNL     1       2.161  -2.472  -0.937  0.00  0.00    -0.275 OA
ATOM      6  N   UNL     1      -0.096  -2.165  -0.544  0.00  0.00    -0.210 N 
ATOM      7  C   UNL     1      -0.905  -1.111  -0.200  0.00  0.00    +0.229 C 
ATOM      8  O   UNL     1      -2.112  -1.108  -0.090  0.00  0.00    -0.275 OA
ATOM      9  C   UNL     1       2.176   0.634  -0.581  0.00  0.00    +0.044 C 
ATOM     10  N   UNL     1       1.444   1.793  -0.006  0.00  0.00    +0.395 N 
ATOM     11  H   UNL     1       1.770   1.969   0.952  0.00  0.00    -0.083 HD
ATOM     12  H   UNL     1       1.609   2.627  -0.582  0.00  0.00    -0.083 HD
ENDROOT
BRANCH   6  13
ATOM     13  C   UNL     1      -0.525  -3.501  -0.562  0.00  0.00    +0.044 A 
ATOM     14  C   UNL     1       0.356  -4.509  -0.927  0.00  0.00    +0.027 A 
ATOM     15  C   UNL     1      -0.066  -5.824  -0.938  0.00  0.00    +0.040 A 
ATOM     16  C   UNL     1      -1.371  -6.136  -0.597  0.00  0.00    +0.124 A 
ATOM     17  C   UNL     1      -2.254  -5.130  -0.238  0.00  0.00    +0.040 A 
ATOM     18  C   UNL     1      -1.833  -3.815  -0.220  0.00  0.00    +0.027 A 
ATOM     19  F   UNL     1      -1.784  -7.422  -0.613  0.00  0.00    -0.205 F 
ENDBRANCH   6  13
BRANCH   1  23
ATOM     20  C   UNL     1      -1.889   2.954   3.555  0.00  0.00    +0.029 A 
ATOM     21  C   UNL     1      -2.601   2.897   2.364  0.00  0.00    +0.023 A 
ATOM     22  C   UNL     1      -1.994   2.418   1.220  0.00  0.00    +0.004 A 
ATOM     23  C   UNL     1      -0.678   1.994   1.260  0.00  0.00    -0.060 A 
ATOM     24  C   UNL     1       0.032   2.045   2.446  0.00  0.00    +0.004 A 
ATOM     25  C   UNL     1      -0.568   2.528   3.592  0.00  0.00    +0.023 A 
BRANCH  20  27
ATOM     26  C   UNL     1      -3.894   3.888   4.673  0.00  0.00    +0.129 C 
ATOM     27  N   UNL     1      -2.501   3.439   4.714  0.00  0.00    -0.336 N 
ATOM     28  C   UNL     1      -1.748   3.498   5.969  0.00  0.00    +0.129 C 
ENDBRANCH  20  27
ENDBRANCH   1  23
BRANCH   9  29
ATOM     29  C   UNL     1       3.079   1.079  -1.702  0.00  0.00    +0.297 C 
ATOM     30  O   UNL     1       3.190   0.399  -2.694  0.00  0.00    -0.252 OA
BRANCH  29  31
ATOM     31  O   UNL     1       3.759   2.232  -1.598  0.00  0.00    -0.469 OA
ATOM     32  C   UNL     1       4.610   2.598  -2.716  0.00  0.00    +0.280 C 
ENDBRANCH  29  31
ENDBRANCH   9  29
BRANCH   9  33
ATOM     33  C   UNL     1       2.989  -0.075   0.504  0.00  0.00    +0.010 C 
BRANCH  33  34
ATOM     34  C   UNL     1       3.992   0.906   1.113  0.00  0.00    +0.068 C 
BRANCH  34  35
ATOM     35  S   UNL     1       4.956   0.066   2.399  0.00  0.00    -0.164 S 
ATOM     36  C   UNL     1       6.083   1.348   3.012  0.00  0.00    +0.084 C 
ENDBRANCH  34  35
ENDBRANCH  33  34
ENDBRANCH   9  33
TORSDOF 8
