REMARK  Name = ZINC56395274
REMARK  11 active torsions:
REMARK  status: ('A' for Active; 'I' for Inactive)
REMARK    1  A    between atoms: C_1  and  C_2
REMARK    2  A    between atoms: C_2  and  N_3
REMARK    3  A    between atoms: N_3  and  C_4
REMARK    4  A    between atoms: C_4  and  C_5
REMARK    5  A    between atoms: C_6  and  C_8
REMARK    6  A    between atoms: C_8  and  N_9
REMARK    7  A    between atoms: N_9  and  C_10
REMARK    8  A    between atoms: C_13  and  S_16
REMARK    9  A    between atoms: S_16  and  N_19
REMARK   10  A    between atoms: C_21  and  C_28
REMARK   11  A    between atoms: C_24  and  C_27
REMARK                            x       y       z     vdW  Elec       q    Type
REMARK                         _______ _______ _______ _____ _____    ______ ____
ROOT
ATOM      1  C   UNL     1      -3.390  -0.652  -3.949  0.00  0.00    +0.028 A 
ATOM      2  C   UNL     1      -4.251  -0.209  -2.953  0.00  0.00    +0.025 A 
ATOM      3  C   UNL     1      -5.600  -0.073  -3.218  0.00  0.00    +0.030 A 
ATOM      4  C   UNL     1      -6.093  -0.378  -4.473  0.00  0.00    +0.106 A 
ATOM      5  C   UNL     1      -5.239  -0.820  -5.467  0.00  0.00    +0.030 A 
ATOM      6  C   UNL     1      -3.889  -0.953  -5.210  0.00  0.00    +0.025 A 
ENDROOT
BRANCH   4   7
ATOM      7  S   UNL     1      -7.815  -0.204  -4.807  0.00  0.00    +0.061 S 
ATOM      8  O   UNL     1      -8.108  -1.073  -5.893  0.00  0.00    -0.153 OA
ATOM      9  O   UNL     1      -8.482  -0.297  -3.556  0.00  0.00    -0.153 OA
BRANCH   7  10
ATOM     10  N   UNL     1      -8.054   1.339  -5.357  0.00  0.00    -0.176 NA
ATOM     11  C   UNL     1      -8.346   2.432  -4.419  0.00  0.00    +0.112 C 
ATOM     12  C   UNL     1      -7.344   3.566  -4.657  0.00  0.00    +0.002 C 
ATOM     13  C   UNL     1      -7.383   3.976  -6.130  0.00  0.00    +0.009 C 
ATOM     14  C   UNL     1      -6.980   2.785  -7.003  0.00  0.00    +0.002 C 
ATOM     15  C   UNL     1      -7.971   1.643  -6.792  0.00  0.00    +0.112 C 
ATOM     16  C   UNL     1      -6.986   3.205  -8.475  0.00  0.00    +0.009 C 
ATOM     17  C   UNL     1      -7.714   4.766  -3.782  0.00  0.00    +0.009 C 
ENDBRANCH   7  10
ENDBRANCH   4   7
BRANCH   1  18
ATOM     18  N   UNL     1      -2.026  -0.790  -3.684  0.00  0.00    -0.335 N 
ATOM     19  H   UNL     1      -1.425  -1.096  -4.382  0.00  0.00    +0.147 HD
BRANCH  18  20
ATOM     20  C   UNL     1      -1.502  -0.473  -2.354  0.00  0.00    +0.197 C 
BRANCH  20  22
ATOM     21  N   UNL     1       0.688  -0.476  -1.203  0.00  0.00    -0.301 N 
ATOM     22  C   UNL     1      -0.013  -0.705  -2.332  0.00  0.00    +0.233 C 
ATOM     23  O   UNL     1       0.555  -1.096  -3.330  0.00  0.00    -0.274 OA
BRANCH  21  25
ATOM     24  C   UNL     1      -0.019   1.526   0.010  0.00  0.00    +0.024 C 
ATOM     25  C   UNL     1       0.002  -0.004   0.002  0.00  0.00    +0.104 C 
ENDBRANCH  21  25
BRANCH  21  26
ATOM     26  C   UNL     1       2.135  -0.701  -1.182  0.00  0.00    +0.104 C 
ATOM     27  C   UNL     1       2.421  -2.145  -0.763  0.00  0.00    +0.024 C 
ENDBRANCH  21  26
ENDBRANCH  20  22
ENDBRANCH  18  20
ENDBRANCH   1  18
TORSDOF 7
