REMARK  Name = ZINC63362502
REMARK  8 active torsions:
REMARK  status: ('A' for Active; 'I' for Inactive)
REMARK    1  A    between atoms: C_1  and  C_2
REMARK    2  A    between atoms: C_2  and  C_4
REMARK    3  A    between atoms: C_2  and  N_12
REMARK    4  A    between atoms: C_4  and  C_5
REMARK    5  A    between atoms: C_5  and  C_6
REMARK    6  A    between atoms: C_13  and  C_15
REMARK    7  A    between atoms: C_19  and  N_21
REMARK    8  A    between atoms: C_24  and  C_40
REMARK                            x       y       z     vdW  Elec       q    Type
REMARK                         _______ _______ _______ _____ _____    ______ ____
ROOT
ATOM      1  C   UNL     1       0.704  -1.062  -3.581  0.00  0.00    +0.038 A 
ATOM      2  C   UNL     1       2.056  -1.405  -3.528  0.00  0.00    +0.013 A 
ATOM      3  C   UNL     1       2.694  -1.872  -4.659  0.00  0.00    +0.003 A 
ATOM      4  C   UNL     1       1.998  -2.002  -5.847  0.00  0.00    +0.024 A 
ATOM      5  C   UNL     1       0.652  -1.664  -5.909  0.00  0.00    +0.046 A 
ATOM      6  C   UNL     1       0.001  -1.199  -4.777  0.00  0.00    +0.037 A 
ENDROOT
BRANCH   5   7
ATOM      7  N   UNL     1      -0.049  -1.797  -7.116  0.00  0.00    -0.192 N 
ATOM      8  C   UNL     1      -1.377  -1.602  -7.246  0.00  0.00    +0.253 C 
ATOM      9  O   UNL     1      -2.164  -1.318  -6.369  0.00  0.00    -0.272 OA
ATOM     10  C   UNL     1      -1.682  -1.812  -8.714  0.00  0.00    +0.137 C 
ATOM     11  C   UNL     1      -2.647  -2.990  -8.889  0.00  0.00    +0.139 C 
ATOM     12  C   UNL     1      -2.475  -3.479 -10.322  0.00  0.00    -0.034 C 
ATOM     13  C   UNL     1      -3.677  -3.410 -10.887  0.00  0.00    -0.001 A 
ATOM     14  C   UNL     1      -4.151  -3.798 -12.225  0.00  0.00    +0.010 A 
ATOM     15  C   UNL     1      -5.468  -3.576 -12.481  0.00  0.00    +0.001 A 
ATOM     16  C   UNL     1      -6.348  -3.013 -11.552  0.00  0.00    +0.002 A 
ATOM     17  C   UNL     1      -5.999  -2.631 -10.298  0.00  0.00    +0.026 A 
ATOM     18  C   UNL     1      -4.640  -2.818  -9.909  0.00  0.00    +0.043 A 
ATOM     19  N   UNL     1      -4.042  -2.560  -8.770  0.00  0.00    -0.375 N 
ATOM     20  C   UNL     1      -1.142  -3.876 -10.908  0.00  0.00    +0.052 C 
ATOM     21  C   UNL     1      -0.165  -2.713 -10.642  0.00  0.00    +0.115 C 
ATOM     22  N   UNL     1      -0.378  -2.238  -9.271  0.00  0.00    -0.268 N 
ATOM     23  C   UNL     1       0.519  -2.128  -8.284  0.00  0.00    +0.316 C 
ATOM     24  O   UNL     1       1.712  -2.311  -8.428  0.00  0.00    -0.252 OA
ATOM     25  C   UNL     1      -2.200  -0.534  -9.378  0.00  0.00    +0.044 C 
ATOM     26  H   UNL     1      -4.445  -2.154  -7.987  0.00  0.00    +0.160 HD
ENDBRANCH   5   7
BRANCH   1  28
ATOM     27  N   UNL     1       0.700  -0.430  -1.215  0.00  0.00    -0.309 N 
ATOM     28  C   UNL     1       0.018  -0.562  -2.370  0.00  0.00    +0.244 C 
ATOM     29  O   UNL     1      -1.161  -0.269  -2.417  0.00  0.00    -0.270 OA
ATOM     30  H   UNL     1       1.640  -0.664  -1.178  0.00  0.00    +0.149 HD
BRANCH  27  32
ATOM     31  C   UNL     1       0.026   1.596  -0.023  0.00  0.00    +0.028 C 
ATOM     32  C   UNL     1       0.020   0.066  -0.016  0.00  0.00    +0.070 C 
BRANCH  32  33
ATOM     33  C   UNL     1       0.749  -0.441   1.230  0.00  0.00    +0.026 C 
BRANCH  33  34
ATOM     34  C   UNL     1       0.636  -1.965   1.302  0.00  0.00    +0.037 C 
BRANCH  34  35
ATOM     35  C   UNL     1       1.354  -2.465   2.529  0.00  0.00    -0.047 A 
ATOM     36  C   UNL     1       2.695  -2.793   2.460  0.00  0.00    +0.003 A 
ATOM     37  C   UNL     1       3.353  -3.251   3.586  0.00  0.00    +0.000 A 
ATOM     38  C   UNL     1       2.671  -3.380   4.781  0.00  0.00    +0.000 A 
ATOM     39  C   UNL     1       1.330  -3.051   4.851  0.00  0.00    +0.000 A 
ATOM     40  C   UNL     1       0.673  -2.589   3.726  0.00  0.00    +0.003 A 
ENDBRANCH  34  35
ENDBRANCH  33  34
ENDBRANCH  32  33
ENDBRANCH  27  32
ENDBRANCH   1  28
TORSDOF 6
