REMARK  Name = ZINC09882357
REMARK  7 active torsions:
REMARK  status: ('A' for Active; 'I' for Inactive)
REMARK    1  A    between atoms: C_1  and  C_2
REMARK    2  A    between atoms: C_2  and  C_4
REMARK    3  A    between atoms: C_2  and  N_60
REMARK    4  A    between atoms: C_10  and  C_15
REMARK    5  A    between atoms: C_23  and  C_26
REMARK    6  A    between atoms: N_28  and  C_29
REMARK    7  A    between atoms: C_34  and  O_35
REMARK                            x       y       z     vdW  Elec       q    Type
REMARK                         _______ _______ _______ _____ _____    ______ ____
ROOT
ATOM      1  C   UNL     1      -6.152  -1.728  -1.876  0.00  0.00    -0.005 C 
ATOM      2  C   UNL     1      -6.275  -0.666  -0.781  0.00  0.00    -0.004 C 
ENDROOT
BRANCH   2   3
ATOM      3  C   UNL     1      -7.328   0.339  -1.171  0.00  0.00    +0.097 A 
ATOM      4  N   UNL     1      -8.579  -0.091  -1.478  0.00  0.00    -0.312 N 
ATOM      5  H   UNL     1      -8.778  -1.039  -1.442  0.00  0.00    +0.170 HD
ATOM      6  C   UNL     1      -9.547   0.774  -1.833  0.00  0.00    +0.260 A 
ATOM      7  O   UNL     1     -10.666   0.373  -2.105  0.00  0.00    -0.267 OA
ATOM      8  C   UNL     1      -9.245   2.172  -1.884  0.00  0.00    +0.080 A 
ATOM      9  C   UNL     1     -10.111   3.292  -2.234  0.00  0.00    +0.004 A 
ATOM     10  C   UNL     1      -9.597   4.545  -2.212  0.00  0.00    +0.056 A 
ATOM     11  S   UNL     1      -7.904   4.288  -1.715  0.00  0.00    -0.076 S 
ATOM     12  C   UNL     1      -7.926   2.522  -1.550  0.00  0.00    +0.116 A 
ATOM     13  N   UNL     1      -7.023   1.608  -1.204  0.00  0.00    -0.228 NA
BRANCH   9  14
ATOM     14  C   UNL     1     -11.527   3.063  -2.607  0.00  0.00    -0.017 A 
ATOM     15  C   UNL     1     -11.851   2.111  -3.573  0.00  0.00    +0.008 A 
ATOM     16  C   UNL     1     -13.172   1.898  -3.913  0.00  0.00    +0.001 A 
ATOM     17  C   UNL     1     -14.172   2.636  -3.305  0.00  0.00    +0.000 A 
ATOM     18  C   UNL     1     -13.856   3.586  -2.350  0.00  0.00    +0.001 A 
ATOM     19  C   UNL     1     -12.540   3.803  -1.998  0.00  0.00    +0.008 A 
ENDBRANCH   9  14
ENDBRANCH   2   3
BRANCH   2  25
ATOM     20  C   UNL     1      -4.993   0.869   0.583  0.00  0.00    -0.077 C 
ATOM     21  C   UNL     1      -3.692   1.673   0.646  0.00  0.00    -0.006 C 
ATOM     22  C   UNL     1      -2.504   0.708   0.693  0.00  0.00    +0.072 C 
ATOM     23  C   UNL     1      -2.546  -0.201  -0.538  0.00  0.00    -0.006 C 
ATOM     24  C   UNL     1      -3.881  -0.950  -0.567  0.00  0.00    -0.077 C 
ATOM     25  N   UNL     1      -4.982   0.033  -0.637  0.00  0.00    +0.386 N 
ATOM     26  H   UNL     1      -4.837   0.638  -1.454  0.00  0.00    -0.081 HD
BRANCH  22  27
ATOM     27  C   UNL     1      -1.218   1.494   0.695  0.00  0.00    +0.220 C 
ATOM     28  O   UNL     1      -1.247   2.706   0.662  0.00  0.00    -0.275 OA
ATOM     29  N   UNL     1      -0.035   0.849   0.733  0.00  0.00    -0.282 N 
ATOM     30  H   UNL     1      -0.008  -0.119   0.680  0.00  0.00    +0.155 HD
BRANCH  29  31
ATOM     31  C   UNL     1       1.157   1.578   0.844  0.00  0.00    +0.075 A 
ATOM     32  C   UNL     1       1.136   2.873   1.340  0.00  0.00    +0.027 A 
ATOM     33  C   UNL     1       2.313   3.590   1.448  0.00  0.00    +0.002 A 
ATOM     34  C   UNL     1       3.512   3.019   1.064  0.00  0.00    +0.004 A 
ATOM     35  C   UNL     1       3.541   1.729   0.568  0.00  0.00    +0.047 A 
ATOM     36  C   UNL     1       2.366   1.002   0.461  0.00  0.00    +0.138 A 
BRANCH  36  37
ATOM     37  O   UNL     1       2.393  -0.270  -0.020  0.00  0.00    -0.505 OA
ATOM     38  H   UNL     1       2.288  -0.329  -0.980  0.00  0.00    +0.292 HD
ENDBRANCH  36  37
ENDBRANCH  29  31
ENDBRANCH  22  27
ENDBRANCH   2  25
TORSDOF 6
