REMARK  Name = ZINC08901356
REMARK  11 active torsions:
REMARK  status: ('A' for Active; 'I' for Inactive)
REMARK    1  A    between atoms: C_1  and  C_2
REMARK    2  A    between atoms: C_4  and  C_31
REMARK    3  A    between atoms: C_6  and  O_9
REMARK    4  A    between atoms: O_9  and  C_10
REMARK    5  A    between atoms: C_10  and  C_11
REMARK    6  A    between atoms: N_13  and  C_14
REMARK    7  A    between atoms: C_15  and  C_28
REMARK    8  A    between atoms: C_20  and  C_24
REMARK    9  A    between atoms: C_24  and  C_25
REMARK   10  A    between atoms: C_24  and  C_26
REMARK   11  A    between atoms: C_24  and  C_27
REMARK                            x       y       z     vdW  Elec       q    Type
REMARK                         _______ _______ _______ _____ _____    ______ ____
ROOT
ATOM      1  C   UNL     1       1.331   3.864   6.175  0.00  0.00    +0.255 C 
ATOM      2  O   UNL     1       1.402   2.881   6.883  0.00  0.00    -0.272 OA
ATOM      3  N   UNL     1       1.919   5.014   6.559  0.00  0.00    -0.276 N 
ATOM      4  H   UNL     1       1.863   5.800   5.993  0.00  0.00    +0.155 HD
ENDROOT
BRANCH   3   5
ATOM      5  C   UNL     1       2.606   5.075   7.764  0.00  0.00    +0.090 A 
ATOM      6  C   UNL     1       3.269   6.157   8.324  0.00  0.00    +0.084 A 
ATOM      7  C   UNL     1       3.914   5.957   9.609  0.00  0.00    -0.018 A 
ATOM      8  C   UNL     1       3.795   4.713  10.126  0.00  0.00    -0.004 A 
ATOM      9  S   UNL     1       2.835   3.820   8.936  0.00  0.00    -0.077 S 
ATOM     10  C   UNL     1       4.352   4.217  11.424  0.00  0.00    +0.047 C 
ATOM     11  C   UNL     1       5.402   5.224  11.916  0.00  0.00    -0.000 C 
ATOM     12  C   UNL     1       4.816   6.636  11.820  0.00  0.00    +0.009 C 
ATOM     13  C   UNL     1       4.680   7.044  10.353  0.00  0.00    +0.037 C 
BRANCH  11  14
ATOM     14  C   UNL     1       5.766   4.917  13.370  0.00  0.00    -0.035 C 
ATOM     15  C   UNL     1       4.510   5.006  14.239  0.00  0.00    +0.011 C 
ATOM     16  C   UNL     1       6.352   3.507  13.462  0.00  0.00    +0.011 C 
ATOM     17  C   UNL     1       6.799   5.932  13.862  0.00  0.00    +0.011 C 
ENDBRANCH  11  14
BRANCH   6  18
ATOM     18  C   UNL     1       3.316   7.424   7.659  0.00  0.00    +0.102 C 
ATOM     19  N   UNL     1       3.353   8.430   7.132  0.00  0.00    -0.191 NA
ENDBRANCH   6  18
ENDBRANCH   3   5
BRANCH   1  20
ATOM     20  C   UNL     1       0.586   3.798   4.867  0.00  0.00    +0.325 C 
BRANCH  20  21
ATOM     21  O   UNL     1       0.057   2.483   4.686  0.00  0.00    -0.480 OA
BRANCH  21  27
ATOM     22  C   UNL     1      -0.013   1.086   0.008  0.00  0.00    +0.047 C 
ATOM     23  C   UNL     1      -0.718   1.572   1.248  0.00  0.00    -0.010 A 
ATOM     24  C   UNL     1      -2.084   1.789   1.226  0.00  0.00    +0.050 A 
ATOM     25  C   UNL     1      -2.735   2.230   2.364  0.00  0.00    -0.010 A 
ATOM     26  C   UNL     1      -2.020   2.465   3.524  0.00  0.00    +0.088 A 
ATOM     27  C   UNL     1      -0.649   2.253   3.547  0.00  0.00    +0.158 A 
ATOM     28  C   UNL     1       0.001   1.806   2.405  0.00  0.00    +0.088 A 
ATOM     29 CL   UNL     1       1.717   1.539   2.431  0.00  0.00    -0.079 Cl
ATOM     30 CL   UNL     1      -2.837   3.024   4.950  0.00  0.00    -0.079 Cl
ATOM     31  C   UNL     1      -4.224   2.461   2.338  0.00  0.00    +0.047 C 
ATOM     32 CL   UNL     1      -2.984   1.502  -0.231  0.00  0.00    -0.083 Cl
ENDBRANCH  21  27
ENDBRANCH  20  21
ENDBRANCH   1  20
TORSDOF 6
