REMARK  Name = ZINC27694886
REMARK  16 active torsions:
REMARK  status: ('A' for Active; 'I' for Inactive)
REMARK    1  A    between atoms: C_1  and  C_2
REMARK    2  A    between atoms: C_2  and  C_4
REMARK    3  A    between atoms: C_2  and  C_14
REMARK    4  A    between atoms: C_7  and  C_10
REMARK    5  A    between atoms: C_10  and  C_11
REMARK    6  A    between atoms: C_11  and  C_12
REMARK    7  A    between atoms: C_11  and  C_13
REMARK    8  A    between atoms: N_22  and  C_23
REMARK    9  A    between atoms: C_23  and  C_24
REMARK   10  A    between atoms: C_24  and  C_26
REMARK   11  A    between atoms: C_24  and  O_34
REMARK   12  A    between atoms: C_26  and  N_27
REMARK   13  A    between atoms: N_27  and  C_28
REMARK   14  A    between atoms: N_27  and  C_31
REMARK   15  A    between atoms: C_28  and  C_29
REMARK   16  A    between atoms: C_31  and  C_32
REMARK                            x       y       z     vdW  Elec       q    Type
REMARK                         _______ _______ _______ _____ _____    ______ ____
ROOT
ATOM      1  C   UNL     1       0.747  -0.204  -1.588  0.00  0.00    +0.118 A 
ATOM      2  N   UNL     1       1.929   0.200  -1.953  0.00  0.00    -0.232 NA
ATOM      3  C   UNL     1       2.187  -0.227  -3.216  0.00  0.00    +0.089 A 
ATOM      4  C   UNL     1       3.278  -0.083  -4.078  0.00  0.00    +0.030 A 
ATOM      5  C   UNL     1       3.240  -0.642  -5.323  0.00  0.00    +0.002 A 
ATOM      6  C   UNL     1       2.127  -1.355  -5.745  0.00  0.00    +0.002 A 
ATOM      7  C   UNL     1       1.039  -1.510  -4.912  0.00  0.00    +0.028 A 
ATOM      8  C   UNL     1       1.060  -0.949  -3.643  0.00  0.00    +0.069 A 
ATOM      9  N   UNL     1       0.169  -0.922  -2.589  0.00  0.00    -0.325 N 
ENDROOT
BRANCH   1  11
ATOM     10  C   UNL     1      -0.020   1.589  -0.056  0.00  0.00    +0.020 C 
ATOM     11  C   UNL     1       0.113   0.077  -0.250  0.00  0.00    +0.082 C 
BRANCH  11  12
ATOM     12  C   UNL     1       0.977  -0.496   0.844  0.00  0.00    -0.037 A 
ATOM     13  C   UNL     1       2.279  -0.058   0.998  0.00  0.00    +0.004 A 
ATOM     14  C   UNL     1       3.071  -0.583   2.002  0.00  0.00    +0.004 A 
ATOM     15  C   UNL     1       2.561  -1.546   2.853  0.00  0.00    -0.047 A 
ATOM     16  C   UNL     1       1.258  -1.983   2.700  0.00  0.00    +0.004 A 
ATOM     17  C   UNL     1       0.465  -1.455   1.698  0.00  0.00    +0.004 A 
BRANCH  15  18
ATOM     18  C   UNL     1       3.424  -2.119   3.946  0.00  0.00    +0.038 C 
BRANCH  18  19
ATOM     19  C   UNL     1       3.264  -1.279   5.215  0.00  0.00    -0.013 C 
ATOM     20  C   UNL     1       4.043  -1.932   6.360  0.00  0.00    +0.007 C 
ATOM     21  C   UNL     1       3.808   0.129   4.967  0.00  0.00    +0.007 C 
ENDBRANCH  18  19
ENDBRANCH  15  18
ENDBRANCH  11  12
ENDBRANCH   1  11
BRANCH   9  22
ATOM     22  C   UNL     1      -1.156  -1.547  -2.556  0.00  0.00    +0.153 C 
BRANCH  22  23
ATOM     23  C   UNL     1      -2.201  -0.556  -3.073  0.00  0.00    +0.118 C 
BRANCH  23  24
ATOM     24  O   UNL     1      -2.285   0.557  -2.181  0.00  0.00    -0.392 OA
ATOM     25  H   UNL     1      -2.476   0.313  -1.265  0.00  0.00    +0.210 HD
ENDBRANCH  23  24
BRANCH  23  26
ATOM     26  C   UNL     1      -3.563  -1.248  -3.156  0.00  0.00    -0.045 C 
BRANCH  26  27
ATOM     27  N   UNL     1      -4.564  -0.298  -3.660  0.00  0.00    +0.386 N 
ATOM     28  H   UNL     1      -4.555   0.534  -3.091  0.00  0.00    -0.081 HD
BRANCH  27  29
ATOM     29  C   UNL     1      -4.248   0.056  -5.050  0.00  0.00    -0.051 C 
BRANCH  29  30
ATOM     30  C   UNL     1      -5.201   1.121  -5.527  0.00  0.00    -0.053 C 
ATOM     31  C   UNL     1      -4.737   2.245  -6.014  0.00  0.00    +0.002 C 
ENDBRANCH  29  30
ENDBRANCH  27  29
BRANCH  27  32
ATOM     32  C   UNL     1      -5.896  -0.916  -3.603  0.00  0.00    -0.051 C 
BRANCH  32  33
ATOM     33  C   UNL     1      -6.281  -1.149  -2.165  0.00  0.00    -0.053 C 
ATOM     34  C   UNL     1      -7.396  -0.646  -1.695  0.00  0.00    +0.002 C 
ENDBRANCH  32  33
ENDBRANCH  27  32
ENDBRANCH  26  27
ENDBRANCH  23  26
ENDBRANCH  22  23
ENDBRANCH   9  22
TORSDOF 13
