REMARK  Name = ZINC40898978
REMARK  7 active torsions:
REMARK  status: ('A' for Active; 'I' for Inactive)
REMARK    1  A    between atoms: C_6  and  C_7
REMARK    2  A    between atoms: C_9  and  C_12
REMARK    3  A    between atoms: C_15  and  N_19
REMARK    4  A    between atoms: C_23  and  C_26
REMARK    5  A    between atoms: N_28  and  C_29
REMARK    6  A    between atoms: C_29  and  C_30
REMARK    7  A    between atoms: C_30  and  C_31
REMARK                            x       y       z     vdW  Elec       q    Type
REMARK                         _______ _______ _______ _____ _____    ______ ____
ROOT
ATOM      1  C   UNL     1      -3.200  -3.805   0.021  0.00  0.00    +0.025 A 
ATOM      2  C   UNL     1      -2.316  -4.883   0.018  0.00  0.00    +0.013 A 
ATOM      3  C   UNL     1      -2.803  -6.173   0.019  0.00  0.00    +0.027 A 
ATOM      4  C   UNL     1      -4.174  -6.400   0.023  0.00  0.00    +0.065 A 
ATOM      5  C   UNL     1      -5.059  -5.325   0.026  0.00  0.00    +0.145 A 
ATOM      6  C   UNL     1      -4.575  -4.033   0.031  0.00  0.00    +0.052 A 
ATOM      7  F   UNL     1      -6.392  -5.547   0.030  0.00  0.00    -0.204 F 
ENDROOT
BRANCH   4   8
ATOM      8  N   UNL     1      -4.665  -7.707   0.024  0.00  0.00    -0.327 N 
ATOM      9  C   UNL     1      -4.926  -8.409  -1.239  0.00  0.00    +0.105 C 
ATOM     10  C   UNL     1      -6.368  -8.928  -1.226  0.00  0.00    +0.020 C 
ATOM     11  C   UNL     1      -6.587  -9.782   0.024  0.00  0.00    +0.016 C 
ATOM     12  C   UNL     1      -6.371  -8.925   1.274  0.00  0.00    +0.092 C 
ATOM     13  C   UNL     1      -4.924  -8.408   1.289  0.00  0.00    +0.118 C 
BRANCH  12  14
ATOM     14  C   UNL     1      -6.619  -9.758   2.505  0.00  0.00    +0.218 C 
ATOM     15  O   UNL     1      -5.733  -9.920   3.317  0.00  0.00    -0.275 OA
ATOM     16  N   UNL     1      -7.827 -10.323   2.703  0.00  0.00    -0.315 N 
ATOM     17  H   UNL     1      -8.535 -10.194   2.054  0.00  0.00    +0.149 HD
BRANCH  16  18
ATOM     18  C   UNL     1      -8.068 -11.133   3.900  0.00  0.00    +0.108 C 
BRANCH  18  19
ATOM     19  C   UNL     1      -9.507 -11.654   3.881  0.00  0.00    +0.049 C 
BRANCH  19  20
ATOM     20  C   UNL     1      -9.756 -12.487   5.112  0.00  0.00    -0.072 C 
ATOM     21  C   UNL     1     -10.298 -11.910   6.136  0.00  0.00    -0.028 C 
ATOM     22  C   UNL     1     -10.596 -12.605   7.432  0.00  0.00    +0.027 C 
ATOM     23  C   UNL     1     -10.575 -14.122   7.234  0.00  0.00    +0.004 C 
ATOM     24  C   UNL     1      -9.285 -14.498   6.495  0.00  0.00    +0.005 C 
ATOM     25  C   UNL     1      -9.365 -13.935   5.072  0.00  0.00    +0.030 C 
ENDBRANCH  19  20
ENDBRANCH  18  19
ENDBRANCH  16  18
ENDBRANCH  12  14
ENDBRANCH   4   8
BRANCH   1  28
ATOM     26  C   UNL     1      -1.266  -0.763   0.011  0.00  0.00    +0.259 A 
ATOM     27  N   UNL     1      -1.380  -2.071   0.010  0.00  0.00    -0.187 NA
ATOM     28  C   UNL     1      -2.677  -2.417   0.019  0.00  0.00    +0.202 A 
ATOM     29  N   UNL     1      -3.406  -1.327   0.026  0.00  0.00    -0.056 NA
ATOM     30  O   UNL     1      -2.501  -0.233   0.026  0.00  0.00    -0.332 OA
BRANCH  26  36
ATOM     31  C   UNL     1      -0.017   1.392   0.010  0.00  0.00    +0.016 A 
ATOM     32  C   UNL     1       1.169   2.095   0.002  0.00  0.00    +0.039 A 
ATOM     33  C   UNL     1       2.379   1.418  -0.013  0.00  0.00    +0.123 A 
ATOM     34  C   UNL     1       2.403   0.032  -0.021  0.00  0.00    +0.039 A 
ATOM     35  C   UNL     1       1.223  -0.681  -0.014  0.00  0.00    +0.016 A 
ATOM     36  C   UNL     1       0.002  -0.004   0.002  0.00  0.00    +0.040 A 
ATOM     37  F   UNL     1       3.538   2.112  -0.021  0.00  0.00    -0.205 F 
ENDBRANCH  26  36
ENDBRANCH   1  28
TORSDOF 7
