REMARK  Name = ZINC38670468
REMARK  12 active torsions:
REMARK  status: ('A' for Active; 'I' for Inactive)
REMARK    1  A    between atoms: C_1  and  C_2
REMARK    2  A    between atoms: C_2  and  C_3
REMARK    3  A    between atoms: C_2  and  C_4
REMARK    4  A    between atoms: C_2  and  C_5
REMARK    5  A    between atoms: C_8  and  O_11
REMARK    6  A    between atoms: O_11  and  C_12
REMARK    7  A    between atoms: C_12  and  C_13
REMARK    8  A    between atoms: N_15  and  C_16
REMARK    9  A    between atoms: C_16  and  C_17
REMARK   10  A    between atoms: C_17  and  C_19
REMARK   11  A    between atoms: C_17  and  N_30
REMARK   12  A    between atoms: N_28  and  C_29
REMARK                            x       y       z     vdW  Elec       q    Type
REMARK                         _______ _______ _______ _____ _____    ______ ____
ROOT
ATOM      1  C   UNL     1       7.866  -1.776  -7.819  0.00  0.00    -0.020 C 
ENDROOT
BRANCH   1   2
ATOM      2  C   UNL     1       8.438  -2.339  -9.095  0.00  0.00    -0.059 A 
ATOM      3  C   UNL     1       8.925  -3.633  -9.121  0.00  0.00    +0.004 A 
ATOM      4  C   UNL     1       9.450  -4.147 -10.290  0.00  0.00    +0.023 A 
ATOM      5  C   UNL     1       9.488  -3.365 -11.439  0.00  0.00    +0.033 A 
ATOM      6  C   UNL     1       8.996  -2.070 -11.413  0.00  0.00    -0.026 A 
ATOM      7  C   UNL     1       8.469  -1.562 -10.237  0.00  0.00    +0.007 A 
ATOM      8  C   UNL     1       9.011  -1.198 -12.641  0.00  0.00    +0.038 C 
ATOM      9  C   UNL     1      10.040  -1.710 -13.649  0.00  0.00    +0.024 C 
ATOM     10  C   UNL     1       9.801  -3.207 -13.885  0.00  0.00    +0.105 C 
ATOM     11  N   UNL     1      10.029  -3.904 -12.612  0.00  0.00    -0.333 N 
ATOM     12  C   UNL     1      10.809  -5.143 -12.571  0.00  0.00    +0.129 C 
ENDBRANCH   1   2
BRANCH   1  13
ATOM     13  N   UNL     1       8.690  -2.207  -6.682  0.00  0.00    +0.385 N 
ATOM     14  C   UNL     1      10.082  -1.713  -6.842  0.00  0.00    -0.078 C 
ATOM     15  C   UNL     1      10.635  -1.736  -5.395  0.00  0.00    -0.020 C 
ATOM     16  C   UNL     1       9.416  -1.295  -4.552  0.00  0.00    -0.020 C 
ATOM     17  C   UNL     1       8.188  -1.600  -5.430  0.00  0.00    -0.078 C 
ATOM     18  H   UNL     1       8.684  -3.213  -6.608  0.00  0.00    -0.081 HD
ENDBRANCH   1  13
BRANCH   1  19
ATOM     19  C   UNL     1       6.435  -2.286  -7.634  0.00  0.00    +0.093 C 
BRANCH  19  22
ATOM     20  C   UNL     1       4.301  -2.149  -8.802  0.00  0.00    +0.251 C 
ATOM     21  O   UNL     1       3.852  -2.955  -8.015  0.00  0.00    -0.272 OA
ATOM     22  N   UNL     1       5.584  -1.748  -8.698  0.00  0.00    -0.314 N 
ATOM     23  H   UNL     1       5.943  -1.104  -9.328  0.00  0.00    +0.149 HD
BRANCH  20  24
ATOM     24  C   UNL     1       3.425  -1.596  -9.897  0.00  0.00    +0.324 C 
BRANCH  24  25
ATOM     25  O   UNL     1       2.120  -2.170  -9.798  0.00  0.00    -0.483 OA
BRANCH  25  29
ATOM     26  C   UNL     1      -0.670  -0.968 -12.589  0.00  0.00    -0.042 A 
ATOM     27  C   UNL     1      -1.018  -1.887 -11.617  0.00  0.00    +0.008 A 
ATOM     28  C   UNL     1      -0.086  -2.291 -10.681  0.00  0.00    +0.046 A 
ATOM     29  C   UNL     1       1.201  -1.774 -10.718  0.00  0.00    +0.121 A 
ATOM     30  C   UNL     1       1.549  -0.853 -11.695  0.00  0.00    +0.046 A 
ATOM     31  C   UNL     1       0.614  -0.456 -12.632  0.00  0.00    +0.008 A 
BRANCH  26  33
ATOM     32  C   UNL     1      -1.194  -0.886 -15.012  0.00  0.00    +0.015 C 
ATOM     33  C   UNL     1      -1.689  -0.529 -13.609  0.00  0.00    -0.013 C 
ATOM     34  C   UNL     1      -1.891   0.985 -13.509  0.00  0.00    +0.015 C 
ATOM     35  C   UNL     1      -3.017  -1.239 -13.341  0.00  0.00    +0.015 C 
ENDBRANCH  26  33
ENDBRANCH  25  29
ENDBRANCH  24  25
ENDBRANCH  20  24
ENDBRANCH  19  22
ENDBRANCH   1  19
TORSDOF 8
