REMARK  Name = ZINC13844220
REMARK  5 active torsions:
REMARK  status: ('A' for Active; 'I' for Inactive)
REMARK    1  A    between atoms: C_1  and  C_2
REMARK    2  A    between atoms: C_6  and  S_8
REMARK    3  A    between atoms: S_8  and  C_9
REMARK    4  A    between atoms: C_10  and  C_23
REMARK    5  A    between atoms: C_14  and  N_20
REMARK                            x       y       z     vdW  Elec       q    Type
REMARK                         _______ _______ _______ _____ _____    ______ ____
ROOT
ATOM      1  C   UNL     1      -2.875   4.800  -0.980  0.00  0.00    +0.088 A 
ATOM      2  C   UNL     1      -2.633   3.845  -0.007  0.00  0.00    +0.010 A 
ATOM      3  C   UNL     1      -3.603   3.708   1.091  0.00  0.00    +0.007 A 
ATOM      4  C   UNL     1      -3.414   2.768   2.106  0.00  0.00    +0.013 A 
ATOM      5  C   UNL     1      -4.340   2.665   3.120  0.00  0.00    +0.033 A 
ATOM      6  C   UNL     1      -5.456   3.489   3.137  0.00  0.00    +0.128 A 
ATOM      7  C   UNL     1      -5.656   4.422   2.143  0.00  0.00    +0.059 A 
ATOM      8  C   UNL     1      -4.734   4.543   1.109  0.00  0.00    +0.052 A 
ATOM      9  N   UNL     1      -4.919   5.473   0.105  0.00  0.00    -0.321 N 
ATOM     10  C   UNL     1      -4.038   5.604  -0.901  0.00  0.00    +0.264 A 
ATOM     11  O   UNL     1      -4.243   6.439  -1.765  0.00  0.00    -0.267 OA
ATOM     12  H   UNL     1      -5.803   6.128   0.118  0.00  0.00    +0.169 HD
ENDROOT
BRANCH   2  13
ATOM     13  C   UNL     1      -1.429   2.988  -0.067  0.00  0.00    -0.016 A 
ATOM     14  C   UNL     1      -1.555   1.617  -0.299  0.00  0.00    +0.008 A 
ATOM     15  C   UNL     1      -0.428   0.823  -0.349  0.00  0.00    +0.001 A 
ATOM     16  C   UNL     1       0.826   1.384  -0.181  0.00  0.00    +0.000 A 
ATOM     17  C   UNL     1       0.958   2.743   0.045  0.00  0.00    +0.001 A 
ATOM     18  C   UNL     1      -0.162   3.548   0.102  0.00  0.00    +0.008 A 
ENDBRANCH   2  13
BRANCH   6  19
ATOM     19  N   UNL     1      -6.441   3.365   4.235  0.00  0.00    +0.056 N 
ATOM     20  O   UNL     1      -6.270   2.542   5.117  0.00  0.00    -0.126 OA
ATOM     21  O   UNL     1      -7.423   4.085   4.257  0.00  0.00    -0.126 OA
ENDBRANCH   6  19
BRANCH   1  22
ATOM     22  S   UNL     1      -1.743   5.011  -2.313  0.00  0.00    -0.046 S 
BRANCH  22  28
ATOM     23  C   UNL     1      -2.362   4.008  -7.293  0.00  0.00    +0.066 C 
ATOM     24  C   UNL     1      -2.963   4.054  -5.912  0.00  0.00    +0.046 A 
ATOM     25  C   UNL     1      -4.282   3.688  -5.711  0.00  0.00    +0.093 A 
ATOM     26  C   UNL     1      -4.800   3.751  -4.418  0.00  0.00    +0.252 A 
ATOM     27  N   UNL     1      -4.014   4.152  -3.427  0.00  0.00    -0.302 N 
ATOM     28  C   UNL     1      -2.754   4.490  -3.659  0.00  0.00    +0.174 A 
ATOM     29  N   UNL     1      -2.235   4.445  -4.878  0.00  0.00    -0.228 NA
ATOM     30  O   UNL     1      -6.089   3.406  -4.178  0.00  0.00    -0.268 OA
ATOM     31  H   UNL     1      -4.419   4.203  -2.405  0.00  0.00    +0.171 HD
ENDBRANCH  22  28
ENDBRANCH   1  22
TORSDOF 4
