REMARK  Name = ZINC38491564
REMARK  12 active torsions:
REMARK  status: ('A' for Active; 'I' for Inactive)
REMARK    1  A    between atoms: C_1  and  C_2
REMARK    2  A    between atoms: C_2  and  O_3
REMARK    3  A    between atoms: O_3  and  C_4
REMARK    4  A    between atoms: C_4  and  C_6
REMARK    5  A    between atoms: C_6  and  N_7
REMARK    6  A    between atoms: C_8  and  C_10
REMARK    7  A    between atoms: C_11  and  C_23
REMARK    8  A    between atoms: N_12  and  C_15
REMARK    9  A    between atoms: C_23  and  S_24
REMARK   10  A    between atoms: S_24  and  C_25
REMARK   11  A    between atoms: C_27  and  C_32
REMARK   12  A    between atoms: C_29  and  C_31
REMARK                            x       y       z     vdW  Elec       q    Type
REMARK                         _______ _______ _______ _____ _____    ______ ____
ROOT
ATOM      1  C   UNL     1      -3.808  -6.110   0.006  0.00  0.00    +0.171 A 
ATOM      2  C   UNL     1      -4.861  -6.979   0.005  0.00  0.00    +0.087 A 
ATOM      3  N   UNL     1      -4.339  -8.225  -0.004  0.00  0.00    -0.215 N 
ATOM      4  N   UNL     1      -2.944  -8.079  -0.010  0.00  0.00    -0.060 NA
ATOM      5  N   UNL     1      -2.667  -6.822  -0.010  0.00  0.00    -0.124 NA
ENDROOT
BRANCH   3   6
ATOM      6  C   UNL     1      -5.053  -9.432  -0.008  0.00  0.00    +0.070 A 
ATOM      7  C   UNL     1      -6.254  -9.530   0.682  0.00  0.00    +0.048 A 
ATOM      8  C   UNL     1      -6.956 -10.721   0.677  0.00  0.00    +0.044 A 
ATOM      9  C   UNL     1      -6.464 -11.813  -0.014  0.00  0.00    +0.040 A 
ATOM     10  C   UNL     1      -5.268 -11.717  -0.703  0.00  0.00    +0.044 A 
ATOM     11  C   UNL     1      -4.564 -10.527  -0.706  0.00  0.00    +0.048 A 
ATOM     12 CL   UNL     1      -4.653 -13.090  -1.570  0.00  0.00    -0.083 Cl
ATOM     13 CL   UNL     1      -8.457 -10.846   1.541  0.00  0.00    -0.083 Cl
ENDBRANCH   3   6
BRANCH   1  15
ATOM     14  N   UNL     1      -2.784  -3.888   0.008  0.00  0.00    -0.299 N 
ATOM     15  C   UNL     1      -3.905  -4.638   0.014  0.00  0.00    +0.267 C 
ATOM     16  O   UNL     1      -4.995  -4.101   0.028  0.00  0.00    -0.268 OA
ATOM     17  H   UNL     1      -1.914  -4.317  -0.003  0.00  0.00    +0.150 HD
BRANCH  14  18
ATOM     18  C   UNL     1      -2.881  -2.427   0.017  0.00  0.00    +0.225 C 
BRANCH  18  19
ATOM     19  C   UNL     1      -1.496  -1.832   0.006  0.00  0.00    +0.324 C 
ATOM     20  O   UNL     1      -0.528  -2.555  -0.007  0.00  0.00    -0.249 OA
BRANCH  19  21
ATOM     21  O   UNL     1      -1.339  -0.499   0.012  0.00  0.00    -0.464 OA
BRANCH  21  23
ATOM     22  C   UNL     1      -0.019   1.526   0.010  0.00  0.00    +0.048 C 
ATOM     23  C   UNL     1       0.002  -0.004   0.002  0.00  0.00    +0.229 C 
ENDBRANCH  21  23
ENDBRANCH  19  21
ENDBRANCH  18  19
ENDBRANCH  14  18
ENDBRANCH   1  15
BRANCH   2  24
ATOM     24  C   UNL     1      -6.324  -6.619   0.015  0.00  0.00    +0.135 C 
BRANCH  24  25
ATOM     25  S   UNL     1      -6.902  -6.484   1.729  0.00  0.00    -0.080 S 
BRANCH  25  26
ATOM     26  C   UNL     1      -8.606  -6.063   1.573  0.00  0.00    +0.189 A 
ATOM     27  N   UNL     1      -9.132  -5.933   0.363  0.00  0.00    -0.227 NA
ATOM     28  C   UNL     1     -10.408  -5.619   0.210  0.00  0.00    +0.043 A 
ATOM     29  C   UNL     1     -11.195  -5.424   1.334  0.00  0.00    +0.046 A 
ATOM     30  C   UNL     1     -10.613  -5.568   2.584  0.00  0.00    +0.043 A 
ATOM     31  N   UNL     1      -9.333  -5.889   2.667  0.00  0.00    -0.227 NA
ATOM     32  C   UNL     1     -11.431  -5.365   3.834  0.00  0.00    +0.066 C 
ATOM     33  C   UNL     1     -10.998  -5.473  -1.169  0.00  0.00    +0.066 C 
ENDBRANCH  25  26
ENDBRANCH  24  25
ENDBRANCH   2  24
TORSDOF 9
