REMARK  Name = ZINC20432047
REMARK  6 active torsions:
REMARK  status: ('A' for Active; 'I' for Inactive)
REMARK    1  A    between atoms: C_1  and  O_2
REMARK    2  A    between atoms: O_2  and  C_3
REMARK    3  A    between atoms: C_6  and  N_9
REMARK    4  A    between atoms: N_18  and  C_29
REMARK    5  A    between atoms: C_20  and  C_21
REMARK    6  A    between atoms: C_32  and  N_35
REMARK                            x       y       z     vdW  Elec       q    Type
REMARK                         _______ _______ _______ _____ _____    ______ ____
ROOT
ATOM      1  N   UNL     1       1.972  -1.929  -5.170  0.00  0.00    -0.205 N 
ATOM      2  C   UNL     1       2.735  -1.542  -6.208  0.00  0.00    +0.257 C 
ATOM      3  O   UNL     1       2.902  -0.386  -6.556  0.00  0.00    -0.269 OA
ATOM      4  C   UNL     1       3.308  -2.652  -6.829  0.00  0.00    +0.069 C 
ATOM      5  H   UNL     1       4.358  -5.334  -8.135  0.00  0.00    +0.170 HD
ATOM      6  C   UNL     1       3.228  -3.739  -5.746  0.00  0.00    +0.217 C 
ATOM      7  C   UNL     1       2.104  -3.245  -4.887  0.00  0.00    +0.253 C 
ATOM      8  O   UNL     1       1.446  -3.893  -4.101  0.00  0.00    -0.272 OA
ATOM      9  N   UNL     1       2.924  -4.906  -6.590  0.00  0.00    -0.237 N 
ATOM     10  N   UNL     1       3.835  -4.668  -7.663  0.00  0.00    -0.262 N 
ATOM     11  C   UNL     1       3.833  -3.302  -7.902  0.00  0.00    +0.064 C 
ENDROOT
BRANCH  11  12
ATOM     12  C   UNL     1       4.323  -2.652  -9.133  0.00  0.00    +0.016 A 
ATOM     13  C   UNL     1       5.296  -1.652  -9.059  0.00  0.00    +0.012 A 
ATOM     14  C   UNL     1       5.750  -1.050 -10.212  0.00  0.00    +0.021 A 
ATOM     15  C   UNL     1       5.246  -1.434 -11.444  0.00  0.00    +0.042 A 
ATOM     16  C   UNL     1       4.282  -2.425 -11.526  0.00  0.00    +0.040 A 
ATOM     17  C   UNL     1       3.822  -3.040 -10.379  0.00  0.00    +0.051 A 
ATOM     18 CL   UNL     1       2.619  -4.287 -10.483  0.00  0.00    -0.083 Cl
ATOM     19 CL   UNL     1       5.824  -0.669 -12.891  0.00  0.00    -0.083 Cl
ENDBRANCH  11  12
BRANCH   1  23
ATOM     20  C   UNL     1      -0.517   0.654  -3.041  0.00  0.00    +0.120 A 
ATOM     21  C   UNL     1      -0.525  -0.705  -2.760  0.00  0.00    +0.047 A 
ATOM     22  C   UNL     1       0.299  -1.560  -3.465  0.00  0.00    +0.027 A 
ATOM     23  C   UNL     1       1.135  -1.060  -4.455  0.00  0.00    +0.044 A 
ATOM     24  C   UNL     1       1.142   0.299  -4.735  0.00  0.00    +0.027 A 
ATOM     25  C   UNL     1       0.314   1.153  -4.034  0.00  0.00    +0.047 A 
BRANCH  20  27
ATOM     26  C   UNL     1      -2.158   0.914  -1.340  0.00  0.00    +0.277 C 
ATOM     27  O   UNL     1      -1.329   1.496  -2.348  0.00  0.00    -0.495 OA
ENDBRANCH  20  27
ENDBRANCH   1  23
BRANCH   9  28
ATOM     28  C   UNL     1       2.010  -5.945  -6.398  0.00  0.00    +0.049 A 
ATOM     29  C   UNL     1       1.150  -6.315  -7.424  0.00  0.00    +0.027 A 
ATOM     30  C   UNL     1       0.248  -7.342  -7.231  0.00  0.00    +0.034 A 
ATOM     31  C   UNL     1       0.199  -8.002  -6.016  0.00  0.00    +0.126 A 
ATOM     32  C   UNL     1       1.053  -7.636  -4.992  0.00  0.00    +0.034 A 
ATOM     33  C   UNL     1       1.962  -6.614  -5.181  0.00  0.00    +0.027 A 
BRANCH  31  34
ATOM     34  N   UNL     1      -0.770  -9.102  -5.812  0.00  0.00    +0.056 N 
ATOM     35  O   UNL     1      -1.518  -9.423  -6.706  0.00  0.00    -0.126 OA
ATOM     36  O   UNL     1      -0.814  -9.680  -4.751  0.00  0.00    -0.126 OA
ENDBRANCH  31  34
ENDBRANCH   9  28
TORSDOF 5
