REMARK  Name = ZINC12875411
REMARK  7 active torsions:
REMARK  status: ('A' for Active; 'I' for Inactive)
REMARK    1  A    between atoms: C_1  and  O_2
REMARK    2  A    between atoms: O_2  and  C_3
REMARK    3  A    between atoms: C_8  and  C_9
REMARK    4  A    between atoms: C_9  and  N_10
REMARK    5  A    between atoms: C_15  and  C_31
REMARK    6  A    between atoms: C_31  and  C_32
REMARK    7  A    between atoms: C_32  and  C_33
REMARK                            x       y       z     vdW  Elec       q    Type
REMARK                         _______ _______ _______ _____ _____    ______ ____
ROOT
ATOM      1  N   UNL     1      -1.868   2.460  -0.522  0.00  0.00    -0.237 N 
ATOM      2  C   UNL     1      -1.923   2.628   0.804  0.00  0.00    +0.224 C 
ATOM      3  O   UNL     1      -2.721   3.329   1.389  0.00  0.00    -0.275 OA
ATOM      4  C   UNL     1      -0.836   1.807   1.461  0.00  0.00    +0.073 C 
ATOM      5  C   UNL     1       0.234   2.745   2.059  0.00  0.00    -0.057 C 
ATOM      6  C   UNL     1       1.291   1.684   0.265  0.00  0.00    +0.050 C 
ATOM      7  C   UNL     1      -0.133   1.118   0.259  0.00  0.00    +0.088 C 
ATOM      8  C   UNL     1      -0.885   1.634  -0.947  0.00  0.00    +0.225 C 
ATOM      9  O   UNL     1      -0.644   1.345  -2.099  0.00  0.00    -0.275 OA
ATOM     10  C   UNL     1       1.451   2.796  -0.733  0.00  0.00    -0.028 A 
ATOM     11  C   UNL     1       0.829   4.012  -0.904  0.00  0.00    +0.004 A 
ATOM     12  C   UNL     1       1.206   4.842  -1.945  0.00  0.00    +0.000 A 
ATOM     13  C   UNL     1       2.208   4.447  -2.812  0.00  0.00    +0.002 A 
ATOM     14  C   UNL     1       2.833   3.228  -2.645  0.00  0.00    +0.023 A 
ATOM     15  C   UNL     1       2.459   2.386  -1.600  0.00  0.00    +0.036 A 
ATOM     16  N   UNL     1       2.933   1.126  -1.230  0.00  0.00    -0.286 N 
ATOM     17  C   UNL     1       2.298   0.644  -0.144  0.00  0.00    +0.211 C 
ATOM     18  O   UNL     1       2.500  -0.422   0.399  0.00  0.00    -0.277 OA
ATOM     19  H   UNL     1       3.637   0.653  -1.700  0.00  0.00    +0.155 HD
ATOM     20  N   UNL     1       1.503   2.157   1.622  0.00  0.00    +0.394 N 
ATOM     21  H   UNL     1       1.761   1.374   2.235  0.00  0.00    -0.083 HD
ATOM     22  H   UNL     1       2.247   2.865   1.640  0.00  0.00    -0.083 HD
ENDROOT
BRANCH   1  23
ATOM     23  C   UNL     1      -2.792   3.125  -1.444  0.00  0.00    +0.155 C 
BRANCH  23  29
ATOM     24  C   UNL     1      -4.986   2.049  -0.883  0.00  0.00    +0.125 A 
ATOM     25  C   UNL     1      -6.036   1.195  -1.191  0.00  0.00    +0.046 A 
ATOM     26  C   UNL     1      -6.023   0.485  -2.376  0.00  0.00    +0.004 A 
ATOM     27  C   UNL     1      -4.968   0.629  -3.257  0.00  0.00    +0.001 A 
ATOM     28  C   UNL     1      -3.923   1.483  -2.956  0.00  0.00    +0.009 A 
ATOM     29  C   UNL     1      -3.931   2.195  -1.772  0.00  0.00    +0.012 A 
BRANCH  24  31
ATOM     30  C   UNL     1      -6.054   2.462   1.200  0.00  0.00    +0.277 C 
ATOM     31  O   UNL     1      -4.994   2.744   0.284  0.00  0.00    -0.495 OA
ENDBRANCH  24  31
ENDBRANCH  23  29
ENDBRANCH   1  23
BRANCH   5  32
ATOM     32  C   UNL     1       0.128   2.774   3.585  0.00  0.00    -0.006 C 
BRANCH  32  33
ATOM     33  C   UNL     1       1.166   3.745   4.151  0.00  0.00    +0.094 C 
BRANCH  33  34
ATOM     34  C   UNL     1       1.061   3.773   5.654  0.00  0.00    +0.210 C 
ATOM     35  O   UNL     1       0.238   3.084   6.217  0.00  0.00    -0.276 OA
ATOM     36  N   UNL     1       1.883   4.564   6.372  0.00  0.00    -0.329 N 
ATOM     37  H   UNL     1       2.542   5.115   5.921  0.00  0.00    +0.145 HD
ATOM     38  H   UNL     1       1.816   4.582   7.339  0.00  0.00    +0.145 HD
ENDBRANCH  33  34
ENDBRANCH  32  33
ENDBRANCH   5  32
TORSDOF 6
