REMARK  Name = ZINC46569616
REMARK  7 active torsions:
REMARK  status: ('A' for Active; 'I' for Inactive)
REMARK    1  A    between atoms: C_3  and  C_27
REMARK    2  A    between atoms: C_6  and  C_7
REMARK    3  A    between atoms: C_7  and  N_8
REMARK    4  A    between atoms: N_8  and  C_9
REMARK    5  A    between atoms: N_8  and  C_24
REMARK    6  A    between atoms: C_9  and  C_10
REMARK    7  A    between atoms: N_12  and  C_13
REMARK                            x       y       z     vdW  Elec       q    Type
REMARK                         _______ _______ _______ _____ _____    ______ ____
ROOT
ATOM      1  N   UNL     1      -1.650  -1.256  -1.536  0.00  0.00    +0.390 N 
ATOM      2  H   UNL     1      -1.016  -1.906  -1.976  0.00  0.00    -0.080 HD
ENDROOT
BRANCH   1   3
ATOM      3  C   UNL     1      -1.780  -0.055  -2.372  0.00  0.00    -0.068 C 
ATOM      4  C   UNL     1      -1.059  -0.053  -3.721  0.00  0.00    -0.017 C 
ATOM      5  C   UNL     1      -0.531   0.806  -2.571  0.00  0.00    -0.017 C 
ENDBRANCH   1   3
BRANCH   1   6
ATOM      6  C   UNL     1      -1.127  -0.879  -0.216  0.00  0.00    -0.042 C 
BRANCH   6  12
ATOM      7  C   UNL     1       0.334  -2.808   0.422  0.00  0.00    +0.002 A 
ATOM      8  C   UNL     1       0.588  -3.947   1.158  0.00  0.00    +0.013 A 
ATOM      9  C   UNL     1      -0.359  -4.408   2.074  0.00  0.00    +0.037 A 
ATOM     10  C   UNL     1      -1.557  -3.712   2.240  0.00  0.00    +0.013 A 
ATOM     11  C   UNL     1      -1.799  -2.574   1.498  0.00  0.00    +0.002 A 
ATOM     12  C   UNL     1      -0.856  -2.123   0.591  0.00  0.00    -0.064 A 
BRANCH   9  13
ATOM     13  C   UNL     1      -0.094  -5.628   2.865  0.00  0.00    +0.242 C 
ATOM     14  O   UNL     1       0.951  -6.232   2.719  0.00  0.00    -0.270 OA
ATOM     15  N   UNL     1      -1.010  -6.071   3.749  0.00  0.00    -0.325 N 
ATOM     16  H   UNL     1      -1.843  -5.588   3.866  0.00  0.00    +0.145 HD
ATOM     17  H   UNL     1      -0.836  -6.871   4.269  0.00  0.00    +0.145 HD
ENDBRANCH   9  13
ENDBRANCH   6  12
ENDBRANCH   1   6
BRANCH   1  18
ATOM     18  C   UNL     1      -2.967  -1.888  -1.378  0.00  0.00    +0.020 C 
BRANCH  18  19
ATOM     19  C   UNL     1      -3.449  -2.385  -2.717  0.00  0.00    +0.201 C 
ATOM     20  O   UNL     1      -2.763  -2.228  -3.705  0.00  0.00    -0.278 OA
ATOM     21  N   UNL     1      -4.642  -3.003  -2.816  0.00  0.00    -0.286 N 
ATOM     22  H   UNL     1      -5.164  -3.182  -2.018  0.00  0.00    +0.155 HD
BRANCH  21  23
ATOM     23  C   UNL     1      -5.130  -3.389  -4.072  0.00  0.00    +0.051 A 
ATOM     24  C   UNL     1      -4.245  -3.753  -5.078  0.00  0.00    +0.073 A 
ATOM     25  C   UNL     1      -4.727  -4.135  -6.320  0.00  0.00    +0.164 A 
ATOM     26  C   UNL     1      -6.097  -4.154  -6.556  0.00  0.00    +0.163 A 
ATOM     27  C   UNL     1      -6.978  -3.787  -5.550  0.00  0.00    +0.066 A 
ATOM     28  C   UNL     1      -6.498  -3.411  -4.309  0.00  0.00    +0.043 A 
ATOM     29 BR   UNL     1      -7.703  -2.920  -2.938  0.00  0.00    -0.048 Br
ATOM     30  O   UNL     1      -6.590  -4.533  -7.768  0.00  0.00    -0.485 OA
ATOM     31  C   UNL     1      -5.669  -4.535  -8.865  0.00  0.00    +0.270 C 
ATOM     32  C   UNL     1      -4.376  -5.222  -8.406  0.00  0.00    +0.270 C 
ATOM     33  O   UNL     1      -3.847  -4.487  -7.297  0.00  0.00    -0.485 OA
ENDBRANCH  21  23
ENDBRANCH  18  19
ENDBRANCH   1  18
TORSDOF 7
