REMARK  Name = ZINC10315669
REMARK  11 active torsions:
REMARK  status: ('A' for Active; 'I' for Inactive)
REMARK    1  A    between atoms: C_1  and  C_2
REMARK    2  A    between atoms: C_3  and  C_19
REMARK    3  A    between atoms: N_10  and  C_11
REMARK    4  A    between atoms: C_11  and  C_12
REMARK    5  A    between atoms: C_19  and  N_61
REMARK    6  A    between atoms: C_20  and  C_21
REMARK    7  A    between atoms: C_20  and  N_61
REMARK    8  A    between atoms: C_21  and  C_22
REMARK    9  A    between atoms: C_22  and  S_23
REMARK   10  A    between atoms: S_23  and  C_24
REMARK   11  A    between atoms: N_28  and  C_29
REMARK                            x       y       z     vdW  Elec       q    Type
REMARK                         _______ _______ _______ _____ _____    ______ ____
ROOT
ATOM      1  C   UNL     1       4.059   5.024  -0.241  0.00  0.00    -0.044 C 
ENDROOT
BRANCH   1   4
ATOM      2  C   UNL     1       2.051   7.387  -0.104  0.00  0.00    +0.064 C 
ATOM      3  C   UNL     1       1.683   5.926  -0.085  0.00  0.00    +0.018 A 
ATOM      4  C   UNL     1       2.559   4.910  -0.144  0.00  0.00    -0.036 A 
ATOM      5  C   UNL     1       1.781   3.670  -0.097  0.00  0.00    +0.001 A 
ATOM      6  C   UNL     1       2.113   2.314  -0.122  0.00  0.00    +0.010 A 
ATOM      7  C   UNL     1       1.125   1.372  -0.060  0.00  0.00    +0.001 A 
ATOM      8  C   UNL     1      -0.207   1.753   0.020  0.00  0.00    +0.002 A 
ATOM      9  C   UNL     1      -0.557   3.085   0.052  0.00  0.00    +0.026 A 
ATOM     10  C   UNL     1       0.432   4.061  -0.010  0.00  0.00    +0.050 A 
ATOM     11  N   UNL     1       0.408   5.437  -0.004  0.00  0.00    -0.339 N 
BRANCH  11  12
ATOM     12  C   UNL     1      -0.804   6.257   0.075  0.00  0.00    +0.158 C 
BRANCH  12  13
ATOM     13  C   UNL     1      -1.031   6.681   1.503  0.00  0.00    -0.009 A 
ATOM     14  C   UNL     1      -0.506   7.875   1.962  0.00  0.00    +0.007 A 
ATOM     15  C   UNL     1      -0.714   8.264   3.272  0.00  0.00    +0.000 A 
ATOM     16  C   UNL     1      -1.447   7.459   4.124  0.00  0.00    +0.001 A 
ATOM     17  C   UNL     1      -1.972   6.265   3.667  0.00  0.00    +0.020 A 
ATOM     18  C   UNL     1      -1.768   5.878   2.354  0.00  0.00    +0.046 A 
ATOM     19 CL   UNL     1      -2.433   4.381   1.777  0.00  0.00    -0.083 Cl
ENDBRANCH  12  13
ENDBRANCH  11  12
ENDBRANCH   1   4
BRANCH   1  20
ATOM     20  N   UNL     1       4.450   5.064  -1.662  0.00  0.00    +0.382 N 
ATOM     21  H   UNL     1       4.009   5.875  -2.112  0.00  0.00    -0.085 HD
ATOM     22  H   UNL     1       4.135   4.203  -2.125  0.00  0.00    -0.085 HD
BRANCH  20  23
ATOM     23  C   UNL     1       5.915   5.176  -1.787  0.00  0.00    -0.081 C 
BRANCH  23  24
ATOM     24  C   UNL     1       6.291   5.215  -3.270  0.00  0.00    -0.008 C 
BRANCH  24  25
ATOM     25  C   UNL     1       7.810   5.331  -3.409  0.00  0.00    +0.075 C 
BRANCH  25  26
ATOM     26  S   UNL     1       8.254   5.378  -5.163  0.00  0.00    -0.084 S 
BRANCH  26  27
ATOM     27  C   UNL     1      10.006   5.509  -5.032  0.00  0.00    +0.214 A 
ATOM     28  N   UNL     1      10.706   5.553  -3.919  0.00  0.00    -0.101 NA
ATOM     29  N   UNL     1      11.960   5.650  -4.180  0.00  0.00    -0.022 NA
ATOM     30  N   UNL     1      12.153   5.674  -5.454  0.00  0.00    -0.038 NA
ATOM     31  N   UNL     1      10.889   5.578  -6.060  0.00  0.00    -0.187 N 
BRANCH  31  32
ATOM     32  C   UNL     1      10.601   5.560  -7.433  0.00  0.00    +0.070 A 
ATOM     33  C   UNL     1       9.554   4.786  -7.913  0.00  0.00    +0.028 A 
ATOM     34  C   UNL     1       9.270   4.775  -9.265  0.00  0.00    +0.002 A 
ATOM     35  C   UNL     1      10.035   5.524 -10.140  0.00  0.00    +0.000 A 
ATOM     36  C   UNL     1      11.082   6.291  -9.665  0.00  0.00    +0.002 A 
ATOM     37  C   UNL     1      11.368   6.311  -8.314  0.00  0.00    +0.028 A 
ENDBRANCH  31  32
ENDBRANCH  26  27
ENDBRANCH  25  26
ENDBRANCH  24  25
ENDBRANCH  23  24
ENDBRANCH  20  23
ENDBRANCH   1  20
TORSDOF 10
