REMARK  Name = ZINC36490397
REMARK  16 active torsions:
REMARK  status: ('A' for Active; 'I' for Inactive)
REMARK    1  A    between atoms: C_1  and  C_2
REMARK    2  A    between atoms: C_2  and  C_3
REMARK    3  A    between atoms: C_2  and  C_4
REMARK    4  A    between atoms: C_2  and  C_5
REMARK    5  A    between atoms: C_5  and  C_6
REMARK    6  A    between atoms: C_6  and  C_7
REMARK    7  A    between atoms: C_6  and  C_8
REMARK    8  A    between atoms: C_6  and  N_9
REMARK    9  A    between atoms: C_10  and  C_12
REMARK   10  A    between atoms: C_12  and  C_14
REMARK   11  A    between atoms: C_12  and  N_21
REMARK   12  A    between atoms: C_18  and  O_20
REMARK   13  A    between atoms: N_21  and  C_22
REMARK   14  A    between atoms: C_28  and  C_30
REMARK   15  A    between atoms: C_30  and  N_31
REMARK   16  A    between atoms: C_32  and  C_34
REMARK                            x       y       z     vdW  Elec       q    Type
REMARK                         _______ _______ _______ _____ _____    ______ ____
ROOT
ATOM      1  C   UNL     1       5.332  -0.532  -3.896  0.00  0.00    +0.193 C 
ENDROOT
BRANCH   1   2
ATOM      2  C   UNL     1       4.691   0.421  -4.871  0.00  0.00    -0.015 A 
ATOM      3  C   UNL     1       3.649   1.232  -4.461  0.00  0.00    +0.006 A 
ATOM      4  C   UNL     1       3.059   2.108  -5.353  0.00  0.00    +0.004 A 
ATOM      5  C   UNL     1       3.509   2.174  -6.658  0.00  0.00    +0.045 A 
ATOM      6  C   UNL     1       4.554   1.361  -7.072  0.00  0.00    +0.117 A 
ATOM      7  C   UNL     1       5.149   0.488  -6.173  0.00  0.00    +0.051 A 
BRANCH   6   8
ATOM      8  O   UNL     1       4.998   1.425  -8.355  0.00  0.00    -0.507 OA
ATOM      9  H   UNL     1       5.706   2.069  -8.495  0.00  0.00    +0.292 HD
ENDBRANCH   6   8
ENDBRANCH   1   2
BRANCH   1  11
ATOM     10  N   UNL     1       3.293  -1.054  -2.596  0.00  0.00    -0.308 N 
ATOM     11  C   UNL     1       4.541  -0.546  -2.613  0.00  0.00    +0.239 C 
ATOM     12  O   UNL     1       5.028  -0.099  -1.596  0.00  0.00    -0.273 OA
ATOM     13  H   UNL     1       2.887  -1.371  -3.418  0.00  0.00    +0.149 HD
BRANCH  10  14
ATOM     14  C   UNL     1       2.550  -1.130  -1.336  0.00  0.00    +0.030 C 
ATOM     15  C   UNL     1       2.582   0.234  -0.642  0.00  0.00    +0.031 C 
ATOM     16  C   UNL     1       3.193  -2.180  -0.427  0.00  0.00    +0.031 C 
BRANCH  14  17
ATOM     17  C   UNL     1       1.099  -1.522  -1.622  0.00  0.00    +0.031 C 
BRANCH  17  19
ATOM     18  C   UNL     1       1.094  -1.250  -4.105  0.00  0.00    +0.010 C 
ATOM     19  C   UNL     1       0.564  -0.685  -2.786  0.00  0.00    -0.036 C 
ATOM     20  C   UNL     1       1.029   0.764  -2.627  0.00  0.00    +0.010 C 
ATOM     21  C   UNL     1      -0.965  -0.733  -2.788  0.00  0.00    +0.010 C 
ENDBRANCH  17  19
ENDBRANCH  14  17
ENDBRANCH  10  14
ENDBRANCH   1  11
BRANCH   1  22
ATOM     22  N   UNL     1       6.704  -0.099  -3.619  0.00  0.00    -0.282 N 
ATOM     23  C   UNL     1       7.734  -0.939  -3.843  0.00  0.00    +0.234 C 
ATOM     24  O   UNL     1       7.532  -2.029  -4.335  0.00  0.00    -0.274 OA
BRANCH  22  25
ATOM     25  C   UNL     1       6.956   1.247  -3.100  0.00  0.00    +0.077 C 
ATOM     26  C   UNL     1       7.263   1.167  -1.603  0.00  0.00    +0.022 C 
ATOM     27  C   UNL     1       7.526   2.573  -1.061  0.00  0.00    +0.002 C 
ATOM     28  C   UNL     1       6.289   3.446  -1.282  0.00  0.00    +0.000 C 
ATOM     29  C   UNL     1       5.982   3.526  -2.779  0.00  0.00    +0.002 C 
ATOM     30  C   UNL     1       5.719   2.119  -3.321  0.00  0.00    +0.022 C 
ENDBRANCH  22  25
BRANCH  23  31
ATOM     31  C   UNL     1       9.137  -0.525  -3.481  0.00  0.00    +0.200 C 
BRANCH  31  32
ATOM     32  N   UNL     1      10.057  -1.633  -3.747  0.00  0.00    -0.303 N 
ATOM     33  C   UNL     1      11.374  -1.489  -3.497  0.00  0.00    +0.244 C 
ATOM     34  O   UNL     1      11.797  -0.441  -3.051  0.00  0.00    -0.270 OA
ATOM     35  H   UNL     1       9.720  -2.469  -4.103  0.00  0.00    +0.150 HD
BRANCH  33  36
ATOM     36  C   UNL     1      12.303  -2.607  -3.766  0.00  0.00    +0.037 A 
ATOM     37  C   UNL     1      11.821  -3.811  -4.284  0.00  0.00    +0.013 A 
ATOM     38  C   UNL     1      12.694  -4.850  -4.533  0.00  0.00    +0.001 A 
ATOM     39  C   UNL     1      14.044  -4.701  -4.270  0.00  0.00    +0.000 A 
ATOM     40  C   UNL     1      14.528  -3.512  -3.756  0.00  0.00    +0.001 A 
ATOM     41  C   UNL     1      13.668  -2.462  -3.508  0.00  0.00    +0.013 A 
ENDBRANCH  33  36
ENDBRANCH  31  32
ENDBRANCH  23  31
ENDBRANCH   1  22
TORSDOF 11
