REMARK  Name = ZINC62539022
REMARK  2 active torsions:
REMARK  status: ('A' for Active; 'I' for Inactive)
REMARK    1  A    between atoms: C_1  and  C_2
REMARK    2  A    between atoms: C_9  and  N_16
REMARK                            x       y       z     vdW  Elec       q    Type
REMARK                         _______ _______ _______ _____ _____    ______ ____
ROOT
ATOM      1  C   UNL     1      -0.019   1.526   0.010  0.00  0.00    +0.020 C 
ATOM      2  C   UNL     1       0.002  -0.004   0.002  0.00  0.00    +0.110 C 
ATOM      3  C   UNL     1       0.600  -0.495  -1.315  0.00  0.00    +0.241 C 
ATOM      4  O   UNL     1       2.017  -0.342  -1.307  0.00  0.00    -0.489 OA
ATOM      5  C   UNL     1       2.513   0.828  -0.821  0.00  0.00    +0.145 A 
ATOM      6  C   UNL     1       3.009   1.790  -1.684  0.00  0.00    +0.069 A 
ATOM      7  C   UNL     1       3.509   2.978  -1.181  0.00  0.00    +0.067 A 
ATOM      8  C   UNL     1       3.514   3.210   0.189  0.00  0.00    +0.064 A 
ATOM      9  C   UNL     1       3.019   2.247   1.058  0.00  0.00    +0.088 A 
ATOM     10  C   UNL     1       2.521   1.056   0.554  0.00  0.00    +0.096 A 
ATOM     11  N   UNL     1       2.029   0.066   1.417  0.00  0.00    -0.281 N 
ATOM     12  C   UNL     1       0.830  -0.499   1.159  0.00  0.00    +0.223 C 
ATOM     13  O   UNL     1       0.421  -1.400   1.861  0.00  0.00    -0.275 OA
ATOM     14 CL   UNL     1       3.023   2.534   2.770  0.00  0.00    -0.080 Cl
ATOM     15 CL   UNL     1       4.132   4.183  -2.266  0.00  0.00    -0.081 Cl
ATOM     16  H   UNL     1       2.545  -0.209   2.191  0.00  0.00    +0.155 HD
ENDROOT
BRANCH   8  17
ATOM     17  N   UNL     1       4.019   4.416   0.693  0.00  0.00    -0.356 N 
ATOM     18  H   UNL     1       4.365   5.089   0.086  0.00  0.00    +0.142 HD
ATOM     19  H   UNL     1       4.022   4.578   1.649  0.00  0.00    +0.142 HD
ENDBRANCH   8  17
TORSDOF 1
