REMARK  Name = ZINC05416195
REMARK  7 active torsions:
REMARK  status: ('A' for Active; 'I' for Inactive)
REMARK    1  A    between atoms: C_1  and  C_2
REMARK    2  A    between atoms: C_5  and  C_8
REMARK    3  A    between atoms: C_8  and  N_10
REMARK    4  A    between atoms: C_8  and  N_21
REMARK    5  A    between atoms: N_10  and  S_11
REMARK    6  A    between atoms: S_11  and  C_14
REMARK    7  A    between atoms: C_17  and  C_20
REMARK                            x       y       z     vdW  Elec       q    Type
REMARK                         _______ _______ _______ _____ _____    ______ ____
ROOT
ATOM      1  C   UNL     1       1.863  -1.731  -0.025  0.00  0.00    +0.227 C 
ENDROOT
BRANCH   1   2
ATOM      2  N   UNL     1       1.328  -0.367  -0.013  0.00  0.00    -0.221 N 
ATOM      3  C   UNL     1       0.002  -0.004   0.002  0.00  0.00    +0.091 A 
ATOM      4  C   UNL     1      -1.194  -0.713   0.010  0.00  0.00    +0.030 A 
ATOM      5  C   UNL     1      -2.383  -0.040   0.025  0.00  0.00    +0.002 A 
ATOM      6  C   UNL     1      -2.409   1.349   0.033  0.00  0.00    +0.002 A 
ATOM      7  C   UNL     1      -1.250   2.068   0.030  0.00  0.00    +0.032 A 
ATOM      8  C   UNL     1      -0.017   1.401   0.010  0.00  0.00    +0.113 A 
ATOM      9  N   UNL     1       1.262   1.828  -0.000  0.00  0.00    -0.129 NA
ATOM     10  N   UNL     1       2.067   0.825  -0.013  0.00  0.00    -0.063 NA
ENDBRANCH   1   2
BRANCH   1  15
ATOM     11  C   UNL     1       3.829  -2.981  -5.313  0.00  0.00    +0.044 C 
ATOM     12  C   UNL     1       3.316  -2.655  -3.934  0.00  0.00    -0.050 A 
ATOM     13  C   UNL     1       2.074  -3.110  -3.533  0.00  0.00    +0.004 A 
ATOM     14  C   UNL     1       1.604  -2.811  -2.268  0.00  0.00    +0.007 A 
ATOM     15  C   UNL     1       2.376  -2.057  -1.404  0.00  0.00    -0.007 A 
ATOM     16  C   UNL     1       3.616  -1.598  -1.807  0.00  0.00    +0.007 A 
ATOM     17  C   UNL     1       4.088  -1.901  -3.070  0.00  0.00    +0.004 A 
ENDBRANCH   1  15
BRANCH   1  18
ATOM     18  N   UNL     1       2.960  -1.833   0.941  0.00  0.00    -0.162 NA
ATOM     19  H   UNL     1       3.860  -1.577   0.682  0.00  0.00    +0.151 HD
BRANCH  18  20
ATOM     20  S   UNL     1       2.665  -2.385   2.474  0.00  0.00    +0.060 S 
ATOM     21  O   UNL     1       3.915  -2.394   3.150  0.00  0.00    -0.153 OA
ATOM     22  O   UNL     1       1.542  -1.661   2.958  0.00  0.00    -0.153 OA
BRANCH  20  23
ATOM     23  C   UNL     1       2.158  -4.067   2.333  0.00  0.00    +0.105 A 
ATOM     24  C   UNL     1       0.817  -4.375   2.191  0.00  0.00    +0.029 A 
ATOM     25  C   UNL     1       0.419  -5.694   2.076  0.00  0.00    +0.005 A 
ATOM     26  C   UNL     1       1.361  -6.705   2.112  0.00  0.00    -0.050 A 
ATOM     27  C   UNL     1       2.701  -6.398   2.260  0.00  0.00    +0.005 A 
ATOM     28  C   UNL     1       3.099  -5.079   2.370  0.00  0.00    +0.029 A 
ATOM     29  C   UNL     1       0.927  -8.143   1.992  0.00  0.00    +0.044 C 
ENDBRANCH  20  23
ENDBRANCH  18  20
ENDBRANCH   1  18
TORSDOF 5
