REMARK  Name = ZINC54201288
REMARK  6 active torsions:
REMARK  status: ('A' for Active; 'I' for Inactive)
REMARK    1  A    between atoms: C_1  and  O_2
REMARK    2  A    between atoms: O_2  and  C_3
REMARK    3  A    between atoms: C_6  and  C_9
REMARK    4  A    between atoms: C_12  and  C_15
REMARK    5  A    between atoms: C_20  and  O_21
REMARK    6  A    between atoms: C_28  and  C_29
REMARK                            x       y       z     vdW  Elec       q    Type
REMARK                         _______ _______ _______ _____ _____    ______ ____
ROOT
ATOM      1  C   UNL     1       2.575  -2.537   4.287  0.00  0.00    +0.069 C 
ATOM      2  N   UNL     1       3.139  -1.934   5.278  0.00  0.00    -0.182 NA
ATOM      3  N   UNL     1       3.710  -2.793   6.216  0.00  0.00    -0.200 N 
ATOM      4  C   UNL     1       3.494  -4.182   5.782  0.00  0.00    +0.139 C 
ATOM      5  C   UNL     1       2.711  -4.033   4.463  0.00  0.00    +0.087 C 
ATOM      6  C   UNL     1       4.369  -2.404   7.359  0.00  0.00    +0.149 C 
ATOM      7  N   UNL     1       4.874  -3.288   8.171  0.00  0.00    -0.153 NA
ATOM      8  C   UNL     1       5.520  -2.928   9.290  0.00  0.00    +0.302 C 
ATOM      9  O   UNL     1       6.041  -3.636  10.136  0.00  0.00    -0.260 OA
ATOM     10  S   UNL     1       5.423  -1.144   9.222  0.00  0.00    -0.026 S 
ATOM     11  C   UNL     1       4.521  -1.025   7.682  0.00  0.00    +0.057 C 
ATOM     12  C   UNL     1       4.091   0.091   6.999  0.00  0.00    +0.033 C 
ENDROOT
BRANCH   1  16
ATOM     13  C   UNL     1       0.626  -0.618   1.041  0.00  0.00    +0.120 A 
ATOM     14  C   UNL     1       1.202   0.143   2.050  0.00  0.00    +0.046 A 
ATOM     15  C   UNL     1       1.836  -0.476   3.106  0.00  0.00    +0.013 A 
ATOM     16  C   UNL     1       1.898  -1.871   3.161  0.00  0.00    -0.002 A 
ATOM     17  C   UNL     1       1.316  -2.632   2.143  0.00  0.00    +0.013 A 
ATOM     18  C   UNL     1       0.680  -2.005   1.094  0.00  0.00    +0.046 A 
BRANCH  13  20
ATOM     19  C   UNL     1      -0.017   1.425   0.010  0.00  0.00    +0.277 C 
ATOM     20  O   UNL     1       0.002  -0.004   0.002  0.00  0.00    -0.495 OA
ENDBRANCH  13  20
ENDBRANCH   1  16
BRANCH   4  21
ATOM     21  C   UNL     1       4.811  -4.877   5.551  0.00  0.00    +0.017 A 
ATOM     22  C   UNL     1       5.963  -4.134   5.379  0.00  0.00    +0.009 A 
ATOM     23  C   UNL     1       7.172  -4.770   5.166  0.00  0.00    +0.001 A 
ATOM     24  C   UNL     1       7.231  -6.151   5.126  0.00  0.00    +0.004 A 
ATOM     25  C   UNL     1       6.082  -6.898   5.298  0.00  0.00    +0.046 A 
ATOM     26  C   UNL     1       4.869  -6.262   5.517  0.00  0.00    +0.122 A 
BRANCH  26  27
ATOM     27  O   UNL     1       3.738  -6.995   5.692  0.00  0.00    -0.506 OA
ATOM     28  H   UNL     1       3.265  -7.192   4.872  0.00  0.00    +0.292 HD
ENDBRANCH  26  27
ENDBRANCH   4  21
BRANCH  12  29
ATOM     29  C   UNL     1       4.357   1.378   7.512  0.00  0.00    +0.013 A 
ATOM     30  C   UNL     1       4.010   2.622   6.988  0.00  0.00    +0.015 A 
ATOM     31  C   UNL     1       4.413   3.709   7.723  0.00  0.00    +0.008 A 
ATOM     32  C   UNL     1       5.101   3.509   8.875  0.00  0.00    +0.046 A 
ATOM     33  S   UNL     1       5.218   1.838   9.003  0.00  0.00    -0.097 S 
ENDBRANCH  12  29
TORSDOF 5
