REMARK  Name = ZINC11879028
REMARK  11 active torsions:
REMARK  status: ('A' for Active; 'I' for Inactive)
REMARK    1  A    between atoms: C_1  and  C_2
REMARK    2  A    between atoms: C_2  and  O_3
REMARK    3  A    between atoms: O_3  and  C_4
REMARK    4  A    between atoms: C_7  and  C_12
REMARK    5  A    between atoms: C_9  and  C_10
REMARK    6  A    between atoms: C_10  and  O_11
REMARK    7  A    between atoms: C_12  and  N_60
REMARK    8  A    between atoms: C_13  and  N_60
REMARK    9  A    between atoms: C_16  and  C_30
REMARK   10  A    between atoms: C_16  and  C_31
REMARK   11  A    between atoms: N_22  and  C_23
REMARK                            x       y       z     vdW  Elec       q    Type
REMARK                         _______ _______ _______ _____ _____    ______ ____
ROOT
ATOM      1  C   UNL     1       1.235  -4.138  -1.455  0.00  0.00    -0.037 C 
ATOM      2  C   UNL     1       1.813  -4.606  -2.796  0.00  0.00    -0.005 C 
ATOM      3  C   UNL     1       1.593  -6.113  -2.951  0.00  0.00    -0.031 C 
ATOM      4  C   UNL     1       0.101  -6.394  -3.165  0.00  0.00    +0.062 C 
ATOM      5  C   UNL     1      -0.678  -5.669  -2.097  0.00  0.00    +0.047 A 
ATOM      6  C   UNL     1      -0.173  -4.666  -1.334  0.00  0.00    -0.020 A 
ATOM      7  C   UNL     1      -1.173  -4.245  -0.459  0.00  0.00    +0.137 A 
ATOM      8  N   UNL     1      -2.244  -4.967  -0.686  0.00  0.00    -0.174 NA
ATOM      9  N   UNL     1      -1.953  -5.873  -1.718  0.00  0.00    -0.236 N 
ATOM     10  C   UNL     1       2.070  -6.829  -1.686  0.00  0.00    +0.011 C 
ATOM     11  C   UNL     1       2.387  -6.623  -4.155  0.00  0.00    +0.011 C 
ENDROOT
BRANCH   9  12
ATOM     12  C   UNL     1      -2.834  -6.820  -2.257  0.00  0.00    +0.068 A 
ATOM     13  C   UNL     1      -3.763  -7.452  -1.440  0.00  0.00    +0.028 A 
ATOM     14  C   UNL     1      -4.630  -8.384  -1.973  0.00  0.00    +0.005 A 
ATOM     15  C   UNL     1      -4.576  -8.691  -3.321  0.00  0.00    +0.038 A 
ATOM     16  C   UNL     1      -3.652  -8.063  -4.139  0.00  0.00    +0.125 A 
ATOM     17  C   UNL     1      -2.784  -7.125  -3.610  0.00  0.00    +0.066 A 
ATOM     18  F   UNL     1      -3.602  -8.363  -5.455  0.00  0.00    -0.205 F 
ENDBRANCH   9  12
BRANCH   1  19
ATOM     19  N   UNL     1       1.218  -2.663  -1.417  0.00  0.00    +0.386 N 
ATOM     20  H   UNL     1       2.047  -2.303  -1.903  0.00  0.00    -0.085 HD
ATOM     21  H   UNL     1       0.371  -2.322  -1.886  0.00  0.00    -0.085 HD
BRANCH  19  22
ATOM     22  C   UNL     1       1.226  -2.187  -0.021  0.00  0.00    -0.046 C 
BRANCH  22  26
ATOM     23  C   UNL     1       1.176   2.086   0.002  0.00  0.00    +0.126 A 
ATOM     24  C   UNL     1      -0.017   1.377   0.010  0.00  0.00    +0.046 A 
ATOM     25  C   UNL     1       0.002  -0.004   0.002  0.00  0.00    +0.005 A 
ATOM     26  C   UNL     1       1.208  -0.680  -0.013  0.00  0.00    -0.064 A 
ATOM     27  C   UNL     1       2.398   0.024  -0.021  0.00  0.00    +0.011 A 
ATOM     28  C   UNL     1       2.385   1.405  -0.014  0.00  0.00    +0.020 A 
BRANCH  23  29
ATOM     29  O   UNL     1       1.160   3.445   0.009  0.00  0.00    -0.492 OA
BRANCH  29  31
ATOM     30  C   UNL     1       0.062   5.598   0.030  0.00  0.00    +0.048 C 
ATOM     31  C   UNL     1      -0.120   4.079   0.024  0.00  0.00    +0.225 C 
ENDBRANCH  29  31
ENDBRANCH  23  29
BRANCH  28  32
ATOM     32  C   UNL     1       3.682   2.172  -0.022  0.00  0.00    +0.194 C 
BRANCH  32  33
ATOM     33  O   UNL     1       4.777   1.254  -0.037  0.00  0.00    -0.390 OA
ATOM     34  H   UNL     1       5.646   1.679  -0.043  0.00  0.00    +0.210 HD
ENDBRANCH  32  33
ENDBRANCH  28  32
ENDBRANCH  22  26
ENDBRANCH  19  22
ENDBRANCH   1  19
TORSDOF 8
