REMARK  Name = ZINC02373004
REMARK  8 active torsions:
REMARK  status: ('A' for Active; 'I' for Inactive)
REMARK    1  A    between atoms: C_1  and  O_2
REMARK    2  A    between atoms: O_2  and  C_3
REMARK    3  A    between atoms: C_6  and  C_9
REMARK    4  A    between atoms: C_20  and  C_22
REMARK    5  A    between atoms: C_26  and  O_28
REMARK    6  A    between atoms: O_28  and  C_29
REMARK    7  A    between atoms: C_34  and  S_36
REMARK    8  A    between atoms: S_36  and  C_37
REMARK                            x       y       z     vdW  Elec       q    Type
REMARK                         _______ _______ _______ _____ _____    ______ ____
ROOT
ATOM      1  C   UNL     1      -4.981  -2.629   0.035  0.00  0.00    +0.159 C 
ATOM      2  C   UNL     1      -5.308  -3.003   1.464  0.00  0.00    +0.025 C 
ATOM      3  C   UNL     1      -5.512  -4.306   1.748  0.00  0.00    +0.058 C 
ATOM      4  C   UNL     1      -5.822  -4.658   3.157  0.00  0.00    +0.040 A 
ATOM      5  C   UNL     1      -6.356  -5.894   3.495  0.00  0.00    +0.013 A 
ATOM      6  C   UNL     1      -6.632  -6.180   4.818  0.00  0.00    +0.001 A 
ATOM      7  C   UNL     1      -6.378  -5.240   5.802  0.00  0.00    +0.004 A 
ATOM      8  C   UNL     1      -5.845  -4.007   5.474  0.00  0.00    +0.046 A 
ATOM      9  C   UNL     1      -5.563  -3.707   4.152  0.00  0.00    +0.131 A 
ATOM     10  O   UNL     1      -5.034  -2.507   3.803  0.00  0.00    -0.479 OA
ATOM     11  C   UNL     1      -5.413  -1.960   2.538  0.00  0.00    +0.234 C 
ATOM     12  N   UNL     1      -5.438  -5.261   0.790  0.00  0.00    -0.326 N 
ATOM     13  C   UNL     1      -5.160  -5.024  -0.474  0.00  0.00    +0.216 C 
ATOM     14  N   UNL     1      -4.919  -3.743  -0.920  0.00  0.00    -0.209 N 
ATOM     15  N   UNL     1      -4.654  -3.835  -2.289  0.00  0.00    -0.239 N 
ATOM     16  C   UNL     1      -4.747  -5.164  -2.610  0.00  0.00    +0.174 C 
ATOM     17  N   UNL     1      -5.048  -5.845  -1.534  0.00  0.00    -0.192 NA
ATOM     18  H   UNL     1      -5.599  -6.181   1.054  0.00  0.00    +0.169 HD
ATOM     19  H   UNL     1      -4.445  -3.104  -2.891  0.00  0.00    +0.172 HD
ENDROOT
BRANCH   1  23
ATOM     20  C   UNL     1      -1.200  -0.637   0.010  0.00  0.00    +0.120 A 
ATOM     21  C   UNL     1      -2.375   0.101   0.019  0.00  0.00    +0.046 A 
ATOM     22  C   UNL     1      -3.596  -0.545   0.027  0.00  0.00    +0.009 A 
ATOM     23  C   UNL     1      -3.648  -1.927   0.026  0.00  0.00    -0.021 A 
ATOM     24  C   UNL     1      -2.479  -2.665   0.017  0.00  0.00    +0.009 A 
ATOM     25  C   UNL     1      -1.255  -2.024   0.003  0.00  0.00    +0.046 A 
BRANCH  20  27
ATOM     26  C   UNL     1      -0.017   1.425   0.010  0.00  0.00    +0.277 C 
ATOM     27  O   UNL     1       0.002  -0.004   0.002  0.00  0.00    -0.495 OA
ENDBRANCH  20  27
ENDBRANCH   1  23
BRANCH  11  28
ATOM     28  C   UNL     1      -6.834  -1.465   2.614  0.00  0.00    +0.000 A 
ATOM     29  C   UNL     1      -7.764  -2.148   3.376  0.00  0.00    +0.008 A 
ATOM     30  C   UNL     1      -9.068  -1.696   3.448  0.00  0.00    +0.004 A 
ATOM     31  C   UNL     1      -9.446  -0.560   2.759  0.00  0.00    +0.045 A 
ATOM     32  C   UNL     1      -8.515   0.127   1.994  0.00  0.00    +0.120 A 
ATOM     33  C   UNL     1      -7.205  -0.325   1.928  0.00  0.00    +0.053 A 
BRANCH  32  34
ATOM     34  O   UNL     1      -8.884   1.245   1.314  0.00  0.00    -0.495 OA
ATOM     35  C   UNL     1     -10.248   1.656   1.433  0.00  0.00    +0.277 C 
ENDBRANCH  32  34
ENDBRANCH  11  28
BRANCH  16  36
ATOM     36  S   UNL     1      -4.506  -5.846  -4.217  0.00  0.00    -0.092 S 
ATOM     37  C   UNL     1      -4.764  -7.626  -3.981  0.00  0.00    +0.093 C 
ENDBRANCH  16  36
TORSDOF 5
