REMARK  Name = ZINC01735452
REMARK  8 active torsions:
REMARK  status: ('A' for Active; 'I' for Inactive)
REMARK    1  A    between atoms: C_1  and  O_2
REMARK    2  A    between atoms: O_2  and  C_3
REMARK    3  A    between atoms: C_6  and  C_9
REMARK    4  A    between atoms: N_10  and  N_11
REMARK    5  A    between atoms: N_14  and  N_15
REMARK    6  A    between atoms: C_16  and  C_17
REMARK    7  A    between atoms: C_20  and  O_23
REMARK    8  A    between atoms: O_23  and  C_24
REMARK                            x       y       z     vdW  Elec       q    Type
REMARK                         _______ _______ _______ _____ _____    ______ ____
ROOT
ATOM      1  N   UNL     1       3.916  -2.397  -6.195  0.00  0.00    -0.189 N 
ATOM      2  C   UNL     1       4.277  -1.641  -7.250  0.00  0.00    +0.339 C 
ATOM      3  O   UNL     1       4.562  -2.168  -8.308  0.00  0.00    -0.249 OA
ATOM      4  N   UNL     1       4.322  -0.299  -7.133  0.00  0.00    -0.189 N 
ATOM      5  H   UNL     1       3.619  -1.975  -5.374  0.00  0.00    +0.179 HD
ATOM      6  H   UNL     1       4.510   0.250  -7.910  0.00  0.00    +0.179 HD
ENDROOT
BRANCH   1   8
ATOM      7  C   UNL     1       3.532  -4.525  -5.304  0.00  0.00    +0.138 C 
ATOM      8  N   UNL     1       3.971  -3.795  -6.284  0.00  0.00    -0.186 NA
BRANCH   7  12
ATOM      9  C   UNL     1       3.402  -8.750  -5.701  0.00  0.00    +0.134 A 
ATOM     10  C   UNL     1       2.879  -8.145  -4.565  0.00  0.00    +0.060 A 
ATOM     11  C   UNL     1       2.919  -6.773  -4.432  0.00  0.00    +0.028 A 
ATOM     12  C   UNL     1       3.487  -5.992  -5.442  0.00  0.00    -0.004 A 
ATOM     13  C   UNL     1       4.013  -6.605  -6.582  0.00  0.00    +0.013 A 
ATOM     14  C   UNL     1       3.973  -7.978  -6.704  0.00  0.00    +0.047 A 
ATOM     15 BR   UNL     1       2.109  -9.203  -3.200  0.00  0.00    -0.046 Br
BRANCH   9  17
ATOM     16  C   UNL     1       4.024 -10.668  -6.960  0.00  0.00    +0.277 C 
ATOM     17  O   UNL     1       3.361 -10.102  -5.828  0.00  0.00    -0.494 OA
ENDBRANCH   9  17
ENDBRANCH   7  12
ENDBRANCH   1   8
BRANCH   4  18
ATOM     18  N   UNL     1       4.098   0.304  -5.888  0.00  0.00    -0.186 NA
ATOM     19  C   UNL     1       4.045   1.597  -5.793  0.00  0.00    +0.138 C 
BRANCH  19  20
ATOM     20  C   UNL     1       3.919   2.234  -4.469  0.00  0.00    -0.004 A 
ATOM     21  C   UNL     1       3.969   1.456  -3.309  0.00  0.00    +0.028 A 
ATOM     22  C   UNL     1       3.851   2.057  -2.074  0.00  0.00    +0.060 A 
ATOM     23  C   UNL     1       3.684   3.433  -1.981  0.00  0.00    +0.134 A 
ATOM     24  C   UNL     1       3.634   4.209  -3.131  0.00  0.00    +0.047 A 
ATOM     25  C   UNL     1       3.756   3.618  -4.371  0.00  0.00    +0.013 A 
ATOM     26 BR   UNL     1       3.918   1.006  -0.503  0.00  0.00    -0.046 Br
BRANCH  23  27
ATOM     27  O   UNL     1       3.568   4.021  -0.762  0.00  0.00    -0.494 OA
ATOM     28  C   UNL     1       3.398   5.440  -0.739  0.00  0.00    +0.277 C 
ENDBRANCH  23  27
ENDBRANCH  19  20
ENDBRANCH   4  18
TORSDOF 6
