REMARK  Name = ZINC00273961
REMARK  1 active torsions:
REMARK  status: ('A' for Active; 'I' for Inactive)
REMARK    1  A    between atoms: C_12  and  C_16
REMARK                            x       y       z     vdW  Elec       q    Type
REMARK                         _______ _______ _______ _____ _____    ______ ____
ROOT
ATOM      1  C   UNL     1      -0.016   1.359   0.009  0.00  0.00    +0.001 A 
ATOM      2  C   UNL     1       1.167   2.090   0.002  0.00  0.00    +0.001 A 
ATOM      3  C   UNL     1       2.378   1.462  -0.014  0.00  0.00    +0.009 A 
ATOM      4  C   UNL     1       2.433   0.065  -0.022  0.00  0.00    -0.007 A 
ATOM      5  C   UNL     1       1.231  -0.683  -0.012  0.00  0.00    -0.017 A 
ATOM      6  C   UNL     1       0.002  -0.004   0.002  0.00  0.00    +0.008 A 
ATOM      7  C   UNL     1       1.289  -2.090  -0.017  0.00  0.00    +0.012 A 
ATOM      8  C   UNL     1       2.479  -2.743  -0.019  0.00  0.00    +0.047 A 
ATOM      9  C   UNL     1       3.695  -2.055  -0.029  0.00  0.00    +0.140 A 
ATOM     10  C   UNL     1       3.708  -0.653  -0.044  0.00  0.00    +0.026 A 
ATOM     11  C   UNL     1       4.934   0.045  -0.075  0.00  0.00    +0.030 A 
ATOM     12  C   UNL     1       6.095  -0.681  -0.308  0.00  0.00    +0.094 A 
ATOM     13  C   UNL     1       5.946  -2.128  -0.539  0.00  0.00    +0.347 A 
ATOM     14  O   UNL     1       6.769  -2.751  -1.185  0.00  0.00    -0.244 OA
ATOM     15  O   UNL     1       4.863  -2.740  -0.007  0.00  0.00    -0.422 OA
ENDROOT
BRANCH  12  16
ATOM     16  C   UNL     1       7.419  -0.031  -0.323  0.00  0.00    +0.141 A 
ATOM     17  N   UNL     1       7.747   1.241  -0.133  0.00  0.00    -0.139 NA
ATOM     18  N   UNL     1       8.944   1.635  -0.181  0.00  0.00    -0.126 NA
ATOM     19  C   UNL     1       9.948   0.800  -0.424  0.00  0.00    +0.179 A 
ATOM     20  S   UNL     1       9.042  -0.736  -0.596  0.00  0.00    -0.031 S 
ATOM     21  N   UNL     1      11.308   1.045  -0.514  0.00  0.00    -0.336 N 
ATOM     22  H   UNL     1      11.648   1.945  -0.389  0.00  0.00    +0.144 HD
ATOM     23  H   UNL     1      11.921   0.317  -0.701  0.00  0.00    +0.144 HD
ENDBRANCH  12  16
TORSDOF 1
