REMARK  Name = ZINC04366326
REMARK  11 active torsions:
REMARK  status: ('A' for Active; 'I' for Inactive)
REMARK    1  A    between atoms: C_1  and  C_2
REMARK    2  A    between atoms: C_2  and  C_4
REMARK    3  A    between atoms: C_2  and  O_26
REMARK    4  A    between atoms: N_6  and  N_7
REMARK    5  A    between atoms: C_8  and  C_9
REMARK    6  A    between atoms: C_12  and  O_17
REMARK    7  A    between atoms: C_13  and  O_15
REMARK    8  A    between atoms: O_15  and  C_16
REMARK    9  A    between atoms: O_17  and  C_18
REMARK   10  A    between atoms: C_18  and  C_20
REMARK   11  A    between atoms: O_26  and  C_27
REMARK                            x       y       z     vdW  Elec       q    Type
REMARK                         _______ _______ _______ _____ _____    ______ ____
ROOT
ATOM      1  C   UNL     1       1.499  -0.683  -0.062  0.00  0.00    -0.002 A 
ATOM      2  C   UNL     1       2.744  -0.051  -0.118  0.00  0.00    +0.013 A 
ATOM      3  C   UNL     1       2.820   1.325  -0.110  0.00  0.00    +0.051 A 
ATOM      4  C   UNL     1       1.662   2.087  -0.047  0.00  0.00    +0.173 A 
ATOM      5  C   UNL     1       0.417   1.464   0.008  0.00  0.00    +0.163 A 
ATOM      6  C   UNL     1       0.333   0.084   0.001  0.00  0.00    +0.059 A 
ENDROOT
BRANCH   1   8
ATOM      7  N   UNL     1       2.500  -2.865  -0.129  0.00  0.00    -0.188 NA
ATOM      8  C   UNL     1       1.416  -2.155  -0.070  0.00  0.00    +0.138 C 
BRANCH   7  11
ATOM      9  C   UNL     1       3.547  -5.002  -0.198  0.00  0.00    +0.273 C 
ATOM     10  O   UNL     1       4.629  -4.456  -0.246  0.00  0.00    -0.270 OA
ATOM     11  N   UNL     1       2.421  -4.264  -0.137  0.00  0.00    -0.204 N 
ATOM     12  H   UNL     1       1.556  -4.701  -0.098  0.00  0.00    +0.177 HD
BRANCH   9  14
ATOM     13  C   UNL     1       2.762  -6.971  -1.484  0.00  0.00    +0.062 C 
ATOM     14  C   UNL     1       3.463  -6.507  -0.206  0.00  0.00    +0.257 C 
BRANCH  14  15
ATOM     15  O   UNL     1       4.780  -7.059  -0.157  0.00  0.00    -0.480 OA
BRANCH  15  16
ATOM     16  C   UNL     1       4.901  -8.326   0.320  0.00  0.00    +0.122 A 
ATOM     17  C   UNL     1       3.788  -8.992   0.812  0.00  0.00    +0.047 A 
ATOM     18  C   UNL     1       3.912 -10.282   1.290  0.00  0.00    +0.019 A 
ATOM     19  C   UNL     1       5.147 -10.905   1.289  0.00  0.00    +0.018 A 
ATOM     20  C   UNL     1       6.259 -10.241   0.804  0.00  0.00    +0.019 A 
ATOM     21  C   UNL     1       6.138  -8.953   0.319  0.00  0.00    +0.047 A 
ATOM     22 BR   UNL     1       5.315 -12.669   1.951  0.00  0.00    -0.050 Br
ENDBRANCH  15  16
ENDBRANCH  14  15
ENDBRANCH   9  14
ENDBRANCH   7  11
ENDBRANCH   1   8
BRANCH   5  23
ATOM     23  O   UNL     1      -0.717   2.213   0.064  0.00  0.00    -0.491 OA
ATOM     24  C   UNL     1      -1.959   1.509   0.113  0.00  0.00    +0.277 C 
ENDBRANCH   5  23
BRANCH   4  25
ATOM     25  O   UNL     1       1.742   3.444  -0.039  0.00  0.00    -0.419 OA
BRANCH  25  26
ATOM     26  C   UNL     1       1.640   4.056   1.157  0.00  0.00    +0.345 C 
ATOM     27  O   UNL     1       1.578   3.395   2.174  0.00  0.00    -0.245 OA
BRANCH  26  28
ATOM     28  C   UNL     1       1.602   5.530   1.231  0.00  0.00    +0.059 A 
ATOM     29  C   UNL     1       1.678   6.293   0.064  0.00  0.00    +0.015 A 
ATOM     30  C   UNL     1       1.638   7.670   0.140  0.00  0.00    +0.001 A 
ATOM     31  C   UNL     1       1.533   8.296   1.369  0.00  0.00    +0.000 A 
ATOM     32  C   UNL     1       1.462   7.546   2.530  0.00  0.00    +0.001 A 
ATOM     33  C   UNL     1       1.496   6.168   2.468  0.00  0.00    +0.015 A 
ENDBRANCH  26  28
ENDBRANCH  25  26
ENDBRANCH   4  25
TORSDOF 9
