REMARK  Name = ZINC28869561
REMARK  11 active torsions:
REMARK  status: ('A' for Active; 'I' for Inactive)
REMARK    1  A    between atoms: C_1  and  C_2
REMARK    2  A    between atoms: C_2  and  C_3
REMARK    3  A    between atoms: C_3  and  N_4
REMARK    4  A    between atoms: N_4  and  C_5
REMARK    5  A    between atoms: C_6  and  C_29
REMARK    6  A    between atoms: C_8  and  C_23
REMARK    7  A    between atoms: N_10  and  C_13
REMARK    8  A    between atoms: C_13  and  C_14
REMARK    9  A    between atoms: C_17  and  C_20
REMARK   10  A    between atoms: C_30  and  C_32
REMARK   11  A    between atoms: C_32  and  C_33
REMARK                            x       y       z     vdW  Elec       q    Type
REMARK                         _______ _______ _______ _____ _____    ______ ____
ROOT
ATOM      1  C   UNL     1      -1.175  -2.606   0.286  0.00  0.00    +0.098 C 
ATOM      2  C   UNL     1      -0.398  -2.269   1.318  0.00  0.00    -0.044 C 
ATOM      3  C   UNL     1       0.039  -0.839   1.500  0.00  0.00    +0.059 C 
ATOM      4  C   UNL     1       0.234  -0.169   0.141  0.00  0.00    +0.111 C 
ATOM      5  N   UNL     1      -0.941  -0.387  -0.704  0.00  0.00    -0.285 N 
ATOM      6  C   UNL     1      -1.579  -1.572  -0.688  0.00  0.00    +0.262 C 
ATOM      7  O   UNL     1      -2.483  -1.791  -1.471  0.00  0.00    -0.269 OA
ATOM      8  C   UNL     1       0.043  -3.321   2.302  0.00  0.00    +0.041 C 
ENDROOT
BRANCH   4   9
ATOM      9  C   UNL     1       0.439   1.310   0.339  0.00  0.00    -0.027 A 
ATOM     10  C   UNL     1      -0.594   2.094   0.818  0.00  0.00    +0.005 A 
ATOM     11  C   UNL     1      -0.404   3.450   1.004  0.00  0.00    +0.000 A 
ATOM     12  C   UNL     1       0.816   4.025   0.701  0.00  0.00    +0.000 A 
ATOM     13  C   UNL     1       1.848   3.243   0.217  0.00  0.00    +0.000 A 
ATOM     14  C   UNL     1       1.659   1.885   0.036  0.00  0.00    +0.005 A 
ENDBRANCH   4   9
BRANCH   1  15
ATOM     15  N   UNL     1      -1.603  -3.930   0.127  0.00  0.00    -0.267 N 
ATOM     16  C   UNL     1      -1.164  -4.660  -0.918  0.00  0.00    +0.231 C 
ATOM     17  O   UNL     1      -0.329  -4.202  -1.669  0.00  0.00    -0.275 OA
BRANCH  15  18
ATOM     18  C   UNL     1      -2.526  -4.522   1.098  0.00  0.00    +0.113 C 
BRANCH  18  20
ATOM     19  C   UNL     1      -4.930  -4.800   1.720  0.00  0.00    +0.005 C 
ATOM     20  C   UNL     1      -3.965  -4.181   0.706  0.00  0.00    +0.016 C 
ENDBRANCH  18  20
ENDBRANCH  15  18
BRANCH  16  21
ATOM     21  C   UNL     1      -1.712  -6.044  -1.153  0.00  0.00    +0.221 C 
BRANCH  21  22
ATOM     22  C   UNL     1      -1.063  -6.640  -2.375  0.00  0.00    +0.365 C 
ATOM     23  O   UNL     1      -0.240  -6.006  -2.992  0.00  0.00    -0.246 OA
ATOM     24  O   UNL     1      -1.399  -7.875  -2.779  0.00  0.00    -0.246 OA
ENDBRANCH  21  22
ENDBRANCH  16  21
ENDBRANCH   1  15
BRANCH   5  25
ATOM     25  C   UNL     1      -1.424   0.690  -1.572  0.00  0.00    +0.143 C 
BRANCH  25  26
ATOM     26  C   UNL     1      -0.783   0.568  -2.930  0.00  0.00    -0.030 A 
ATOM     27  C   UNL     1       0.412   1.216  -3.188  0.00  0.00    +0.006 A 
ATOM     28  C   UNL     1       1.007   1.103  -4.428  0.00  0.00    +0.011 A 
ATOM     29  C   UNL     1       0.396   0.343  -5.425  0.00  0.00    +0.012 A 
ATOM     30  C   UNL     1      -0.812  -0.303  -5.160  0.00  0.00    +0.011 A 
ATOM     31  C   UNL     1      -1.394  -0.187  -3.915  0.00  0.00    +0.006 A 
BRANCH  29  32
ATOM     32  C   UNL     1       1.025   0.224  -6.760  0.00  0.00    +0.094 C 
ATOM     33  N   UNL     1       0.452  -0.486  -7.690  0.00  0.00    -0.387 N 
ATOM     34  N   UNL     1       2.218   0.863  -7.019  0.00  0.00    -0.345 N 
ATOM     35  H   UNL     1       0.920  -0.575  -8.681  0.00  0.00    +0.157 HD
ATOM     36  H   UNL     1       2.686   0.774  -8.011  0.00  0.00    +0.144 HD
ATOM     37  H   UNL     1       2.703   1.462  -6.234  0.00  0.00    +0.144 HD
ATOM     38  H   UNL     1      -0.500  -0.996  -7.483  0.00  0.00    +0.157 HD
ENDBRANCH  29  32
ENDBRANCH  25  26
ENDBRANCH   5  25
TORSDOF 9
