REMARK  Name = ZINC41038045
REMARK  5 active torsions:
REMARK  status: ('A' for Active; 'I' for Inactive)
REMARK    1  A    between atoms: C_1  and  C_2
REMARK    2  A    between atoms: C_8  and  C_9
REMARK    3  A    between atoms: C_8  and  N_12
REMARK    4  A    between atoms: C_13  and  C_15
REMARK    5  A    between atoms: C_17  and  N_20
REMARK                            x       y       z     vdW  Elec       q    Type
REMARK                         _______ _______ _______ _____ _____    ______ ____
ROOT
ATOM      1  N   UNL     1       2.116  -0.004   1.231  0.00  0.00    -0.296 N 
ATOM      2  C   UNL     1       2.960  -0.324   2.232  0.00  0.00    +0.245 C 
ATOM      3  O   UNL     1       2.581  -1.033   3.144  0.00  0.00    -0.270 OA
ATOM      4  H   UNL     1       2.419   0.562   0.504  0.00  0.00    +0.150 HD
ENDROOT
BRANCH   1  11
ATOM      5  C   UNL     1      -0.019   1.526   0.010  0.00  0.00    +0.010 C 
ATOM      6  C   UNL     1       0.002  -0.004   0.002  0.00  0.00    +0.020 C 
ATOM      7  C   UNL     1       0.718  -0.497  -1.257  0.00  0.00    +0.006 C 
ATOM      8  C   UNL     1       0.739  -2.027  -1.265  0.00  0.00    +0.000 C 
ATOM      9  C   UNL     1       1.479  -2.534  -0.026  0.00  0.00    +0.003 C 
ATOM     10  C   UNL     1       0.763  -2.041   1.233  0.00  0.00    +0.038 C 
ATOM     11  C   UNL     1       0.742  -0.511   1.242  0.00  0.00    +0.139 C 
BRANCH  11  12
ATOM     12  C   UNL     1       0.037  -0.025   2.481  0.00  0.00    +0.379 C 
ATOM     13  O   UNL     1      -1.125  -0.336   2.684  0.00  0.00    -0.244 OA
ATOM     14  O   UNL     1       0.627   0.680   3.282  0.00  0.00    -0.244 OA
ENDBRANCH  11  12
ENDBRANCH   1  11
BRANCH   2  15
ATOM     15  C   UNL     1       4.341   0.186   2.222  0.00  0.00    +0.046 A 
ATOM     16  C   UNL     1       5.274  -0.140   3.273  0.00  0.00    +0.053 A 
ATOM     17  C   UNL     1       6.508   0.390   3.146  0.00  0.00    +0.164 A 
ATOM     18  S   UNL     1       6.397   1.311   1.627  0.00  0.00    -0.072 S 
ATOM     19  C   UNL     1       4.805   0.991   1.205  0.00  0.00    +0.060 A 
BRANCH  17  20
ATOM     20  N   UNL     1       7.670   0.242   4.050  0.00  0.00    +0.063 N 
ATOM     21  O   UNL     1       7.575  -0.427   5.053  0.00  0.00    -0.126 OA
ATOM     22  O   UNL     1       8.715   0.790   3.786  0.00  0.00    -0.126 OA
ENDBRANCH  17  20
ENDBRANCH   2  15
TORSDOF 4
