REMARK  Name = ZINC02863386
REMARK  7 active torsions:
REMARK  status: ('A' for Active; 'I' for Inactive)
REMARK    1  A    between atoms: C_11  and  C_13
REMARK    2  A    between atoms: C_13  and  S_14
REMARK    3  A    between atoms: S_14  and  C_15
REMARK    4  A    between atoms: C_16  and  C_34
REMARK    5  A    between atoms: C_17  and  S_20
REMARK    6  A    between atoms: S_20  and  C_21
REMARK    7  A    between atoms: C_21  and  C_22
REMARK                            x       y       z     vdW  Elec       q    Type
REMARK                         _______ _______ _______ _____ _____    ______ ____
ROOT
ATOM      1  C   UNL     1       7.688  -2.174   3.515  0.00  0.00    +0.125 A 
ATOM      2  C   UNL     1       8.659  -2.717   4.437  0.00  0.00    +0.106 A 
ATOM      3  C   UNL     1       9.574  -1.771   4.904  0.00  0.00    +0.084 A 
ATOM      4  S   UNL     1       9.098  -0.359   4.137  0.00  0.00    +0.020 S 
ATOM      5  N   UNL     1       7.796  -0.900   3.243  0.00  0.00    -0.202 NA
ENDROOT
BRANCH   2   6
ATOM      6  C   UNL     1       8.682  -4.093   4.833  0.00  0.00    +0.104 C 
ATOM      7  N   UNL     1       8.699  -5.185   5.147  0.00  0.00    -0.191 NA
ENDBRANCH   2   6
BRANCH   1   8
ATOM      8  S   UNL     1       6.431  -3.175   2.791  0.00  0.00    -0.095 S 
BRANCH   8   9
ATOM      9  C   UNL     1       5.510  -2.026   1.732  0.00  0.00    +0.171 C 
BRANCH   9  20
ATOM     10  C   UNL     1      -0.017   1.375   0.010  0.00  0.00    +0.000 A 
ATOM     11  C   UNL     1       1.173   2.079   0.002  0.00  0.00    +0.000 A 
ATOM     12  C   UNL     1       2.372   1.396  -0.019  0.00  0.00    +0.005 A 
ATOM     13  C   UNL     1       2.392   0.008  -0.029  0.00  0.00    -0.027 A 
ATOM     14  C   UNL     1       1.208  -0.695  -0.011  0.00  0.00    -0.041 A 
ATOM     15  C   UNL     1       0.002  -0.004   0.002  0.00  0.00    +0.004 A 
ATOM     16  C   UNL     1       1.151  -2.200   0.010  0.00  0.00    +0.054 C 
ATOM     17  C   UNL     1       2.465  -2.801  -0.485  0.00  0.00    +0.113 C 
ATOM     18  N   UNL     1       3.568  -2.109   0.202  0.00  0.00    -0.296 N 
ATOM     19  C   UNL     1       3.735  -0.676  -0.066  0.00  0.00    +0.143 C 
ATOM     20  C   UNL     1       4.391  -2.765   1.044  0.00  0.00    +0.226 C 
ATOM     21  O   UNL     1       4.230  -3.950   1.248  0.00  0.00    -0.275 OA
ENDBRANCH   9  20
ENDBRANCH   8   9
ENDBRANCH   1   8
BRANCH   3  22
ATOM     22  S   UNL     1      10.909  -2.006   6.030  0.00  0.00    -0.106 S 
BRANCH  22  23
ATOM     23  C   UNL     1      11.658  -0.360   6.173  0.00  0.00    +0.170 C 
BRANCH  23  24
ATOM     24  C   UNL     1      12.828  -0.421   7.120  0.00  0.00    +0.226 C 
ATOM     25  O   UNL     1      13.127  -1.471   7.648  0.00  0.00    -0.275 OA
ATOM     26  N   UNL     1      13.542   0.692   7.382  0.00  0.00    -0.296 N 
ATOM     27  C   UNL     1      14.694   0.665   8.298  0.00  0.00    +0.113 C 
ATOM     28  C   UNL     1      15.945   1.002   7.489  0.00  0.00    +0.054 C 
ATOM     29  C   UNL     1      15.715   2.214   6.625  0.00  0.00    -0.041 A 
ATOM     30  C   UNL     1      16.833   2.900   6.167  0.00  0.00    +0.004 A 
ATOM     31  C   UNL     1      16.693   4.013   5.364  0.00  0.00    +0.000 A 
ATOM     32  C   UNL     1      15.431   4.451   5.010  0.00  0.00    +0.000 A 
ATOM     33  C   UNL     1      14.319   3.773   5.466  0.00  0.00    +0.005 A 
ATOM     34  C   UNL     1      14.458   2.657   6.279  0.00  0.00    -0.027 A 
ATOM     35  C   UNL     1      13.206   1.977   6.760  0.00  0.00    +0.143 C 
ENDBRANCH  23  24
ENDBRANCH  22  23
ENDBRANCH   3  22
TORSDOF 7
