REMARK  Name = ZINC02421702
REMARK  11 active torsions:
REMARK  status: ('A' for Active; 'I' for Inactive)
REMARK    1  A    between atoms: C_1  and  C_2
REMARK    2  A    between atoms: C_6  and  C_36
REMARK    3  A    between atoms: C_7  and  O_8
REMARK    4  A    between atoms: O_8  and  C_9
REMARK    5  A    between atoms: C_9  and  C_10
REMARK    6  A    between atoms: N_12  and  N_13
REMARK    7  A    between atoms: N_21  and  C_24
REMARK    8  A    between atoms: C_24  and  N_72
REMARK    9  A    between atoms: C_26  and  C_35
REMARK   10  A    between atoms: C_31  and  C_33
REMARK   11  A    between atoms: C_31  and  C_34
REMARK                            x       y       z     vdW  Elec       q    Type
REMARK                         _______ _______ _______ _____ _____    ______ ____
ROOT
ATOM      1  N   UNL     1      -1.068   2.257   0.020  0.00  0.00    -0.174 NA
ATOM      2  C   UNL     1      -0.018   1.473   0.010  0.00  0.00    +0.153 C 
ATOM      3  C   UNL     1       1.408   1.875  -0.001  0.00  0.00    +0.028 A 
ATOM      4  C   UNL     1       2.050   3.108  -0.001  0.00  0.00    +0.012 A 
ATOM      5  C   UNL     1       3.429   3.163  -0.013  0.00  0.00    +0.001 A 
ATOM      6  C   UNL     1       4.169   1.992  -0.027  0.00  0.00    +0.002 A 
ATOM      7  C   UNL     1       3.542   0.763  -0.028  0.00  0.00    +0.024 A 
ATOM      8  C   UNL     1       2.153   0.689  -0.015  0.00  0.00    +0.044 A 
ATOM      9  N   UNL     1       1.286  -0.399  -0.012  0.00  0.00    -0.282 N 
ATOM     10  C   UNL     1       0.002  -0.004   0.002  0.00  0.00    +0.270 C 
ATOM     11  O   UNL     1      -0.972  -0.734   0.007  0.00  0.00    -0.268 OA
ENDROOT
BRANCH   1  14
ATOM     12  C   UNL     1      -3.435   2.510   0.033  0.00  0.00    +0.270 C 
ATOM     13  O   UNL     1      -3.293   3.714   0.039  0.00  0.00    -0.270 OA
ATOM     14  N   UNL     1      -2.355   1.704   0.024  0.00  0.00    -0.203 N 
ATOM     15  H   UNL     1      -2.469   0.741   0.019  0.00  0.00    +0.177 HD
BRANCH  12  16
ATOM     16  C   UNL     1      -4.820   1.915   0.037  0.00  0.00    +0.326 C 
BRANCH  16  17
ATOM     17  O   UNL     1      -5.789   2.965   0.048  0.00  0.00    -0.482 OA
BRANCH  17  24
ATOM     18  C   UNL     1      -7.059   2.636  -2.454  0.00  0.00    +0.047 C 
ATOM     19  C   UNL     1      -7.774   2.420  -1.145  0.00  0.00    -0.009 A 
ATOM     20  C   UNL     1      -9.102   2.039  -1.138  0.00  0.00    +0.007 A 
ATOM     21  C   UNL     1      -9.760   1.847   0.063  0.00  0.00    +0.001 A 
ATOM     22  C   UNL     1      -9.090   2.027   1.258  0.00  0.00    +0.007 A 
ATOM     23  C   UNL     1      -7.760   2.402   1.256  0.00  0.00    -0.009 A 
ATOM     24  C   UNL     1      -7.098   2.596   0.053  0.00  0.00    +0.127 A 
ATOM     25  C   UNL     1      -7.030   2.599   2.559  0.00  0.00    +0.047 C 
ENDBRANCH  17  24
ENDBRANCH  16  17
ENDBRANCH  12  16
ENDBRANCH   1  14
BRANCH   9  26
ATOM     26  C   UNL     1       1.719  -1.799  -0.024  0.00  0.00    +0.039 C 
BRANCH  26  37
ATOM     27  C   UNL     1       0.574  -2.599  -2.039  0.00  0.00    -0.070 C 
ATOM     28  C   UNL     1       0.847  -3.857  -2.896  0.00  0.00    -0.048 C 
ATOM     29  C   UNL     1       2.394  -3.883  -3.030  0.00  0.00    -0.011 C 
ATOM     30  C   UNL     1       2.780  -3.373  -1.612  0.00  0.00    -0.065 C 
ATOM     31  C   UNL     1       2.535  -4.514  -0.639  0.00  0.00    -0.009 C 
ATOM     32  C   UNL     1       1.244  -5.284  -0.804  0.00  0.00    -0.036 C 
ATOM     33  C   UNL     1       0.451  -5.086  -2.079  0.00  0.00    +0.011 C 
ATOM     34  C   UNL     1       0.327  -4.991   0.401  0.00  0.00    +0.011 C 
ATOM     35  C   UNL     1       1.595  -6.791  -0.715  0.00  0.00    +0.011 C 
ATOM     36  C   UNL     1       0.142  -3.797  -4.260  0.00  0.00    +0.009 C 
ATOM     37  N   UNL     1       1.862  -2.222  -1.458  0.00  0.00    +0.393 N 
ATOM     38  H   UNL     1       2.242  -1.427  -1.985  0.00  0.00    -0.079 HD
ENDBRANCH  26  37
ENDBRANCH   9  26
TORSDOF 6
