REMARK  Name = ZINC00748414
REMARK  13 active torsions:
REMARK  status: ('A' for Active; 'I' for Inactive)
REMARK    1  A    between atoms: C_1  and  C_2
REMARK    2  A    between atoms: C_7  and  C_8
REMARK    3  A    between atoms: C_8  and  S_9
REMARK    4  A    between atoms: S_9  and  C_10
REMARK    5  A    between atoms: C_13  and  C_24
REMARK    6  A    between atoms: N_14  and  C_15
REMARK    7  A    between atoms: C_18  and  N_21
REMARK    8  A    between atoms: C_24  and  N_25
REMARK    9  A    between atoms: C_26  and  C_28
REMARK   10  A    between atoms: C_28  and  C_29
REMARK   11  A    between atoms: C_29  and  C_30
REMARK   12  A    between atoms: C_29  and  C_31
REMARK   13  A    between atoms: C_29  and  C_32
REMARK                            x       y       z     vdW  Elec       q    Type
REMARK                         _______ _______ _______ _____ _____    ______ ____
ROOT
ATOM      1  C   UNL     1      -2.047   1.735   2.970  0.00  0.00    +0.196 A 
ATOM      2  N   UNL     1      -1.265   2.788   2.899  0.00  0.00    -0.122 NA
ATOM      3  N   UNL     1      -0.481   2.683   1.886  0.00  0.00    -0.132 NA
ATOM      4  C   UNL     1      -0.718   1.572   1.248  0.00  0.00    +0.156 A 
ATOM      5  N   UNL     1      -1.723   0.924   1.917  0.00  0.00    -0.273 N 
ENDROOT
BRANCH   5   6
ATOM      6  C   UNL     1      -2.299  -0.312   1.591  0.00  0.00    +0.050 A 
ATOM      7  C   UNL     1      -3.019  -0.454   0.412  0.00  0.00    +0.028 A 
ATOM      8  C   UNL     1      -3.581  -1.674   0.091  0.00  0.00    +0.035 A 
ATOM      9  C   UNL     1      -3.436  -2.751   0.947  0.00  0.00    +0.126 A 
ATOM     10  C   UNL     1      -2.724  -2.611   2.124  0.00  0.00    +0.035 A 
ATOM     11  C   UNL     1      -2.155  -1.394   2.448  0.00  0.00    +0.028 A 
BRANCH   9  12
ATOM     12  N   UNL     1      -4.045  -4.055   0.603  0.00  0.00    +0.056 N 
ATOM     13  O   UNL     1      -3.919  -5.004   1.356  0.00  0.00    -0.126 OA
ATOM     14  O   UNL     1      -4.673  -4.180  -0.433  0.00  0.00    -0.126 OA
ENDBRANCH   9  12
ENDBRANCH   5   6
BRANCH   1  15
ATOM     15  S   UNL     1      -3.280   1.426   4.190  0.00  0.00    -0.081 S 
BRANCH  15  16
ATOM     16  C   UNL     1      -3.103   2.917   5.201  0.00  0.00    +0.112 C 
BRANCH  16  23
ATOM     17  C   UNL     1      -2.349   1.708   7.714  0.00  0.00    +0.044 C 
ATOM     18  C   UNL     1      -3.727   2.293   7.543  0.00  0.00    -0.046 A 
ATOM     19  C   UNL     1      -4.630   2.252   8.588  0.00  0.00    +0.003 A 
ATOM     20  C   UNL     1      -5.894   2.788   8.431  0.00  0.00    +0.000 A 
ATOM     21  C   UNL     1      -6.255   3.367   7.229  0.00  0.00    +0.000 A 
ATOM     22  C   UNL     1      -5.350   3.413   6.185  0.00  0.00    +0.005 A 
ATOM     23  C   UNL     1      -4.088   2.872   6.340  0.00  0.00    -0.034 A 
ENDBRANCH  16  23
ENDBRANCH  15  16
ENDBRANCH   1  15
BRANCH   4  24
ATOM     24  C   UNL     1      -0.013   1.086   0.008  0.00  0.00    +0.181 C 
BRANCH  24  25
ATOM     25  N   UNL     1      -0.721   1.571  -1.179  0.00  0.00    -0.308 N 
ATOM     26  C   UNL     1      -0.268   1.258  -2.409  0.00  0.00    +0.214 C 
ATOM     27  O   UNL     1       0.726   0.575  -2.534  0.00  0.00    -0.276 OA
ATOM     28  H   UNL     1      -1.623   2.191  -1.066  0.00  0.00    +0.149 HD
BRANCH  26  29
ATOM     29  C   UNL     1      -0.997   1.758  -3.630  0.00  0.00    +0.102 C 
BRANCH  29  30
ATOM     30  C   UNL     1      -0.281   1.264  -4.889  0.00  0.00    -0.029 C 
ATOM     31  C   UNL     1      -0.260  -0.266  -4.897  0.00  0.00    +0.011 C 
ATOM     32  C   UNL     1      -1.021   1.771  -6.128  0.00  0.00    +0.011 C 
ATOM     33  C   UNL     1       1.155   1.794  -4.900  0.00  0.00    +0.011 C 
ENDBRANCH  29  30
ENDBRANCH  26  29
ENDBRANCH  24  25
ENDBRANCH   4  24
TORSDOF 9
