REMARK  Name = ZINC59577918
REMARK  13 active torsions:
REMARK  status: ('A' for Active; 'I' for Inactive)
REMARK    1  A    between atoms: C_1  and  C_2
REMARK    2  A    between atoms: C_5  and  N_29
REMARK    3  A    between atoms: C_7  and  N_8
REMARK    4  A    between atoms: C_9  and  C_11
REMARK    5  A    between atoms: C_11  and  N_12
REMARK    6  A    between atoms: N_12  and  C_13
REMARK    7  A    between atoms: N_12  and  C_14
REMARK    8  A    between atoms: C_14  and  C_15
REMARK    9  A    between atoms: C_17  and  C_28
REMARK   10  A    between atoms: C_18  and  O_22
REMARK   11  A    between atoms: C_19  and  C_21
REMARK   12  A    between atoms: O_22  and  C_23
REMARK   13  A    between atoms: C_23  and  C_24
REMARK                            x       y       z     vdW  Elec       q    Type
REMARK                         _______ _______ _______ _____ _____    ______ ____
ROOT
ATOM      1  N   UNL     1      -0.242  -0.908   5.991  0.00  0.00    +0.386 N 
ATOM      2  C   UNL     1       1.020  -1.654   6.078  0.00  0.00    -0.095 C 
ATOM      3  H   UNL     1      -1.003  -1.551   5.830  0.00  0.00    -0.081 HD
ENDROOT
BRANCH   1   4
ATOM      4  C   UNL     1      -0.169   0.052   4.882  0.00  0.00    +0.019 C 
BRANCH   4   6
ATOM      5  N   UNL     1       0.025  -0.015   2.417  0.00  0.00    -0.287 N 
ATOM      6  C   UNL     1      -0.057  -0.694   3.578  0.00  0.00    +0.201 C 
ATOM      7  O   UNL     1      -0.040  -1.907   3.573  0.00  0.00    -0.278 OA
ATOM      8  H   UNL     1       0.077   0.954   2.425  0.00  0.00    +0.155 HD
BRANCH   5  15
ATOM      9  C   UNL     1      -1.265   1.183   0.181  0.00  0.00    +0.045 C 
ATOM     10  C   UNL     1      -0.584  -0.158   0.084  0.00  0.00    -0.029 A 
ATOM     11  C   UNL     1      -0.569  -0.841  -1.117  0.00  0.00    +0.007 A 
ATOM     12  C   UNL     1       0.056  -2.071  -1.206  0.00  0.00    +0.033 A 
ATOM     13  C   UNL     1       0.667  -2.622  -0.095  0.00  0.00    +0.128 A 
ATOM     14  C   UNL     1       0.656  -1.944   1.109  0.00  0.00    +0.056 A 
ATOM     15  C   UNL     1       0.034  -0.706   1.201  0.00  0.00    +0.038 A 
BRANCH  13  16
ATOM     16  N   UNL     1       1.334  -3.940  -0.195  0.00  0.00    +0.056 N 
ATOM     17  O   UNL     1       1.344  -4.534  -1.248  0.00  0.00    -0.126 OA
ATOM     18  O   UNL     1       1.868  -4.422   0.776  0.00  0.00    -0.126 OA
ENDBRANCH  13  16
ENDBRANCH   5  15
ENDBRANCH   4   6
ENDBRANCH   1   4
BRANCH   1  19
ATOM     19  C   UNL     1      -0.471  -0.186   7.250  0.00  0.00    -0.043 C 
BRANCH  19  20
ATOM     20  C   UNL     1      -0.669  -1.176   8.368  0.00  0.00    -0.063 A 
ATOM     21  C   UNL     1      -1.938  -1.638   8.665  0.00  0.00    +0.008 A 
ATOM     22  C   UNL     1      -2.123  -2.545   9.690  0.00  0.00    -0.008 A 
ATOM     23  C   UNL     1      -1.033  -2.993  10.422  0.00  0.00    +0.127 A 
ATOM     24  C   UNL     1       0.240  -2.529  10.123  0.00  0.00    -0.008 A 
ATOM     25  C   UNL     1       0.419  -1.625   9.093  0.00  0.00    +0.008 A 
ATOM     26  C   UNL     1       1.426  -3.013  10.916  0.00  0.00    +0.047 C 
ATOM     27  C   UNL     1      -3.506  -3.047  10.013  0.00  0.00    +0.047 C 
BRANCH  23  28
ATOM     28  O   UNL     1      -1.211  -3.885  11.432  0.00  0.00    -0.483 OA
BRANCH  28  29
ATOM     29  C   UNL     1      -1.140  -5.272  11.092  0.00  0.00    +0.342 C 
BRANCH  29  30
ATOM     30  C   UNL     1      -1.364  -6.116  12.348  0.00  0.00    +0.424 C 
ATOM     31  F   UNL     1      -2.625  -5.832  12.883  0.00  0.00    -0.167 F 
ATOM     32  F   UNL     1      -1.294  -7.473  12.016  0.00  0.00    -0.167 F 
ATOM     33  F   UNL     1      -0.378  -5.816  13.294  0.00  0.00    -0.167 F 
ENDBRANCH  29  30
ENDBRANCH  28  29
ENDBRANCH  23  28
ENDBRANCH  19  20
ENDBRANCH   1  19
TORSDOF 9
