REMARK  Name = ZINC67385379
REMARK  11 active torsions:
REMARK  status: ('A' for Active; 'I' for Inactive)
REMARK    1  A    between atoms: C_1  and  C_2
REMARK    2  A    between atoms: C_2  and  C_3
REMARK    3  A    between atoms: C_2  and  C_4
REMARK    4  A    between atoms: C_4  and  C_6
REMARK    5  A    between atoms: C_4  and  N_14
REMARK    6  A    between atoms: C_9  and  O_12
REMARK    7  A    between atoms: O_12  and  C_13
REMARK    8  A    between atoms: C_24  and  C_26
REMARK    9  A    between atoms: C_26  and  C_27
REMARK   10  A    between atoms: C_26  and  C_28
REMARK   11  A    between atoms: C_26  and  C_29
REMARK                            x       y       z     vdW  Elec       q    Type
REMARK                         _______ _______ _______ _____ _____    ______ ____
ROOT
ATOM      1  N   UNL     1      -3.180  -2.706   0.422  0.00  0.00    -0.292 N 
ATOM      2  C   UNL     1      -2.957  -3.450   1.524  0.00  0.00    +0.303 C 
ATOM      3  O   UNL     1      -3.119  -2.967   2.627  0.00  0.00    -0.253 OA
ATOM      4  N   UNL     1      -2.555  -4.731   1.401  0.00  0.00    -0.284 N 
ATOM      5  C   UNL     1      -2.317  -5.546   2.541  0.00  0.00    +0.111 C 
ATOM      6  C   UNL     1      -0.896  -5.382   3.173  0.00  0.00    +0.038 C 
ATOM      7  C   UNL     1       0.118  -5.202   1.997  0.00  0.00    +0.109 C 
ATOM      8  N   UNL     1      -0.158  -5.995   0.850  0.00  0.00    -0.299 N 
ATOM      9  C   UNL     1      -0.918  -5.351  -0.251  0.00  0.00    +0.126 C 
ATOM     10  C   UNL     1      -2.347  -5.355   0.069  0.00  0.00    +0.128 C 
ATOM     11  C   UNL     1       0.253  -7.276   0.766  0.00  0.00    +0.221 C 
ATOM     12  O   UNL     1       0.909  -7.763   1.662  0.00  0.00    -0.275 OA
ATOM     13  H   UNL     1      -3.051  -3.092  -0.458  0.00  0.00    +0.151 HD
ENDROOT
BRANCH  11  14
ATOM     14  C   UNL     1      -0.103  -8.104  -0.443  0.00  0.00    +0.039 C 
ATOM     15  C   UNL     1       0.283  -9.563  -0.193  0.00  0.00    +0.020 C 
ATOM     16  C   UNL     1      -1.609  -8.011  -0.699  0.00  0.00    +0.020 C 
ATOM     17  C   UNL     1       0.655  -7.577  -1.663  0.00  0.00    +0.020 C 
ENDBRANCH  11  14
BRANCH   1  18
ATOM     18  C   UNL     1      -3.617  -1.314   0.555  0.00  0.00    +0.107 C 
BRANCH  18  19
ATOM     19  C   UNL     1      -4.364  -0.901  -0.687  0.00  0.00    -0.027 A 
ATOM     20  C   UNL     1      -3.920  -1.315  -1.929  0.00  0.00    +0.009 A 
ATOM     21  C   UNL     1      -4.603  -0.938  -3.069  0.00  0.00    +0.046 A 
ATOM     22  C   UNL     1      -5.735  -0.143  -2.967  0.00  0.00    +0.120 A 
ATOM     23  C   UNL     1      -6.179   0.270  -1.720  0.00  0.00    +0.046 A 
ATOM     24  C   UNL     1      -5.496  -0.114  -0.582  0.00  0.00    +0.009 A 
BRANCH  22  25
ATOM     25  O   UNL     1      -6.408   0.229  -4.087  0.00  0.00    -0.495 OA
ATOM     26  C   UNL     1      -7.566   1.048  -3.906  0.00  0.00    +0.277 C 
ENDBRANCH  22  25
ENDBRANCH  18  19
BRANCH  18  28
ATOM     27  C   UNL     1      -2.853   1.042   0.878  0.00  0.00    +0.009 C 
ATOM     28  C   UNL     1      -2.396  -0.411   0.740  0.00  0.00    +0.008 C 
ATOM     29  C   UNL     1      -1.638  -0.830   2.001  0.00  0.00    +0.009 C 
ENDBRANCH  18  28
ENDBRANCH   1  18
TORSDOF 5
