REMARK  Name = ZINC11788037
REMARK  9 active torsions:
REMARK  status: ('A' for Active; 'I' for Inactive)
REMARK    1  A    between atoms: C_1  and  N_2
REMARK    2  A    between atoms: N_2  and  C_3
REMARK    3  A    between atoms: C_3  and  C_5
REMARK    4  A    between atoms: C_3  and  C_14
REMARK    5  A    between atoms: C_5  and  C_6
REMARK    6  A    between atoms: C_19  and  C_20
REMARK    7  A    between atoms: C_19  and  N_61
REMARK    8  A    between atoms: C_25  and  O_26
REMARK    9  A    between atoms: C_28  and  C_30
REMARK                            x       y       z     vdW  Elec       q    Type
REMARK                         _______ _______ _______ _____ _____    ______ ____
ROOT
ATOM      1  C   UNL     1      -1.606   2.613   1.450  0.00  0.00    +0.083 C 
ENDROOT
BRANCH   1   2
ATOM      2  C   UNL     1      -2.644   3.735   1.385  0.00  0.00    +0.006 C 
ATOM      3  C   UNL     1      -2.163   4.822   0.421  0.00  0.00    -0.013 C 
ATOM      4  C   UNL     1      -3.175   5.970   0.408  0.00  0.00    -0.078 C 
ATOM      5  C   UNL     1      -3.822   5.503   2.696  0.00  0.00    -0.078 C 
ATOM      6  C   UNL     1      -2.828   4.342   2.779  0.00  0.00    -0.013 C 
ATOM      7  N   UNL     1      -3.288   6.527   1.772  0.00  0.00    +0.382 N 
ATOM      8  H   UNL     1      -2.356   6.812   2.094  0.00  0.00    -0.081 HD
BRANCH   7   9
ATOM      9  C   UNL     1      -4.175   7.709   1.763  0.00  0.00    -0.039 C 
BRANCH   9  10
ATOM     10  C   UNL     1      -3.501   8.814   0.991  0.00  0.00    -0.021 A 
ATOM     11  C   UNL     1      -2.835   9.820   1.664  0.00  0.00    +0.025 A 
ATOM     12  C   UNL     1      -2.216  10.835   0.956  0.00  0.00    +0.041 A 
ATOM     13  C   UNL     1      -2.264  10.845  -0.427  0.00  0.00    +0.023 A 
ATOM     14  C   UNL     1      -2.929   9.841  -1.103  0.00  0.00    +0.047 A 
ATOM     15  C   UNL     1      -3.545   8.819  -0.395  0.00  0.00    +0.118 A 
ATOM     16 CL   UNL     1      -1.379  12.098   1.804  0.00  0.00    -0.084 Cl
BRANCH  15  17
ATOM     17  O   UNL     1      -4.195   7.827  -1.059  0.00  0.00    -0.507 OA
ATOM     18  H   UNL     1      -5.129   8.012  -1.226  0.00  0.00    +0.292 HD
ENDBRANCH  15  17
ENDBRANCH   9  10
ENDBRANCH   7   9
ENDBRANCH   1   2
BRANCH   1  20
ATOM     19  C   UNL     1      -1.413   1.192   3.544  0.00  0.00    +0.132 C 
ATOM     20  N   UNL     1      -2.109   1.530   2.300  0.00  0.00    -0.294 N 
ATOM     21  C   UNL     1      -3.211   0.846   1.937  0.00  0.00    +0.282 C 
ATOM     22  O   UNL     1      -3.840   1.183   0.951  0.00  0.00    -0.267 OA
BRANCH  21  23
ATOM     23  C   UNL     1      -3.654  -0.305   2.731  0.00  0.00    +0.189 A 
ATOM     24  C   UNL     1      -4.689  -1.142   2.423  0.00  0.00    +0.054 A 
ATOM     25  C   UNL     1      -4.756  -2.095   3.451  0.00  0.00    +0.042 A 
ATOM     26  C   UNL     1      -3.773  -1.802   4.330  0.00  0.00    +0.196 A 
ATOM     27  O   UNL     1      -3.108  -0.726   3.890  0.00  0.00    -0.458 OA
ENDBRANCH  21  23
ENDBRANCH   1  20
BRANCH   1  28
ATOM     28  C   UNL     1      -1.346   2.076   0.041  0.00  0.00    +0.060 C 
BRANCH  28  29
ATOM     29  C   UNL     1      -0.269   1.023   0.095  0.00  0.00    -0.010 A 
ATOM     30  C   UNL     1      -0.612  -0.316   0.079  0.00  0.00    +0.009 A 
ATOM     31  C   UNL     1       0.375  -1.283   0.122  0.00  0.00    +0.039 A 
ATOM     32  C   UNL     1       1.707  -0.911   0.182  0.00  0.00    +0.126 A 
ATOM     33  C   UNL     1       2.051   0.429   0.199  0.00  0.00    +0.077 A 
ATOM     34  C   UNL     1       1.062   1.397   0.155  0.00  0.00    +0.129 A 
ATOM     35  F   UNL     1       1.397   2.706   0.171  0.00  0.00    -0.205 F 
ATOM     36  F   UNL     1       2.671  -1.857   0.225  0.00  0.00    -0.205 F 
ENDBRANCH  28  29
ENDBRANCH   1  28
TORSDOF 8
