REMARK  Name = ZINC17016239
REMARK  4 active torsions:
REMARK  status: ('A' for Active; 'I' for Inactive)
REMARK    1  A    between atoms: C_4  and  C_7
REMARK    2  A    between atoms: C_9  and  C_29
REMARK    3  A    between atoms: C_17  and  C_19
REMARK    4  A    between atoms: C_20  and  C_21
REMARK                            x       y       z     vdW  Elec       q    Type
REMARK                         _______ _______ _______ _____ _____    ______ ____
ROOT
ATOM      1  C   UNL     1       3.691  -0.679  -0.037  0.00  0.00    +0.055 C 
ATOM      2  C   UNL     1       3.681  -2.182  -0.051  0.00  0.00    +0.087 C 
ATOM      3  C   UNL     1       4.863  -2.736  -0.854  0.00  0.00    +0.147 C 
ATOM      4  N   UNL     1       6.050  -1.950  -0.515  0.00  0.00    -0.220 N 
ATOM      5  C   UNL     1       5.982  -0.636  -0.143  0.00  0.00    +0.251 A 
ATOM      6  N   UNL     1       7.207  -0.222   0.075  0.00  0.00    -0.176 NA
ATOM      7  C   UNL     1       8.064  -1.227  -0.136  0.00  0.00    +0.243 A 
ATOM      8  N   UNL     1       7.395  -2.303  -0.496  0.00  0.00    -0.131 NA
ATOM      9  N   UNL     1       9.452  -1.148   0.005  0.00  0.00    -0.250 N 
ATOM     10  C   UNL     1      10.026   0.012   0.381  0.00  0.00    +0.243 C 
ATOM     11  O   UNL     1       9.335   0.991   0.599  0.00  0.00    -0.270 OA
ATOM     12  N   UNL     1       4.795   0.018  -0.045  0.00  0.00    -0.215 NA
ATOM     13  H   UNL     1      10.002  -1.927  -0.169  0.00  0.00    +0.158 HD
ENDROOT
BRANCH   3  14
ATOM     14  C   UNL     1       4.577  -2.619  -2.329  0.00  0.00    -0.023 A 
ATOM     15  C   UNL     1       4.356  -1.377  -2.893  0.00  0.00    +0.007 A 
ATOM     16  C   UNL     1       4.093  -1.269  -4.246  0.00  0.00    +0.020 A 
ATOM     17  C   UNL     1       4.053  -2.404  -5.035  0.00  0.00    +0.041 A 
ATOM     18  C   UNL     1       4.275  -3.647  -4.470  0.00  0.00    +0.020 A 
ATOM     19  C   UNL     1       4.543  -3.753  -3.118  0.00  0.00    +0.007 A 
ATOM     20 CL   UNL     1       3.723  -2.269  -6.734  0.00  0.00    -0.084 Cl
ENDBRANCH   3  14
BRANCH   1  24
ATOM     21  C   UNL     1      -0.017   1.380   0.010  0.00  0.00    +0.000 A 
ATOM     22  C   UNL     1       1.168   2.095   0.002  0.00  0.00    +0.001 A 
ATOM     23  C   UNL     1       2.377   1.433  -0.013  0.00  0.00    +0.010 A 
ATOM     24  C   UNL     1       2.405   0.035  -0.021  0.00  0.00    -0.004 A 
ATOM     25  C   UNL     1       1.203  -0.681  -0.013  0.00  0.00    +0.010 A 
ATOM     26  C   UNL     1       0.002  -0.004   0.002  0.00  0.00    +0.001 A 
ENDBRANCH   1  24
BRANCH  10  27
ATOM     27  C   UNL     1      11.480   0.095   0.528  0.00  0.00    +0.068 C 
ATOM     28  C   UNL     1      12.054   1.256   0.905  0.00  0.00    +0.013 C 
BRANCH  28  29
ATOM     29  C   UNL     1      13.516   1.340   1.053  0.00  0.00    -0.025 A 
ATOM     30  C   UNL     1      14.313   0.219   0.798  0.00  0.00    +0.009 A 
ATOM     31  C   UNL     1      15.682   0.304   0.938  0.00  0.00    +0.020 A 
ATOM     32  C   UNL     1      16.268   1.497   1.331  0.00  0.00    +0.041 A 
ATOM     33  C   UNL     1      15.484   2.611   1.586  0.00  0.00    +0.020 A 
ATOM     34  C   UNL     1      14.115   2.542   1.443  0.00  0.00    +0.009 A 
ATOM     35 CL   UNL     1      17.992   1.595   1.506  0.00  0.00    -0.084 Cl
ENDBRANCH  28  29
ENDBRANCH  10  27
TORSDOF 4
