REMARK  Name = ZINC65011010
REMARK  10 active torsions:
REMARK  status: ('A' for Active; 'I' for Inactive)
REMARK    1  A    between atoms: C_1  and  C_2
REMARK    2  A    between atoms: C_5  and  O_33
REMARK    3  A    between atoms: C_6  and  N_8
REMARK    4  A    between atoms: N_8  and  S_9
REMARK    5  A    between atoms: S_9  and  C_12
REMARK    6  A    between atoms: C_13  and  C_32
REMARK    7  A    between atoms: C_14  and  C_31
REMARK    8  A    between atoms: C_19  and  C_22
REMARK    9  A    between atoms: C_20  and  C_21
REMARK   10  A    between atoms: O_33  and  C_34
REMARK                            x       y       z     vdW  Elec       q    Type
REMARK                         _______ _______ _______ _____ _____    ______ ____
ROOT
ATOM      1  C   UNL     1      -2.297  -2.373   3.360  0.00  0.00    +0.154 A 
ATOM      2  C   UNL     1      -2.808  -1.374   2.560  0.00  0.00    -0.017 A 
ATOM      3  C   UNL     1      -4.112  -1.441   2.088  0.00  0.00    -0.045 A 
ATOM      4  C   UNL     1      -4.912  -2.501   2.410  0.00  0.00    +0.015 A 
ATOM      5  C   UNL     1      -4.413  -3.524   3.219  0.00  0.00    +0.026 A 
ATOM      6  C   UNL     1      -3.090  -3.464   3.696  0.00  0.00    +0.163 A 
ATOM      7  O   UNL     1      -2.873  -4.569   4.436  0.00  0.00    -0.448 OA
ATOM      8  C   UNL     1      -3.974  -5.350   4.468  0.00  0.00    +0.194 A 
ATOM      9  C   UNL     1      -4.969  -4.769   3.749  0.00  0.00    +0.008 A 
ATOM     10  C   UNL     1      -6.359  -5.306   3.527  0.00  0.00    +0.048 C 
ATOM     11  C   UNL     1      -4.649  -0.336   1.215  0.00  0.00    +0.044 C 
ATOM     12  C   UNL     1      -1.942  -0.197   2.193  0.00  0.00    +0.046 C 
ENDROOT
BRANCH   8  13
ATOM     13  C   UNL     1      -4.083  -6.629   5.183  0.00  0.00    +0.282 C 
ATOM     14  O   UNL     1      -5.102  -7.289   5.097  0.00  0.00    -0.267 OA
ATOM     15  N   UNL     1      -3.055  -7.071   5.934  0.00  0.00    -0.295 N 
ATOM     16  C   UNL     1      -1.903  -6.215   6.105  0.00  0.00    +0.108 C 
ATOM     17  C   UNL     1      -0.884  -6.482   4.970  0.00  0.00    +0.019 C 
ATOM     18  C   UNL     1      -0.245  -7.794   5.156  0.00  0.00    +0.002 C 
ATOM     19  C   UNL     1      -1.206  -8.976   5.086  0.00  0.00    +0.002 C 
ATOM     20  C   UNL     1      -1.831  -9.193   6.442  0.00  0.00    +0.019 C 
ATOM     21  C   UNL     1      -3.154  -8.408   6.552  0.00  0.00    +0.108 C 
ENDBRANCH   8  13
BRANCH   1  22
ATOM     22  S   UNL     1      -0.640  -2.271   3.950  0.00  0.00    +0.076 S 
ATOM     23  O   UNL     1       0.161  -1.875   2.845  0.00  0.00    -0.150 OA
ATOM     24  O   UNL     1      -0.394  -3.465   4.680  0.00  0.00    -0.150 OA
BRANCH  22  25
ATOM     25  N   UNL     1      -0.585  -1.028   5.043  0.00  0.00    -0.213 N 
ATOM     26  H   UNL     1      -0.004  -0.268   4.885  0.00  0.00    +0.174 HD
BRANCH  25  32
ATOM     27  C   UNL     1      -2.665  -3.646   8.647  0.00  0.00    +0.044 C 
ATOM     28  C   UNL     1      -2.404  -2.329   7.963  0.00  0.00    -0.048 A 
ATOM     29  C   UNL     1      -2.950  -1.166   8.475  0.00  0.00    +0.007 A 
ATOM     30  C   UNL     1      -2.714   0.046   7.851  0.00  0.00    +0.048 A 
ATOM     31  C   UNL     1      -1.929   0.097   6.711  0.00  0.00    +0.142 A 
ATOM     32  C   UNL     1      -1.379  -1.074   6.195  0.00  0.00    +0.090 A 
ATOM     33  C   UNL     1      -1.616  -2.285   6.829  0.00  0.00    +0.031 A 
BRANCH  31  34
ATOM     34  O   UNL     1      -1.697   1.288   6.097  0.00  0.00    -0.493 OA
ATOM     35  C   UNL     1      -2.294   2.447   6.682  0.00  0.00    +0.277 C 
ENDBRANCH  31  34
ENDBRANCH  25  32
ENDBRANCH  22  25
ENDBRANCH   1  22
TORSDOF 5
