REMARK  Name = ZINC37425852
REMARK  13 active torsions:
REMARK  status: ('A' for Active; 'I' for Inactive)
REMARK    1  A    between atoms: C_1  and  C_2
REMARK    2  A    between atoms: C_2  and  C_3
REMARK    3  A    between atoms: C_3  and  C_5
REMARK    4  A    between atoms: C_3  and  N_6
REMARK    5  A    between atoms: C_7  and  C_9
REMARK    6  A    between atoms: C_9  and  N_10
REMARK    7  A    between atoms: C_13  and  C_23
REMARK    8  A    between atoms: N_15  and  C_16
REMARK    9  A    between atoms: C_21  and  C_22
REMARK   10  A    between atoms: C_23  and  C_24
REMARK   11  A    between atoms: C_23  and  C_25
REMARK   12  A    between atoms: C_23  and  C_26
REMARK   13  A    between atoms: C_27  and  C_33
REMARK                            x       y       z     vdW  Elec       q    Type
REMARK                         _______ _______ _______ _____ _____    ______ ____
ROOT
ATOM      1  N   UNL     1      -3.878  -2.921  -2.017  0.00  0.00    -0.246 N 
ATOM      2  C   UNL     1      -5.213  -3.060  -2.425  0.00  0.00    +0.136 A 
ATOM      3  C   UNL     1      -6.270  -2.981  -1.584  0.00  0.00    +0.034 A 
ATOM      4  C   UNL     1      -7.432  -3.160  -2.337  0.00  0.00    +0.075 A 
ATOM      5  N   UNL     1      -7.085  -3.343  -3.589  0.00  0.00    -0.169 NA
ATOM      6  N   UNL     1      -5.685  -3.287  -3.674  0.00  0.00    -0.217 N 
ATOM      7  C   UNL     1      -6.172  -2.747  -0.099  0.00  0.00    +0.112 C 
ATOM      8  S   UNL     1      -5.721  -0.998   0.187  0.00  0.00    -0.138 S 
ATOM      9  C   UNL     1      -4.480  -0.711  -1.119  0.00  0.00    +0.166 C 
ATOM     10  C   UNL     1      -3.556  -1.887  -1.233  0.00  0.00    +0.231 C 
ATOM     11  O   UNL     1      -2.512  -1.900  -0.616  0.00  0.00    -0.274 OA
ENDROOT
BRANCH   6  12
ATOM     12  C   UNL     1      -4.917  -3.438  -4.837  0.00  0.00    +0.070 A 
ATOM     13  C   UNL     1      -3.807  -2.631  -5.048  0.00  0.00    +0.028 A 
ATOM     14  C   UNL     1      -3.052  -2.783  -6.194  0.00  0.00    +0.002 A 
ATOM     15  C   UNL     1      -3.402  -3.737  -7.133  0.00  0.00    +0.000 A 
ATOM     16  C   UNL     1      -4.507  -4.542  -6.926  0.00  0.00    +0.005 A 
ATOM     17  C   UNL     1      -5.262  -4.399  -5.778  0.00  0.00    -0.025 A 
ATOM     18  C   UNL     1      -6.462  -5.281  -5.550  0.00  0.00    +0.046 C 
ENDBRANCH   6  12
BRANCH   7  19
ATOM     19  C   UNL     1      -7.500  -3.043   0.549  0.00  0.00    -0.030 A 
ATOM     20  C   UNL     1      -7.734  -4.285   1.109  0.00  0.00    +0.008 A 
ATOM     21  C   UNL     1      -8.951  -4.558   1.703  0.00  0.00    +0.038 A 
ATOM     22  C   UNL     1      -9.937  -3.587   1.738  0.00  0.00    +0.123 A 
ATOM     23  C   UNL     1      -9.702  -2.343   1.177  0.00  0.00    +0.038 A 
ATOM     24  C   UNL     1      -8.482  -2.071   0.588  0.00  0.00    +0.008 A 
ATOM     25  F   UNL     1     -11.128  -3.852   2.318  0.00  0.00    -0.205 F 
ENDBRANCH   7  19
BRANCH   4  26
ATOM     26  C   UNL     1      -8.841  -3.145  -1.804  0.00  0.00    +0.007 C 
ATOM     27  C   UNL     1      -9.182  -1.740  -1.303  0.00  0.00    +0.017 C 
ATOM     28  C   UNL     1      -9.812  -3.538  -2.920  0.00  0.00    +0.017 C 
ATOM     29  C   UNL     1      -8.960  -4.141  -0.650  0.00  0.00    +0.017 C 
ENDBRANCH   4  26
BRANCH   1  30
ATOM     30  C   UNL     1      -2.862  -3.889  -2.436  0.00  0.00    +0.210 C 
BRANCH  30  32
ATOM     31  N   UNL     1      -1.815  -5.943  -1.540  0.00  0.00    -0.311 N 
ATOM     32  C   UNL     1      -2.702  -4.942  -1.370  0.00  0.00    +0.231 C 
ATOM     33  O   UNL     1      -3.371  -4.890  -0.360  0.00  0.00    -0.274 OA
ATOM     34  H   UNL     1      -1.280  -5.986  -2.348  0.00  0.00    +0.149 HD
BRANCH  31  35
ATOM     35  C   UNL     1      -1.660  -6.967  -0.503  0.00  0.00    +0.070 C 
ATOM     36  C   UNL     1      -2.711  -8.061  -0.706  0.00  0.00    +0.028 C 
BRANCH  35  38
ATOM     37  C   UNL     1       0.786  -6.513  -0.273  0.00  0.00    +0.005 C 
ATOM     38  C   UNL     1      -0.261  -7.580  -0.598  0.00  0.00    +0.018 C 
ENDBRANCH  35  38
ENDBRANCH  31  35
ENDBRANCH  30  32
ENDBRANCH   1  30
TORSDOF 7
