REMARK  Name = ZINC58852881
REMARK  10 active torsions:
REMARK  status: ('A' for Active; 'I' for Inactive)
REMARK    1  A    between atoms: C_1  and  C_2
REMARK    2  A    between atoms: C_4  and  C_15
REMARK    3  A    between atoms: C_5  and  C_14
REMARK    4  A    between atoms: N_6  and  C_7
REMARK    5  A    between atoms: N_16  and  N_17
REMARK    6  A    between atoms: C_18  and  C_20
REMARK    7  A    between atoms: C_20  and  N_21
REMARK    8  A    between atoms: N_21  and  C_22
REMARK    9  A    between atoms: N_21  and  S_28
REMARK   10  A    between atoms: S_28  and  C_31
REMARK                            x       y       z     vdW  Elec       q    Type
REMARK                         _______ _______ _______ _____ _____    ______ ____
ROOT
ATOM      1  N   UNL     1       1.387  -6.643   1.145  0.00  0.00    -0.206 N 
ATOM      2  C   UNL     1       0.990  -7.829   0.642  0.00  0.00    +0.251 C 
ATOM      3  O   UNL     1       1.007  -8.820   1.341  0.00  0.00    -0.272 OA
ATOM      4  H   UNL     1       1.374  -5.850   0.586  0.00  0.00    +0.177 HD
ENDROOT
BRANCH   1   6
ATOM      5  C   UNL     1       2.202  -5.414   2.959  0.00  0.00    +0.140 C 
ATOM      6  N   UNL     1       1.819  -6.556   2.475  0.00  0.00    -0.188 NA
BRANCH   5  10
ATOM      7  C   UNL     1       3.953  -3.588   7.393  0.00  0.00    +0.064 C 
ATOM      8  C   UNL     1       3.431  -4.496   6.309  0.00  0.00    +0.022 A 
ATOM      9  C   UNL     1       3.118  -4.118   5.056  0.00  0.00    +0.032 A 
ATOM     10  C   UNL     1       2.657  -5.322   4.358  0.00  0.00    +0.016 A 
ATOM     11  C   UNL     1       2.732  -6.341   5.264  0.00  0.00    +0.030 A 
ATOM     12  N   UNL     1       3.206  -5.837   6.435  0.00  0.00    -0.317 N 
ATOM     13  C   UNL     1       2.362  -7.779   5.008  0.00  0.00    +0.064 C 
BRANCH  12  14
ATOM     14  C   UNL     1       3.425  -6.582   7.602  0.00  0.00    +0.047 A 
ATOM     15  C   UNL     1       4.401  -7.570   7.622  0.00  0.00    +0.027 A 
ATOM     16  C   UNL     1       4.616  -8.303   8.772  0.00  0.00    +0.022 A 
ATOM     17  C   UNL     1       3.859  -8.055   9.904  0.00  0.00    +0.041 A 
ATOM     18  C   UNL     1       2.886  -7.071   9.886  0.00  0.00    +0.022 A 
ATOM     19  C   UNL     1       2.672  -6.331   8.740  0.00  0.00    +0.027 A 
ATOM     20 CL   UNL     1       4.131  -8.979  11.348  0.00  0.00    -0.084 Cl
ENDBRANCH  12  14
ENDBRANCH   5  10
ENDBRANCH   1   6
BRANCH   2  21
ATOM     21  C   UNL     1       0.525  -7.922  -0.788  0.00  0.00    +0.228 C 
BRANCH  21  22
ATOM     22  N   UNL     1       0.151  -9.306  -1.090  0.00  0.00    -0.194 N 
BRANCH  22  23
ATOM     23  C   UNL     1      -1.132  -9.765  -0.784  0.00  0.00    +0.052 A 
ATOM     24  C   UNL     1      -1.311 -10.722   0.207  0.00  0.00    +0.025 A 
ATOM     25  C   UNL     1      -2.581 -11.174   0.508  0.00  0.00    +0.002 A 
ATOM     26  C   UNL     1      -3.674 -10.674  -0.176  0.00  0.00    +0.000 A 
ATOM     27  C   UNL     1      -3.500  -9.721  -1.163  0.00  0.00    +0.002 A 
ATOM     28  C   UNL     1      -2.233  -9.261  -1.465  0.00  0.00    +0.025 A 
ENDBRANCH  22  23
BRANCH  22  29
ATOM     29  S   UNL     1       1.249 -10.326  -1.795  0.00  0.00    +0.075 S 
ATOM     30  O   UNL     1       0.507 -11.412  -2.334  0.00  0.00    -0.150 OA
ATOM     31  O   UNL     1       2.102  -9.516  -2.592  0.00  0.00    -0.150 OA
BRANCH  29  32
ATOM     32  C   UNL     1       2.247 -10.990  -0.504  0.00  0.00    +0.109 A 
ATOM     33  C   UNL     1       3.325 -10.271  -0.024  0.00  0.00    +0.029 A 
ATOM     34  C   UNL     1       4.108 -10.792   0.989  0.00  0.00    +0.002 A 
ATOM     35  C   UNL     1       3.812 -12.032   1.523  0.00  0.00    +0.000 A 
ATOM     36  C   UNL     1       2.733 -12.751   1.044  0.00  0.00    +0.002 A 
ATOM     37  C   UNL     1       1.948 -12.228   0.034  0.00  0.00    +0.029 A 
ENDBRANCH  29  32
ENDBRANCH  22  29
ENDBRANCH  21  22
ENDBRANCH   2  21
TORSDOF 8
