REMARK  Name = ZINC09144994
REMARK  10 active torsions:
REMARK  status: ('A' for Active; 'I' for Inactive)
REMARK    1  A    between atoms: C_1  and  C_2
REMARK    2  A    between atoms: C_2  and  C_36
REMARK    3  A    between atoms: N_11  and  C_26
REMARK    4  A    between atoms: N_14  and  N_15
REMARK    5  A    between atoms: C_16  and  C_17
REMARK    6  A    between atoms: C_20  and  N_23
REMARK    7  A    between atoms: N_23  and  C_24
REMARK    8  A    between atoms: N_23  and  C_25
REMARK    9  A    between atoms: C_29  and  O_32
REMARK   10  A    between atoms: O_32  and  C_33
REMARK                            x       y       z     vdW  Elec       q    Type
REMARK                         _______ _______ _______ _____ _____    ______ ____
ROOT
ATOM      1  C   UNL     1     -12.000   4.825  -0.835  0.00  0.00    +0.041 C 
ATOM      2  C   UNL     1     -11.298   4.668  -2.185  0.00  0.00    +0.068 C 
ATOM      3  C   UNL     1     -10.295   3.513  -2.104  0.00  0.00    +0.071 C 
ATOM      4  C   UNL     1      -9.144   3.948  -1.200  0.00  0.00    -0.018 A 
ATOM      5  C   UNL     1      -8.967   5.260  -0.932  0.00  0.00    +0.021 A 
ATOM      6  S   UNL     1      -7.554   5.325   0.132  0.00  0.00    -0.071 S 
ATOM      7  C   UNL     1      -7.204   3.586   0.215  0.00  0.00    +0.118 A 
ATOM      8  C   UNL     1      -8.203   3.011  -0.591  0.00  0.00    +0.076 A 
ATOM      9  C   UNL     1      -8.163   1.586  -0.709  0.00  0.00    +0.268 A 
ATOM     10  O   UNL     1      -8.989   0.999  -1.387  0.00  0.00    -0.266 OA
ATOM     11  N   UNL     1      -7.203   0.901  -0.061  0.00  0.00    -0.247 N 
ATOM     12  C   UNL     1      -6.269   1.542   0.703  0.00  0.00    +0.224 A 
ATOM     13  N   UNL     1      -6.286   2.853   0.833  0.00  0.00    -0.207 NA
ATOM     14  N   UNL     1      -5.303   0.810   1.350  0.00  0.00    -0.206 N 
ATOM     15  C   UNL     1      -9.804   6.391  -1.446  0.00  0.00    +0.203 C 
ATOM     16  O   UNL     1     -10.622   5.885  -2.513  0.00  0.00    -0.368 OA
ATOM     17  C   UNL     1     -12.337   4.358  -3.264  0.00  0.00    +0.041 C 
ATOM     18  H   UNL     1      -5.328  -0.159   1.319  0.00  0.00    +0.177 HD
ENDROOT
BRANCH  11  19
ATOM     19  C   UNL     1      -7.159  -0.496  -0.173  0.00  0.00    +0.053 A 
ATOM     20  C   UNL     1      -6.416  -1.089  -1.184  0.00  0.00    +0.030 A 
ATOM     21  C   UNL     1      -6.371  -2.465  -1.291  0.00  0.00    +0.047 A 
ATOM     22  C   UNL     1      -7.075  -3.254  -0.394  0.00  0.00    +0.120 A 
ATOM     23  C   UNL     1      -7.822  -2.662   0.615  0.00  0.00    +0.047 A 
ATOM     24  C   UNL     1      -7.864  -1.286   0.725  0.00  0.00    +0.030 A 
BRANCH  22  25
ATOM     25  O   UNL     1      -7.034  -4.609  -0.502  0.00  0.00    -0.495 OA
ATOM     26  C   UNL     1      -6.245  -5.151  -1.563  0.00  0.00    +0.277 C 
ENDBRANCH  22  25
ENDBRANCH  11  19
BRANCH  14  27
ATOM     27  N   UNL     1      -4.282   1.462   2.053  0.00  0.00    -0.188 NA
ATOM     28  C   UNL     1      -3.370   0.770   2.663  0.00  0.00    +0.138 C 
BRANCH  28  29
ATOM     29  C   UNL     1      -2.295   1.457   3.403  0.00  0.00    -0.005 A 
ATOM     30  C   UNL     1      -1.312   0.713   4.061  0.00  0.00    +0.011 A 
ATOM     31  C   UNL     1      -0.307   1.358   4.747  0.00  0.00    +0.024 A 
ATOM     32  C   UNL     1      -0.272   2.748   4.790  0.00  0.00    +0.029 A 
ATOM     33  C   UNL     1      -1.252   3.491   4.140  0.00  0.00    +0.024 A 
ATOM     34  C   UNL     1      -2.260   2.853   3.453  0.00  0.00    +0.011 A 
BRANCH  32  35
ATOM     35  N   UNL     1       0.748   3.398   5.485  0.00  0.00    -0.336 N 
ATOM     36  C   UNL     1       1.781   2.617   6.169  0.00  0.00    +0.129 C 
ATOM     37  C   UNL     1       0.786   4.862   5.531  0.00  0.00    +0.129 C 
ENDBRANCH  32  35
ENDBRANCH  28  29
ENDBRANCH  14  27
TORSDOF 5
