REMARK  Name = ZINC10812170
REMARK  4 active torsions:
REMARK  status: ('A' for Active; 'I' for Inactive)
REMARK    1  A    between atoms: C_5  and  S_6
REMARK    2  A    between atoms: S_6  and  N_9
REMARK    3  A    between atoms: C_14  and  C_16
REMARK    4  A    between atoms: N_18  and  C_19
REMARK                            x       y       z     vdW  Elec       q    Type
REMARK                         _______ _______ _______ _____ _____    ______ ____
ROOT
ATOM      1  N   UNL     1      -2.894   4.527   1.653  0.00  0.00    -0.164 NA
ATOM      2  C   UNL     1      -2.174   5.565   2.404  0.00  0.00    +0.110 C 
ATOM      3  C   UNL     1      -3.193   6.548   2.987  0.00  0.00    +0.017 C 
ATOM      4  C   UNL     1      -4.226   5.777   3.812  0.00  0.00    +0.003 C 
ATOM      5  C   UNL     1      -4.969   4.790   2.910  0.00  0.00    +0.030 C 
ATOM      6  C   UNL     1      -3.973   3.790   2.324  0.00  0.00    +0.166 C 
ENDROOT
BRANCH   6   7
ATOM      7  C   UNL     1      -4.676   2.905   1.327  0.00  0.00    +0.236 C 
ATOM      8  O   UNL     1      -5.154   3.385   0.321  0.00  0.00    -0.274 OA
ATOM      9  N   UNL     1      -4.774   1.580   1.554  0.00  0.00    -0.284 N 
ATOM     10  H   UNL     1      -4.450   1.206   2.388  0.00  0.00    +0.155 HD
BRANCH   9  11
ATOM     11  C   UNL     1      -5.343   0.745   0.587  0.00  0.00    +0.036 A 
ATOM     12  C   UNL     1      -6.402   1.198  -0.188  0.00  0.00    +0.043 A 
ATOM     13  C   UNL     1      -6.959   0.373  -1.147  0.00  0.00    +0.044 A 
ATOM     14  C   UNL     1      -6.469  -0.908  -1.328  0.00  0.00    +0.040 A 
ATOM     15  C   UNL     1      -5.417  -1.365  -0.554  0.00  0.00    +0.044 A 
ATOM     16  C   UNL     1      -4.853  -0.541   0.403  0.00  0.00    +0.043 A 
ATOM     17 CL   UNL     1      -4.804  -2.973  -0.784  0.00  0.00    -0.083 Cl
ATOM     18 CL   UNL     1      -8.280   0.942  -2.119  0.00  0.00    -0.083 Cl
ENDBRANCH   9  11
ENDBRANCH   6   7
BRANCH   1  19
ATOM     19  S   UNL     1      -2.501   4.199   0.078  0.00  0.00    +0.068 S 
ATOM     20  O   UNL     1      -2.950   2.877  -0.186  0.00  0.00    -0.152 OA
ATOM     21  O   UNL     1      -1.146   4.592  -0.093  0.00  0.00    -0.152 OA
BRANCH  19  26
ATOM     22  C   UNL     1      -3.170   6.512  -1.389  0.00  0.00    +0.038 A 
ATOM     23  C   UNL     1      -4.092   7.176  -2.176  0.00  0.00    +0.030 A 
ATOM     24  C   UNL     1      -5.263   6.561  -2.478  0.00  0.00    +0.080 A 
ATOM     25  S   UNL     1      -5.088   4.998  -1.632  0.00  0.00    -0.057 S 
ATOM     26  C   UNL     1      -3.467   5.270  -0.934  0.00  0.00    +0.144 A 
ATOM     27 CL   UNL     1      -6.588   7.142  -3.437  0.00  0.00    -0.076 Cl
ENDBRANCH  19  26
ENDBRANCH   1  19
TORSDOF 4
