REMARK  Name = ZINC09939221
REMARK  6 active torsions:
REMARK  status: ('A' for Active; 'I' for Inactive)
REMARK    1  A    between atoms: C_1  and  C_2
REMARK    2  A    between atoms: C_2  and  C_3
REMARK    3  A    between atoms: C_4  and  C_28
REMARK    4  A    between atoms: C_8  and  C_13
REMARK    5  A    between atoms: N_19  and  C_20
REMARK    6  A    between atoms: C_23  and  C_26
REMARK                            x       y       z     vdW  Elec       q    Type
REMARK                         _______ _______ _______ _____ _____    ______ ____
ROOT
ATOM      1  C   UNL     1       0.372  -0.961  -1.236  0.00  0.00    +0.073 A 
ATOM      2  C   UNL     1       1.727  -1.116  -1.261  0.00  0.00    +0.051 A 
ATOM      3  C   UNL     1       2.090  -1.504  -2.626  0.00  0.00    +0.188 A 
ATOM      4  N   UNL     1       3.248  -1.779  -3.205  0.00  0.00    -0.128 NA
ATOM      5  N   UNL     1       3.357  -2.106  -4.441  0.00  0.00    -0.140 NA
ATOM      6  C   UNL     1       2.303  -2.194  -5.236  0.00  0.00    +0.174 A 
ATOM      7  C   UNL     1       0.971  -1.904  -4.672  0.00  0.00    +0.180 A 
ATOM      8  N   UNL     1      -0.113  -1.973  -5.406  0.00  0.00    -0.280 NA
ATOM      9  N   UNL     1       0.917  -1.556  -3.337  0.00  0.00    -0.192 N 
ATOM     10  N   UNL     1      -0.130  -1.228  -2.474  0.00  0.00    -0.167 NA
ATOM     11  H   UNL     1      -0.061  -2.297  -6.319  0.00  0.00    +0.188 HD
ENDROOT
BRANCH   6  12
ATOM     12  C   UNL     1       2.456  -2.572  -6.654  0.00  0.00    +0.190 A 
ATOM     13  N   UNL     1       1.378  -2.760  -7.415  0.00  0.00    -0.193 NA
ATOM     14  C   UNL     1       1.518  -3.101  -8.691  0.00  0.00    +0.217 A 
ATOM     15  N   UNL     1       2.733  -3.254  -9.210  0.00  0.00    -0.181 NA
ATOM     16  C   UNL     1       3.809  -3.067  -8.453  0.00  0.00    +0.224 A 
ATOM     17  N   UNL     1       3.673  -2.721  -7.177  0.00  0.00    -0.193 NA
ATOM     18  N   UNL     1       5.071  -3.227  -8.993  0.00  0.00    -0.283 N 
ATOM     19  N   UNL     1       0.402  -3.296  -9.480  0.00  0.00    -0.327 N 
ATOM     20  H   UNL     1       5.854  -3.166  -8.424  0.00  0.00    +0.155 HD
ATOM     21  H   UNL     1      -0.484  -3.184  -9.101  0.00  0.00    +0.145 HD
ATOM     22  H   UNL     1       0.504  -3.544 -10.412  0.00  0.00    +0.145 HD
BRANCH  18  23
ATOM     23  C   UNL     1       5.218  -3.478 -10.361  0.00  0.00    +0.034 A 
ATOM     24  C   UNL     1       4.322  -2.930 -11.270  0.00  0.00    +0.023 A 
ATOM     25  C   UNL     1       4.470  -3.180 -12.620  0.00  0.00    +0.005 A 
ATOM     26  C   UNL     1       5.510  -3.974 -13.068  0.00  0.00    -0.050 A 
ATOM     27  C   UNL     1       6.404  -4.521 -12.166  0.00  0.00    +0.005 A 
ATOM     28  C   UNL     1       6.265  -4.270 -10.815  0.00  0.00    +0.023 A 
ATOM     29  C   UNL     1       5.669  -4.244 -14.542  0.00  0.00    +0.044 C 
ENDBRANCH  18  23
ENDBRANCH   6  12
BRANCH   2  30
ATOM     30  C   UNL     1       2.657  -0.926  -0.122  0.00  0.00    -0.012 A 
ATOM     31  C   UNL     1       2.813   0.335   0.450  0.00  0.00    +0.011 A 
ATOM     32  C   UNL     1       3.680   0.507   1.510  0.00  0.00    +0.039 A 
ATOM     33  C   UNL     1       4.394  -0.572   2.005  0.00  0.00    +0.123 A 
ATOM     34  C   UNL     1       4.242  -1.828   1.440  0.00  0.00    +0.039 A 
ATOM     35  C   UNL     1       3.374  -2.010   0.383  0.00  0.00    +0.011 A 
ATOM     36  F   UNL     1       5.242  -0.400   3.043  0.00  0.00    -0.205 F 
ENDBRANCH   2  30
BRANCH   1  38
ATOM     37  C   UNL     1      -0.675   0.948  -0.047  0.00  0.00    +0.010 C 
ATOM     38  C   UNL     1      -0.441  -0.564  -0.030  0.00  0.00    +0.054 C 
ENDBRANCH   1  38
TORSDOF 4
