REMARK  Name = ZINC10441425
REMARK  8 active torsions:
REMARK  status: ('A' for Active; 'I' for Inactive)
REMARK    1  A    between atoms: C_1  and  C_2
REMARK    2  A    between atoms: C_2  and  C_4
REMARK    3  A    between atoms: C_2  and  N_10
REMARK    4  A    between atoms: C_11  and  C_13
REMARK    5  A    between atoms: C_13  and  C_15
REMARK    6  A    between atoms: C_13  and  S_16
REMARK    7  A    between atoms: S_16  and  C_17
REMARK    8  A    between atoms: N_27  and  C_28
REMARK                            x       y       z     vdW  Elec       q    Type
REMARK                         _______ _______ _______ _____ _____    ______ ____
ROOT
ATOM      1  C   UNL     1       2.933   4.244  -1.189  0.00  0.00    +0.177 A 
ATOM      2  N   UNL     1       4.053   4.920  -1.270  0.00  0.00    -0.223 NA
ATOM      3  C   UNL     1       4.724   5.311  -0.168  0.00  0.00    +0.079 A 
ATOM      4  C   UNL     1       5.921   6.027  -0.255  0.00  0.00    +0.028 A 
ATOM      5  C   UNL     1       6.569   6.402   0.888  0.00  0.00    +0.002 A 
ATOM      6  C   UNL     1       6.056   6.082   2.138  0.00  0.00    +0.001 A 
ATOM      7  C   UNL     1       4.887   5.382   2.256  0.00  0.00    +0.015 A 
ATOM      8  C   UNL     1       4.205   4.987   1.106  0.00  0.00    +0.065 A 
ATOM      9  C   UNL     1       2.946   4.233   1.172  0.00  0.00    +0.267 A 
ATOM     10  O   UNL     1       2.449   3.925   2.240  0.00  0.00    -0.267 OA
ATOM     11  N   UNL     1       2.358   3.894   0.001  0.00  0.00    -0.253 N 
ENDROOT
BRANCH  11  12
ATOM     12  C   UNL     1       1.155   3.174   0.008  0.00  0.00    +0.087 A 
ATOM     13  C   UNL     1      -0.058   3.847   0.023  0.00  0.00    +0.032 A 
ATOM     14  C   UNL     1      -1.242   3.136   0.031  0.00  0.00    +0.040 A 
ATOM     15  C   UNL     1      -1.221   1.752   0.017  0.00  0.00    +0.126 A 
ATOM     16  C   UNL     1      -0.013   1.076   0.008  0.00  0.00    +0.078 A 
ATOM     17  C   UNL     1       1.176   1.783   0.000  0.00  0.00    +0.150 A 
ATOM     18  F   UNL     1       2.355   1.125  -0.014  0.00  0.00    -0.203 F 
ATOM     19  F   UNL     1      -2.381   1.059   0.019  0.00  0.00    -0.205 F 
ENDBRANCH  11  12
BRANCH   1  20
ATOM     20  S   UNL     1       2.128   3.771  -2.683  0.00  0.00    -0.075 S 
BRANCH  20  21
ATOM     21  C   UNL     1       3.279   4.466  -3.895  0.00  0.00    +0.137 C 
ATOM     22  C   UNL     1       3.283   5.991  -3.777  0.00  0.00    +0.029 C 
BRANCH  21  24
ATOM     23  N   UNL     1       3.750   4.015  -6.281  0.00  0.00    -0.308 N 
ATOM     24  C   UNL     1       2.846   4.070  -5.283  0.00  0.00    +0.227 C 
ATOM     25  O   UNL     1       1.684   3.801  -5.503  0.00  0.00    -0.275 OA
ATOM     26  H   UNL     1       4.679   4.230  -6.106  0.00  0.00    +0.149 HD
BRANCH  23  28
ATOM     27  C   UNL     1       3.325   2.105  -7.748  0.00  0.00    +0.033 C 
ATOM     28  C   UNL     1       3.329   3.631  -7.630  0.00  0.00    +0.100 C 
BRANCH  28  29
ATOM     29  C   UNL     1       4.287   4.209  -8.639  0.00  0.00    -0.027 A 
ATOM     30  C   UNL     1       5.644   4.225  -8.374  0.00  0.00    +0.005 A 
ATOM     31  C   UNL     1       6.524   4.752  -9.302  0.00  0.00    +0.000 A 
ATOM     32  C   UNL     1       6.045   5.271 -10.490  0.00  0.00    +0.000 A 
ATOM     33  C   UNL     1       4.688   5.261 -10.753  0.00  0.00    +0.000 A 
ATOM     34  C   UNL     1       3.809   4.730  -9.827  0.00  0.00    +0.005 A 
ENDBRANCH  28  29
ENDBRANCH  23  28
ENDBRANCH  21  24
ENDBRANCH  20  21
ENDBRANCH   1  20
TORSDOF 6
