REMARK  Name = ZINC13571065
REMARK  5 active torsions:
REMARK  status: ('A' for Active; 'I' for Inactive)
REMARK    1  A    between atoms: C_1  and  C_2
REMARK    2  A    between atoms: C_2  and  C_28
REMARK    3  A    between atoms: C_6  and  C_17
REMARK    4  A    between atoms: C_11  and  O_16
REMARK    5  A    between atoms: C_12  and  O_15
REMARK                            x       y       z     vdW  Elec       q    Type
REMARK                         _______ _______ _______ _____ _____    ______ ____
ROOT
ATOM      1  C   UNL     1      -0.001   1.483   0.360  0.00  0.00    +0.031 C 
ATOM      2  C   UNL     1       0.002  -0.004   0.002  0.00  0.00    +0.033 C 
ATOM      3  C   UNL     1       0.612  -0.194  -1.391  0.00  0.00    +0.094 C 
ATOM      4  C   UNL     1       0.717  -1.694  -1.679  0.00  0.00    +0.180 C 
ATOM      5  C   UNL     1       1.434  -1.908  -3.016  0.00  0.00    +0.082 C 
ATOM      6  C   UNL     1       0.680  -1.131  -4.098  0.00  0.00    +0.061 C 
ATOM      7  C   UNL     1      -0.795  -1.425  -3.999  0.00  0.00    +0.006 A 
ATOM      8  C   UNL     1      -1.604  -1.147  -5.091  0.00  0.00    +0.011 A 
ATOM      9  C   UNL     1      -2.960  -1.398  -5.039  0.00  0.00    +0.050 A 
ATOM     10  C   UNL     1      -3.523  -1.930  -3.888  0.00  0.00    +0.162 A 
ATOM     11  C   UNL     1      -2.718  -2.212  -2.793  0.00  0.00    +0.201 A 
ATOM     12  C   UNL     1      -1.348  -1.960  -2.850  0.00  0.00    +0.172 A 
ATOM     13  O   UNL     1      -0.589  -2.262  -1.763  0.00  0.00    -0.464 OA
ATOM     14  N   UNL     1       1.473  -2.342  -0.608  0.00  0.00    -0.289 N 
ATOM     15  C   UNL     1       1.475  -1.850   0.641  0.00  0.00    +0.133 C 
ATOM     16  S   UNL     1       2.372  -2.671   1.847  0.00  0.00    -0.019 S 
ATOM     17  N   UNL     1       0.802  -0.742   0.982  0.00  0.00    -0.321 N 
ATOM     18  C   UNL     1      -1.433  -0.535   0.010  0.00  0.00    +0.031 C 
ATOM     19  H   UNL     1       1.984  -3.143  -0.804  0.00  0.00    +0.151 HD
ATOM     20  H   UNL     1       0.846  -0.421   1.896  0.00  0.00    +0.148 HD
ENDROOT
BRANCH   6  21
ATOM     21  C   UNL     1       1.184  -1.547  -5.457  0.00  0.00    -0.004 A 
ATOM     22  C   UNL     1       1.075  -2.865  -5.860  0.00  0.00    +0.007 A 
ATOM     23  C   UNL     1       1.537  -3.246  -7.106  0.00  0.00    +0.000 A 
ATOM     24  C   UNL     1       2.107  -2.311  -7.950  0.00  0.00    +0.003 A 
ATOM     25  C   UNL     1       2.216  -0.993  -7.548  0.00  0.00    +0.038 A 
ATOM     26  C   UNL     1       1.749  -0.609  -6.302  0.00  0.00    +0.127 A 
ATOM     27  F   UNL     1       1.851   0.680  -5.911  0.00  0.00    -0.205 F 
ENDBRANCH   6  21
BRANCH  11  28
ATOM     28  O   UNL     1      -3.267  -2.734  -1.662  0.00  0.00    -0.501 OA
ATOM     29  H   UNL     1      -3.288  -3.700  -1.646  0.00  0.00    +0.292 HD
ENDBRANCH  11  28
BRANCH  10  30
ATOM     30  O   UNL     1      -4.859  -2.177  -3.834  0.00  0.00    -0.503 OA
ATOM     31  H   UNL     1      -5.108  -3.063  -4.128  0.00  0.00    +0.292 HD
ENDBRANCH  10  30
TORSDOF 3
