REMARK  Name = ZINC00880546
REMARK  6 active torsions:
REMARK  status: ('A' for Active; 'I' for Inactive)
REMARK    1  A    between atoms: C_1  and  C_2
REMARK    2  A    between atoms: C_6  and  C_15
REMARK    3  A    between atoms: C_13  and  C_14
REMARK    4  A    between atoms: C_15  and  N_16
REMARK    5  A    between atoms: N_16  and  C_17
REMARK    6  A    between atoms: N_24  and  C_25
REMARK                            x       y       z     vdW  Elec       q    Type
REMARK                         _______ _______ _______ _____ _____    ______ ____
ROOT
ATOM      1  N   UNL     1      -0.695   1.574   1.184  0.00  0.00    -0.278 N 
ATOM      2  C   UNL     1      -1.588   0.848   1.885  0.00  0.00    +0.303 C 
ATOM      3  O   UNL     1      -2.016  -0.195   1.430  0.00  0.00    -0.253 OA
ATOM      4  N   UNL     1      -2.006   1.277   3.093  0.00  0.00    -0.296 N 
ATOM      5  H   UNL     1      -1.718   2.142   3.426  0.00  0.00    +0.151 HD
ENDROOT
BRANCH   4   6
ATOM      6  C   UNL     1      -2.895   0.439   3.901  0.00  0.00    +0.074 C 
ATOM      7  C   UNL     1      -4.346   0.678   3.477  0.00  0.00    +0.022 C 
ATOM      8  C   UNL     1      -5.274  -0.197   4.321  0.00  0.00    +0.002 C 
ATOM      9  C   UNL     1      -5.109   0.162   5.800  0.00  0.00    +0.000 C 
ATOM     10  C   UNL     1      -3.658  -0.077   6.223  0.00  0.00    +0.002 C 
ATOM     11  C   UNL     1      -2.730   0.799   5.379  0.00  0.00    +0.022 C 
ENDBRANCH   4   6
BRANCH   1  12
ATOM     12  C   UNL     1      -0.266   2.884   1.679  0.00  0.00    +0.078 C 
ATOM     13  C   UNL     1       0.324   2.745   3.097  0.00  0.00    +0.022 C 
ATOM     14  C   UNL     1      -0.146   4.026   3.831  0.00  0.00    +0.002 C 
ATOM     15  C   UNL     1      -1.581   4.227   3.282  0.00  0.00    +0.002 C 
ATOM     16  C   UNL     1      -1.477   3.826   1.796  0.00  0.00    +0.022 C 
ENDBRANCH   1  12
BRANCH   1  17
ATOM     17  C   UNL     1      -0.154   1.052  -0.074  0.00  0.00    +0.150 C 
BRANCH  17  23
ATOM     18  C   UNL     1      -1.859   5.725  -5.631  0.00  0.00    +0.044 C 
ATOM     19  C   UNL     1      -2.153   4.495  -4.812  0.00  0.00    -0.047 A 
ATOM     20  C   UNL     1      -1.319   4.149  -3.786  0.00  0.00    +0.013 A 
ATOM     21  C   UNL     1      -1.591   3.008  -3.026  0.00  0.00    -0.001 A 
ATOM     22  C   UNL     1      -0.721   2.611  -1.917  0.00  0.00    +0.020 A 
ATOM     23  C   UNL     1      -1.032   1.491  -1.218  0.00  0.00    +0.035 A 
ATOM     24  C   UNL     1      -2.177   0.739  -1.555  0.00  0.00    +0.254 A 
ATOM     25  O   UNL     1      -2.441  -0.262  -0.910  0.00  0.00    -0.268 OA
ATOM     26  N   UNL     1      -2.985   1.098  -2.568  0.00  0.00    -0.322 N 
ATOM     27  H   UNL     1      -3.788   0.541  -2.779  0.00  0.00    +0.169 HD
ATOM     28  C   UNL     1      -2.721   2.222  -3.321  0.00  0.00    +0.049 A 
ATOM     29  C   UNL     1      -3.556   2.594  -4.369  0.00  0.00    +0.030 A 
ATOM     30  C   UNL     1      -3.269   3.723  -5.105  0.00  0.00    -0.046 A 
ATOM     31  C   UNL     1      -4.175   4.124  -6.240  0.00  0.00    +0.044 C 
ENDBRANCH  17  23
ENDBRANCH   1  17
TORSDOF 4
