REMARK  Name = ZINC26295495
REMARK  8 active torsions:
REMARK  status: ('A' for Active; 'I' for Inactive)
REMARK    1  A    between atoms: C_1  and  N_2
REMARK    2  A    between atoms: N_2  and  C_3
REMARK    3  A    between atoms: N_2  and  C_15
REMARK    4  A    between atoms: C_3  and  C_4
REMARK    5  A    between atoms: N_6  and  C_7
REMARK    6  A    between atoms: C_15  and  C_16
REMARK    7  A    between atoms: N_18  and  C_19
REMARK    8  A    between atoms: N_18  and  C_27
REMARK                            x       y       z     vdW  Elec       q    Type
REMARK                         _______ _______ _______ _____ _____    ______ ____
ROOT
ATOM      1  C   UNL     1      -0.220   1.418  -0.162  0.00  0.00    -0.095 C 
ATOM      2  N   UNL     1      -0.158  -0.049  -0.121  0.00  0.00    +0.389 N 
ATOM      3  H   UNL     1       0.388  -0.340   0.676  0.00  0.00    -0.081 HD
ENDROOT
BRANCH   2   4
ATOM      4  C   UNL     1       0.470  -0.547  -1.352  0.00  0.00    +0.019 C 
BRANCH   4   5
ATOM      5  C   UNL     1       1.904  -0.089  -1.406  0.00  0.00    +0.201 C 
ATOM      6  O   UNL     1       2.359   0.587  -0.507  0.00  0.00    -0.278 OA
ATOM      7  N   UNL     1       2.682  -0.429  -2.453  0.00  0.00    -0.287 N 
ATOM      8  H   UNL     1       2.335  -1.014  -3.144  0.00  0.00    +0.155 HD
BRANCH   7   9
ATOM      9  C   UNL     1       3.990   0.061  -2.541  0.00  0.00    +0.035 A 
ATOM     10  C   UNL     1       4.531   0.379  -3.781  0.00  0.00    +0.025 A 
ATOM     11  C   UNL     1       5.822   0.863  -3.866  0.00  0.00    +0.023 A 
ATOM     12  C   UNL     1       6.576   1.032  -2.719  0.00  0.00    +0.059 A 
ATOM     13  C   UNL     1       6.040   0.717  -1.482  0.00  0.00    +0.061 A 
ATOM     14  C   UNL     1       4.746   0.237  -1.391  0.00  0.00    +0.044 A 
ATOM     15 CL   UNL     1       6.989   0.929  -0.044  0.00  0.00    -0.082 Cl
ATOM     16 CL   UNL     1       8.198   1.641  -2.830  0.00  0.00    -0.082 Cl
ENDBRANCH   7   9
ENDBRANCH   4   5
ENDBRANCH   2   4
BRANCH   2  17
ATOM     17  C   UNL     1      -1.517  -0.594  -0.009  0.00  0.00    +0.019 C 
BRANCH  17  18
ATOM     18  C   UNL     1      -2.116  -0.183   1.311  0.00  0.00    +0.200 C 
ATOM     19  O   UNL     1      -1.494   0.539   2.061  0.00  0.00    -0.278 OA
ATOM     20  N   UNL     1      -3.344  -0.618   1.659  0.00  0.00    -0.295 N 
BRANCH  20  21
ATOM     21  C   UNL     1      -3.886  -0.301   2.982  0.00  0.00    +0.099 C 
ATOM     22  C   UNL     1      -3.942   1.225   3.169  0.00  0.00    +0.046 C 
ATOM     23  C   UNL     1      -4.203   1.565   4.656  0.00  0.00    +0.168 C 
ATOM     24  S   UNL     1      -3.474   0.123   5.535  0.00  0.00    -0.029 S 
ATOM     25  O   UNL     1      -4.504  -0.561   6.234  0.00  0.00    -0.174 OA
ATOM     26  O   UNL     1      -2.314   0.548   6.238  0.00  0.00    -0.174 OA
ATOM     27  C   UNL     1      -2.959  -0.889   4.084  0.00  0.00    +0.188 C 
ENDBRANCH  20  21
BRANCH  20  28
ATOM     28  C   UNL     1      -4.136  -1.407   0.713  0.00  0.00    +0.076 C 
ATOM     29  C   UNL     1      -5.438  -0.658   0.360  0.00  0.00    +0.022 C 
ATOM     30  C   UNL     1      -6.501  -1.778   0.241  0.00  0.00    +0.002 C 
ATOM     31  C   UNL     1      -6.099  -2.752   1.377  0.00  0.00    +0.002 C 
ATOM     32  C   UNL     1      -4.557  -2.738   1.359  0.00  0.00    +0.022 C 
ENDBRANCH  20  28
ENDBRANCH  17  18
ENDBRANCH   2  17
TORSDOF 7
