REMARK  Name = ZINC13784753
REMARK  2 active torsions:
REMARK  status: ('A' for Active; 'I' for Inactive)
REMARK    1  A    between atoms: C_1  and  C_17
REMARK    2  A    between atoms: C_3  and  C_15
REMARK                            x       y       z     vdW  Elec       q    Type
REMARK                         _______ _______ _______ _____ _____    ______ ____
ROOT
ATOM      1  C   UNL     1      -0.965   1.835   1.124  0.00  0.00    +0.150 C 
ATOM      2  C   UNL     1      -0.112   1.299  -0.055  0.00  0.00    +0.150 C 
ATOM      3  C   UNL     1      -0.975   1.659  -1.301  0.00  0.00    +0.165 C 
ATOM      4  C   UNL     1      -0.848   3.205  -1.457  0.00  0.00    +0.180 C 
ATOM      5  C   UNL     1      -1.705   3.740  -0.277  0.00  0.00    +0.180 C 
ATOM      6  C   UNL     1      -2.211   2.433   0.405  0.00  0.00    +0.165 C 
ATOM      7  O   UNL     1      -2.332   1.538  -0.749  0.00  0.00    -0.366 OA
ATOM      8  O   UNL     1      -0.290   3.928  -0.358  0.00  0.00    -0.363 OA
ENDROOT
BRANCH   2   9
ATOM      9  C   UNL     1       1.222   1.997  -0.109  0.00  0.00    +0.362 C 
ATOM     10  O   UNL     1       1.485   2.727  -1.035  0.00  0.00    -0.246 OA
ATOM     11  O   UNL     1       2.119   1.808   0.872  0.00  0.00    -0.246 OA
ENDBRANCH   2   9
BRANCH   1  12
ATOM     12  C   UNL     1      -0.219   2.905   1.879  0.00  0.00    +0.362 C 
ATOM     13  O   UNL     1      -0.619   4.045   1.864  0.00  0.00    -0.246 OA
ATOM     14  O   UNL     1       0.889   2.591   2.569  0.00  0.00    -0.246 OA
ENDBRANCH   1  12
TORSDOF 2
