REMARK  Name = ZINC16463140
REMARK  7 active torsions:
REMARK  status: ('A' for Active; 'I' for Inactive)
REMARK    1  A    between atoms: C_1  and  C_2
REMARK    2  A    between atoms: C_2  and  C_3
REMARK    3  A    between atoms: C_2  and  N_4
REMARK    4  A    between atoms: C_8  and  C_10
REMARK    5  A    between atoms: C_10  and  N_11
REMARK    6  A    between atoms: C_14  and  C_18
REMARK    7  A    between atoms: C_14  and  C_19
REMARK                            x       y       z     vdW  Elec       q    Type
REMARK                         _______ _______ _______ _____ _____    ______ ____
ROOT
ATOM      1  N   UNL     1      -5.920  -1.811  -3.653  0.00  0.00    -0.215 N 
ATOM      2  C   UNL     1      -6.564  -0.793  -4.257  0.00  0.00    +0.251 C 
ATOM      3  O   UNL     1      -6.819   0.295  -3.786  0.00  0.00    -0.272 OA
ATOM      4  C   UNL     1      -6.904  -1.290  -5.648  0.00  0.00    +0.135 C 
ATOM      5  N   UNL     1      -6.360  -2.659  -5.668  0.00  0.00    -0.281 N 
ATOM      6  C   UNL     1      -5.803  -2.870  -4.462  0.00  0.00    +0.310 C 
ATOM      7  O   UNL     1      -5.255  -3.907  -4.143  0.00  0.00    -0.252 OA
ATOM      8  C   UNL     1      -6.222  -0.425  -6.710  0.00  0.00    +0.047 C 
ATOM      9  H   UNL     1      -6.396  -3.286  -6.408  0.00  0.00    +0.152 HD
ENDROOT
BRANCH   4  10
ATOM     10  C   UNL     1      -8.396  -1.309  -5.855  0.00  0.00    -0.013 A 
ATOM     11  C   UNL     1      -9.196  -0.393  -5.197  0.00  0.00    +0.009 A 
ATOM     12  C   UNL     1     -10.565  -0.408  -5.386  0.00  0.00    +0.041 A 
ATOM     13  C   UNL     1     -11.137  -1.340  -6.234  0.00  0.00    +0.158 A 
ATOM     14  C   UNL     1     -10.335  -2.259  -6.894  0.00  0.00    +0.159 A 
ATOM     15  C   UNL     1      -8.963  -2.238  -6.707  0.00  0.00    +0.047 A 
ATOM     16  F   UNL     1     -10.890  -3.170  -7.723  0.00  0.00    -0.202 F 
ATOM     17  F   UNL     1     -12.475  -1.356  -6.419  0.00  0.00    -0.202 F 
ENDBRANCH   4  10
BRANCH   1  18
ATOM     18  C   UNL     1      -5.408  -1.762  -2.281  0.00  0.00    +0.214 C 
BRANCH  18  23
ATOM     19  N   UNL     1      -1.372  -0.511   0.012  0.00  0.00    -0.297 N 
ATOM     20  C   UNL     1      -2.051  -0.643  -1.145  0.00  0.00    +0.306 C 
ATOM     21  O   UNL     1      -1.522  -0.341  -2.197  0.00  0.00    -0.252 OA
ATOM     22  N   UNL     1      -3.315  -1.109  -1.135  0.00  0.00    -0.239 N 
ATOM     23  C   UNL     1      -3.994  -1.241  -2.292  0.00  0.00    +0.238 C 
ATOM     24  O   UNL     1      -3.467  -0.940  -3.341  0.00  0.00    -0.274 OA
ATOM     25  H   UNL     1      -1.794  -0.752   0.852  0.00  0.00    +0.151 HD
ATOM     26  H   UNL     1      -3.737  -1.350  -0.295  0.00  0.00    +0.159 HD
BRANCH  19  28
ATOM     27  C   UNL     1      -0.019   1.526   0.010  0.00  0.00    +0.027 C 
ATOM     28  C   UNL     1       0.002  -0.004   0.002  0.00  0.00    +0.068 C 
ATOM     29  C   UNL     1       0.742  -0.511   1.242  0.00  0.00    +0.027 C 
ENDBRANCH  19  28
ENDBRANCH  18  23
ENDBRANCH   1  18
TORSDOF 4
