REMARK  Name = ZINC41023525
REMARK  5 active torsions:
REMARK  status: ('A' for Active; 'I' for Inactive)
REMARK    1  A    between atoms: C_6  and  N_7
REMARK    2  A    between atoms: C_10  and  C_12
REMARK    3  A    between atoms: C_12  and  S_13
REMARK    4  A    between atoms: S_13  and  C_14
REMARK    5  A    between atoms: C_18  and  N_20
REMARK                            x       y       z     vdW  Elec       q    Type
REMARK                         _______ _______ _______ _____ _____    ______ ____
ROOT
ATOM      1  C   UNL     1       5.966   0.884  -0.049  0.00  0.00    +0.151 C 
ENDROOT
BRANCH   1  10
ATOM      2  C   UNL     1      -0.017   1.389   0.010  0.00  0.00    +0.025 A 
ATOM      3  C   UNL     1       1.149   2.100   0.002  0.00  0.00    +0.031 A 
ATOM      4  C   UNL     1       2.375   1.431  -0.013  0.00  0.00    +0.089 A 
ATOM      5  C   UNL     1       2.398   0.025  -0.021  0.00  0.00    +0.068 A 
ATOM      6  C   UNL     1       1.208  -0.686  -0.013  0.00  0.00    +0.050 A 
ATOM      7  C   UNL     1       0.002  -0.004   0.002  0.00  0.00    +0.027 A 
ATOM      8  N   UNL     1       3.732  -0.334  -0.035  0.00  0.00    -0.341 N 
ATOM      9  H   UNL     1       4.083  -1.238  -0.043  0.00  0.00    +0.167 HD
ATOM     10  C   UNL     1       4.461   0.816  -0.036  0.00  0.00    +0.118 A 
ATOM     11  N   UNL     1       3.668   1.848  -0.023  0.00  0.00    -0.232 NA
BRANCH   7  12
ATOM     12  N   UNL     1      -1.201  -0.717   0.010  0.00  0.00    -0.358 N 
ATOM     13  H   UNL     1      -2.046  -0.241   0.020  0.00  0.00    +0.142 HD
ATOM     14  H   UNL     1      -1.190  -1.687   0.004  0.00  0.00    +0.142 HD
ENDBRANCH   7  12
ENDBRANCH   1  10
BRANCH   1  15
ATOM     15  S   UNL     1       6.555   0.920  -1.765  0.00  0.00    -0.078 S 
BRANCH  15  16
ATOM     16  C   UNL     1       8.308   0.998  -1.612  0.00  0.00    +0.192 A 
ATOM     17  N   UNL     1       8.851   1.010  -0.403  0.00  0.00    -0.207 NA
ATOM     18  C   UNL     1      10.172   1.068  -0.250  0.00  0.00    +0.122 A 
ATOM     19  C   UNL     1      10.984   1.116  -1.379  0.00  0.00    +0.086 A 
ATOM     20  C   UNL     1      10.378   1.101  -2.632  0.00  0.00    +0.122 A 
ATOM     21  N   UNL     1       9.050   1.037  -2.709  0.00  0.00    -0.207 NA
ATOM     22  N   UNL     1      10.732   1.081   1.018  0.00  0.00    -0.343 N 
ATOM     23  H   UNL     1      10.160   1.048   1.801  0.00  0.00    +0.144 HD
ATOM     24  H   UNL     1      11.695   1.123   1.123  0.00  0.00    +0.144 HD
BRANCH  20  25
ATOM     25  N   UNL     1      11.146   1.148  -3.785  0.00  0.00    -0.343 N 
ATOM     26  H   UNL     1      12.114   1.191  -3.721  0.00  0.00    +0.144 HD
ATOM     27  H   UNL     1      10.717   1.137  -4.655  0.00  0.00    +0.144 HD
ENDBRANCH  20  25
ENDBRANCH  15  16
ENDBRANCH   1  15
TORSDOF 5
