REMARK  Name = ZINC29334915
REMARK  8 active torsions:
REMARK  status: ('A' for Active; 'I' for Inactive)
REMARK    1  A    between atoms: C_1  and  C_2
REMARK    2  A    between atoms: C_2  and  N_3
REMARK    3  A    between atoms: C_4  and  C_6
REMARK    4  A    between atoms: C_6  and  N_7
REMARK    5  A    between atoms: C_13  and  C_15
REMARK    6  A    between atoms: C_15  and  C_16
REMARK    7  A    between atoms: C_16  and  N_17
REMARK    8  A    between atoms: N_20  and  C_21
REMARK                            x       y       z     vdW  Elec       q    Type
REMARK                         _______ _______ _______ _____ _____    ______ ____
ROOT
ATOM      1  C   UNL     1      -8.629   0.577   1.955  0.00  0.00    +0.114 C 
ENDROOT
BRANCH   1   8
ATOM      2  N   UNL     1     -12.956  -1.255   3.613  0.00  0.00    +0.387 N 
ATOM      3  C   UNL     1     -12.346  -0.522   4.731  0.00  0.00    -0.059 C 
ATOM      4  C   UNL     1     -11.732   0.781   4.209  0.00  0.00    +0.089 C 
ATOM      5  N   UNL     1     -10.815   0.456   3.106  0.00  0.00    -0.305 N 
ATOM      6  C   UNL     1     -11.317  -0.387   2.010  0.00  0.00    +0.089 C 
ATOM      7  C   UNL     1     -11.947  -1.649   2.621  0.00  0.00    -0.059 C 
ATOM      8  C   UNL     1      -9.551   0.922   3.096  0.00  0.00    +0.217 C 
ATOM      9  O   UNL     1      -9.155   1.620   4.006  0.00  0.00    -0.276 OA
ATOM     10  H   UNL     1     -13.666  -0.577   3.117  0.00  0.00    -0.081 HD
BRANCH   2  11
ATOM     11  C   UNL     1     -13.704  -2.423   4.095  0.00  0.00    +0.019 C 
BRANCH  11  13
ATOM     12  N   UNL     1     -15.283  -4.090   3.173  0.00  0.00    -0.317 N 
ATOM     13  C   UNL     1     -14.512  -3.004   2.963  0.00  0.00    +0.196 C 
ATOM     14  O   UNL     1     -14.468  -2.495   1.863  0.00  0.00    -0.278 OA
ATOM     15  H   UNL     1     -15.323  -4.551   4.171  0.00  0.00    +0.149 HD
BRANCH  12  17
ATOM     16  C   UNL     1     -16.847  -5.872   2.575  0.00  0.00    +0.024 C 
ATOM     17  C   UNL     1     -16.067  -4.655   2.073  0.00  0.00    +0.101 C 
ENDBRANCH  12  17
ENDBRANCH  11  13
ENDBRANCH   2  11
ENDBRANCH   1   8
BRANCH   1  18
ATOM     18  C   UNL     1      -7.264   1.227   2.188  0.00  0.00    +0.115 C 
BRANCH  18  19
ATOM     19  N   UNL     1      -6.368   0.892   1.079  0.00  0.00    -0.299 N 
ATOM     20  C   UNL     1      -5.103   1.358   1.069  0.00  0.00    +0.300 C 
ATOM     21  O   UNL     1      -4.706   2.058   1.981  0.00  0.00    -0.253 OA
ATOM     22  N   UNL     1      -4.279   1.049   0.049  0.00  0.00    -0.294 N 
ATOM     23  H   UNL     1      -6.727   0.259   0.254  0.00  0.00    +0.150 HD
ATOM     24  H   UNL     1      -4.638   0.417  -0.776  0.00  0.00    +0.151 HD
BRANCH  22  25
ATOM     25  C   UNL     1      -2.904   1.556   0.038  0.00  0.00    +0.037 C 
ATOM     26  C   UNL     1      -2.188   1.063  -1.221  0.00  0.00    +0.029 C 
ATOM     27  C   UNL     1      -0.753   1.593  -1.232  0.00  0.00    -0.008 C 
ATOM     28  C   UNL     1      -0.013   1.086   0.008  0.00  0.00    +0.007 C 
ATOM     29  C   UNL     1      -0.729   1.579   1.267  0.00  0.00    -0.008 C 
ATOM     30  C   UNL     1      -2.164   1.050   1.278  0.00  0.00    +0.029 C 
ATOM     31  C   UNL     1      -0.750   3.109   1.275  0.00  0.00    +0.007 C 
ATOM     32  C   UNL     1      -1.490   3.616   0.036  0.00  0.00    -0.008 C 
ATOM     33  C   UNL     1      -0.773   3.123  -1.223  0.00  0.00    +0.007 C 
ATOM     34  C   UNL     1      -2.925   3.086   0.047  0.00  0.00    +0.029 C 
ENDBRANCH  22  25
ENDBRANCH  18  19
ENDBRANCH   1  18
TORSDOF 7
