REMARK  Name = ZINC08236667
REMARK  6 active torsions:
REMARK  status: ('A' for Active; 'I' for Inactive)
REMARK    1  A    between atoms: C_1  and  C_2
REMARK    2  A    between atoms: C_5  and  C_12
REMARK    3  A    between atoms: C_9  and  C_10
REMARK    4  A    between atoms: C_9  and  C_11
REMARK    5  A    between atoms: N_14  and  N_15
REMARK    6  A    between atoms: C_16  and  C_18
REMARK                            x       y       z     vdW  Elec       q    Type
REMARK                         _______ _______ _______ _____ _____    ______ ____
ROOT
ATOM      1  C   UNL     1      -1.716  -2.789   0.797  0.00  0.00    +0.237 C 
ATOM      2  O   UNL     1      -2.901  -2.536   0.856  0.00  0.00    -0.274 OA
ATOM      3  N   UNL     1      -1.265  -3.999   1.182  0.00  0.00    -0.234 N 
ATOM      4  H   UNL     1      -0.318  -4.202   1.135  0.00  0.00    +0.173 HD
ENDROOT
BRANCH   1   9
ATOM      5  C   UNL     1       0.610   1.482   0.259  0.00  0.00    +0.013 C 
ATOM      6  C   UNL     1       0.217   0.019   0.067  0.00  0.00    -0.013 C 
ATOM      7  C   UNL     1       1.070  -0.843  -0.945  0.00  0.00    +0.009 C 
ATOM      8  C   UNL     1       0.325  -2.207  -0.771  0.00  0.00    +0.018 C 
ATOM      9  C   UNL     1      -0.750  -1.753   0.292  0.00  0.00    +0.067 C 
ATOM     10  C   UNL     1       0.151  -0.957   1.262  0.00  0.00    +0.079 C 
ATOM     11 BR   UNL     1      -0.662  -0.302   2.914  0.00  0.00    -0.086 Br
ATOM     12  C   UNL     1      -1.265  -0.370  -0.198  0.00  0.00    -0.013 C 
ATOM     13  C   UNL     1      -1.650  -0.349  -1.690  0.00  0.00    +0.012 C 
ATOM     14  C   UNL     1      -2.324   0.317   0.652  0.00  0.00    +0.012 C 
ENDBRANCH   1   9
BRANCH   3  15
ATOM     15  N   UNL     1      -2.165  -4.965   1.652  0.00  0.00    -0.230 N 
ATOM     16  C   UNL     1      -1.714  -6.175   2.038  0.00  0.00    +0.261 C 
ATOM     17  O   UNL     1      -0.527  -6.429   1.978  0.00  0.00    -0.269 OA
ATOM     18  H   UNL     1      -3.113  -4.763   1.700  0.00  0.00    +0.173 HD
BRANCH  16  19
ATOM     19  C   UNL     1      -2.662  -7.192   2.532  0.00  0.00    +0.046 A 
ATOM     20  C   UNL     1      -4.028  -6.957   2.489  0.00  0.00    +0.014 A 
ATOM     21  C   UNL     1      -4.925  -7.910   2.953  0.00  0.00    +0.001 A 
ATOM     22  C   UNL     1      -4.492  -9.098   3.463  0.00  0.00    +0.008 A 
ATOM     23  C   UNL     1      -3.116  -9.378   3.526  0.00  0.00    -0.017 A 
ATOM     24  C   UNL     1      -2.186  -8.422   3.052  0.00  0.00    -0.006 A 
ATOM     25  C   UNL     1      -0.815  -8.705   3.111  0.00  0.00    +0.009 A 
ATOM     26  C   UNL     1      -0.393  -9.897   3.617  0.00  0.00    +0.001 A 
ATOM     27  C   UNL     1      -1.307 -10.843   4.078  0.00  0.00    +0.001 A 
ATOM     28  C   UNL     1      -2.645 -10.595   4.048  0.00  0.00    +0.008 A 
ENDBRANCH  16  19
ENDBRANCH   3  15
TORSDOF 3
