REMARK  Name = ZINC13108723
REMARK  15 active torsions:
REMARK  status: ('A' for Active; 'I' for Inactive)
REMARK    1  A    between atoms: C_1  and  C_2
REMARK    2  A    between atoms: C_9  and  C_11
REMARK    3  A    between atoms: C_11  and  O_13
REMARK    4  A    between atoms: O_13  and  C_14
REMARK    5  A    between atoms: C_14  and  C_15
REMARK    6  A    between atoms: N_17  and  C_18
REMARK    7  A    between atoms: N_17  and  C_22
REMARK    8  A    between atoms: C_18  and  C_19
REMARK    9  A    between atoms: C_19  and  O_20
REMARK   10  A    between atoms: O_20  and  C_21
REMARK   11  A    between atoms: C_23  and  N_35
REMARK   12  A    between atoms: N_24  and  C_31
REMARK   13  A    between atoms: C_31  and  C_32
REMARK   14  A    between atoms: C_32  and  C_33
REMARK   15  A    between atoms: C_32  and  C_34
REMARK                            x       y       z     vdW  Elec       q    Type
REMARK                         _______ _______ _______ _____ _____    ______ ____
ROOT
ATOM      1  C   UNL     1       0.082   4.222   0.147  0.00  0.00    +0.258 C 
ATOM      2  O   UNL     1      -0.991   3.688   0.338  0.00  0.00    -0.272 OA
ATOM      3  N   UNL     1       1.194   3.470   0.011  0.00  0.00    -0.259 N 
ENDROOT
BRANCH   3   4
ATOM      4  C   UNL     1       1.097   2.063  -0.007  0.00  0.00    +0.140 A 
ATOM      5  C   UNL     1       1.658   1.308   1.002  0.00  0.00    +0.127 A 
ATOM      6  N   UNL     1       1.546  -0.062   0.957  0.00  0.00    -0.280 N 
ATOM      7  C   UNL     1       0.898  -0.659  -0.059  0.00  0.00    +0.331 A 
ATOM      8  O   UNL     1       0.810  -1.872  -0.081  0.00  0.00    -0.246 OA
ATOM      9  N   UNL     1       0.345   0.060  -1.051  0.00  0.00    -0.273 N 
ATOM     10  H   UNL     1      -0.132  -0.408  -1.795  0.00  0.00    +0.173 HD
ATOM     11  C   UNL     1       0.426   1.405  -1.055  0.00  0.00    +0.277 A 
ATOM     12  O   UNL     1      -0.079   2.048  -1.960  0.00  0.00    -0.266 OA
BRANCH   5  13
ATOM     13  N   UNL     1       2.316   1.918   2.043  0.00  0.00    -0.343 N 
ATOM     14  H   UNL     1       2.642   1.388   2.788  0.00  0.00    +0.144 HD
ATOM     15  H   UNL     1       2.454   2.878   2.034  0.00  0.00    +0.144 HD
ENDBRANCH   5  13
BRANCH   6  16
ATOM     16  C   UNL     1       2.137  -0.877   2.023  0.00  0.00    +0.131 C 
BRANCH  16  17
ATOM     17  C   UNL     1       1.108  -1.084   3.136  0.00  0.00    +0.003 C 
ATOM     18  C   UNL     1      -0.065  -1.907   2.600  0.00  0.00    +0.009 C 
ATOM     19  C   UNL     1       1.762  -1.827   4.303  0.00  0.00    +0.009 C 
ENDBRANCH  16  17
ENDBRANCH   6  16
ENDBRANCH   3   4
BRANCH   1  20
ATOM     20  C   UNL     1       0.172   5.724   0.064  0.00  0.00    +0.328 C 
BRANCH  20  21
ATOM     21  O   UNL     1      -1.149   6.299   0.240  0.00  0.00    -0.451 OA
BRANCH  21  22
ATOM     22  C   UNL     1      -1.244   7.644   0.192  0.00  0.00    +0.346 C 
ATOM     23  O   UNL     1      -0.248   8.317   0.007  0.00  0.00    -0.244 OA
BRANCH  22  31
ATOM     24  C   UNL     1      -6.650  12.939   0.476  0.00  0.00    +0.008 C 
ATOM     25  C   UNL     1      -6.147  11.505   0.302  0.00  0.00    -0.009 C 
ATOM     26  C   UNL     1      -6.857  10.592   1.306  0.00  0.00    +0.009 C 
ATOM     27  C   UNL     1      -6.553   9.131   0.946  0.00  0.00    +0.043 C 
ATOM     28  C   UNL     1      -5.078   8.997   0.722  0.00  0.00    -0.006 A 
ATOM     29  C   UNL     1      -4.178  10.008   0.536  0.00  0.00    -0.036 A 
ATOM     30  C   UNL     1      -2.855   9.641   0.353  0.00  0.00    +0.026 A 
ATOM     31  C   UNL     1      -2.545   8.293   0.363  0.00  0.00    +0.097 A 
ATOM     32  S   UNL     1      -4.144   7.552   0.644  0.00  0.00    -0.086 S 
ATOM     33  C   UNL     1      -4.637  11.464   0.538  0.00  0.00    +0.039 C 
ENDBRANCH  22  31
ENDBRANCH  21  22
ENDBRANCH  20  21
ENDBRANCH   1  20
BRANCH   3  34
ATOM     34  C   UNL     1       2.503   4.116  -0.119  0.00  0.00    +0.142 C 
BRANCH  34  35
ATOM     35  C   UNL     1       2.871   4.231  -1.599  0.00  0.00    +0.178 C 
BRANCH  35  36
ATOM     36  O   UNL     1       1.950   5.108  -2.252  0.00  0.00    -0.381 OA
ATOM     37  C   UNL     1       2.206   5.285  -3.647  0.00  0.00    +0.194 C 
ENDBRANCH  35  36
ENDBRANCH  34  35
ENDBRANCH   3  34
TORSDOF 11
