REMARK  Name = ZINC66740431
REMARK  3 active torsions:
REMARK  status: ('A' for Active; 'I' for Inactive)
REMARK    1  A    between atoms: C_1  and  C_2
REMARK    2  A    between atoms: C_11  and  C_14
REMARK    3  A    between atoms: C_16  and  N_22
REMARK                            x       y       z     vdW  Elec       q    Type
REMARK                         _______ _______ _______ _____ _____    ______ ____
ROOT
ATOM      1  C   UNL     1      -0.018   1.503   0.010  0.00  0.00    +0.067 C 
ATOM      2  C   UNL     1       0.002  -0.004   0.002  0.00  0.00    +0.055 A 
ATOM      3  C   UNL     1       0.008  -0.795  -1.075  0.00  0.00    +0.082 A 
ATOM      4  C   UNL     1       0.022  -2.138  -0.574  0.00  0.00    +0.168 A 
ATOM      5  N   UNL     1       0.032  -2.062   0.724  0.00  0.00    -0.167 NA
ATOM      6  N   UNL     1       0.024  -0.824   1.094  0.00  0.00    -0.279 N 
ATOM      7  H   UNL     1       0.030  -0.521   2.015  0.00  0.00    +0.189 HD
ATOM      8  C   UNL     1       0.015  -3.268  -1.523  0.00  0.00    +0.268 C 
ATOM      9  O   UNL     1      -0.148  -4.413  -1.149  0.00  0.00    -0.268 OA
ATOM     10  N   UNL     1       0.198  -2.968  -2.831  0.00  0.00    -0.288 N 
ATOM     11  C   UNL     1       0.567  -1.639  -3.303  0.00  0.00    +0.193 C 
ATOM     12  N   UNL     1       0.007  -0.571  -2.459  0.00  0.00    -0.319 N 
ATOM     13  H   UNL     1       0.077  -3.673  -3.486  0.00  0.00    +0.151 HD
ATOM     14  H   UNL     1      -0.344   0.248  -2.841  0.00  0.00    +0.148 HD
ENDROOT
BRANCH  11  15
ATOM     15  C   UNL     1       2.070  -1.522  -3.306  0.00  0.00    +0.028 A 
ATOM     16  C   UNL     1       2.851  -2.656  -3.417  0.00  0.00    +0.045 A 
ATOM     17  C   UNL     1       4.229  -2.550  -3.419  0.00  0.00    +0.162 A 
ATOM     18  C   UNL     1       4.828  -1.306  -3.309  0.00  0.00    +0.156 A 
ATOM     19  C   UNL     1       4.046  -0.169  -3.198  0.00  0.00    +0.079 A 
ATOM     20  C   UNL     1       2.666  -0.277  -3.202  0.00  0.00    +0.133 A 
ATOM     21  F   UNL     1       1.902   0.833  -3.100  0.00  0.00    -0.205 F 
ATOM     22  F   UNL     1       6.175  -1.202  -3.311  0.00  0.00    -0.203 F 
BRANCH  17  23
ATOM     23  N   UNL     1       5.064  -3.766  -3.538  0.00  0.00    +0.059 N 
ATOM     24  O   UNL     1       4.542  -4.852  -3.633  0.00  0.00    -0.126 OA
ATOM     25  O   UNL     1       6.270  -3.673  -3.540  0.00  0.00    -0.126 OA
ENDBRANCH  17  23
ENDBRANCH  11  15
TORSDOF 2
