REMARK  Name = ZINC06822015
REMARK  15 active torsions:
REMARK  status: ('A' for Active; 'I' for Inactive)
REMARK    1  A    between atoms: C_1  and  C_2
REMARK    2  A    between atoms: C_2  and  C_3
REMARK    3  A    between atoms: C_6  and  N_9
REMARK    4  A    between atoms: N_9  and  C_10
REMARK    5  A    between atoms: C_10  and  C_12
REMARK    6  A    between atoms: C_10  and  C_19
REMARK    7  A    between atoms: C_15  and  O_18
REMARK    8  A    between atoms: N_21  and  C_22
REMARK    9  A    between atoms: C_22  and  C_23
REMARK   10  A    between atoms: C_22  and  C_24
REMARK   11  A    between atoms: C_22  and  C_25
REMARK   12  A    between atoms: C_26  and  C_28
REMARK   13  A    between atoms: C_28  and  N_29
REMARK   14  A    between atoms: C_31  and  C_34
REMARK   15  A    between atoms: C_37  and  C_39
REMARK                            x       y       z     vdW  Elec       q    Type
REMARK                         _______ _______ _______ _____ _____    ______ ____
ROOT
ATOM      1  N   UNL     1      -2.289   2.633   4.995  0.00  0.00    -0.254 N 
ATOM      2  C   UNL     1      -3.135   1.750   5.561  0.00  0.00    +0.244 C 
ATOM      3  O   UNL     1      -3.044   0.569   5.301  0.00  0.00    -0.273 OA
ENDROOT
BRANCH   1   7
ATOM      4  C   UNL     1       0.450   1.351   2.129  0.00  0.00    -0.048 A 
ATOM      5  C   UNL     1       0.892   1.744   3.379  0.00  0.00    +0.005 A 
ATOM      6  C   UNL     1      -0.013   2.174   4.330  0.00  0.00    +0.024 A 
ATOM      7  C   UNL     1      -1.369   2.202   4.033  0.00  0.00    +0.038 A 
ATOM      8  C   UNL     1      -1.811   1.801   2.779  0.00  0.00    +0.024 A 
ATOM      9  C   UNL     1      -0.900   1.377   1.831  0.00  0.00    +0.005 A 
BRANCH   4  11
ATOM     10  C   UNL     1       1.907   2.084   0.262  0.00  0.00    +0.009 C 
ATOM     11  C   UNL     1       1.440   0.887   1.093  0.00  0.00    +0.032 C 
ENDBRANCH   4  11
ENDBRANCH   1   7
BRANCH   1  12
ATOM     12  C   UNL     1      -2.331   4.043   5.388  0.00  0.00    +0.197 C 
BRANCH  12  13
ATOM     13  C   UNL     1      -1.210   4.787   4.710  0.00  0.00    -0.018 A 
ATOM     14  C   UNL     1      -1.107   4.775   3.331  0.00  0.00    +0.009 A 
ATOM     15  C   UNL     1      -0.083   5.461   2.707  0.00  0.00    +0.046 A 
ATOM     16  C   UNL     1       0.850   6.153   3.466  0.00  0.00    +0.117 A 
ATOM     17  C   UNL     1       0.748   6.160   4.849  0.00  0.00    +0.046 A 
ATOM     18  C   UNL     1      -0.282   5.477   5.468  0.00  0.00    +0.009 A 
BRANCH  16  19
ATOM     19  O   UNL     1       1.861   6.823   2.855  0.00  0.00    -0.507 OA
ATOM     20  H   UNL     1       2.659   6.293   2.718  0.00  0.00    +0.292 HD
ENDBRANCH  16  19
ENDBRANCH  12  13
BRANCH  12  21
ATOM     21  C   UNL     1      -3.652   4.640   4.974  0.00  0.00    +0.239 C 
ATOM     22  O   UNL     1      -4.318   4.103   4.115  0.00  0.00    -0.273 OA
ATOM     23  N   UNL     1      -4.093   5.771   5.560  0.00  0.00    -0.309 N 
ATOM     24  H   UNL     1      -3.561   6.201   6.247  0.00  0.00    +0.149 HD
BRANCH  23  25
ATOM     25  C   UNL     1      -5.377   6.351   5.158  0.00  0.00    +0.026 C 
ATOM     26  C   UNL     1      -6.497   5.340   5.415  0.00  0.00    +0.031 C 
ATOM     27  C   UNL     1      -5.640   7.621   5.970  0.00  0.00    +0.031 C 
ATOM     28  C   UNL     1      -5.336   6.698   3.668  0.00  0.00    +0.031 C 
ENDBRANCH  23  25
ENDBRANCH  12  21
ENDBRANCH   1  12
BRANCH   2  29
ATOM     29  C   UNL     1      -4.196   2.230   6.519  0.00  0.00    +0.264 C 
BRANCH  29  30
ATOM     30  N   UNL     1      -4.980   1.087   6.992  0.00  0.00    -0.154 N 
ATOM     31  N   UNL     1      -6.049   0.634   6.433  0.00  0.00    -0.127 NA
ATOM     32  C   UNL     1      -6.469  -0.398   7.141  0.00  0.00    +0.239 A 
ATOM     33  N   UNL     1      -5.605  -0.541   8.158  0.00  0.00    -0.105 NA
ATOM     34  N   UNL     1      -4.712   0.381   8.035  0.00  0.00    -0.045 NA
BRANCH  32  35
ATOM     35  C   UNL     1      -7.660  -1.231   6.869  0.00  0.00    +0.175 A 
ATOM     36  C   UNL     1      -8.077  -2.292   7.609  0.00  0.00    +0.053 A 
ATOM     37  C   UNL     1      -9.245  -2.783   6.992  0.00  0.00    +0.045 A 
ATOM     38  C   UNL     1      -9.476  -2.010   5.913  0.00  0.00    +0.103 A 
ATOM     39  O   UNL     1      -8.516  -1.074   5.841  0.00  0.00    -0.457 OA
ATOM     40  C   UNL     1     -10.621  -2.171   4.946  0.00  0.00    +0.086 C 
ENDBRANCH  32  35
ENDBRANCH  29  30
ENDBRANCH   2  29
TORSDOF 10
