REMARK  Name = ZINC35933313
REMARK  5 active torsions:
REMARK  status: ('A' for Active; 'I' for Inactive)
REMARK    1  A    between atoms: C_1  and  C_2
REMARK    2  A    between atoms: C_7  and  C_8
REMARK    3  A    between atoms: N_17  and  C_18
REMARK    4  A    between atoms: C_18  and  C_19
REMARK    5  A    between atoms: C_27  and  C_29
REMARK                            x       y       z     vdW  Elec       q    Type
REMARK                         _______ _______ _______ _____ _____    ______ ____
ROOT
ATOM      1  C   UNL     1       2.628  -1.948   4.246  0.00  0.00    +0.199 C 
ATOM      2  O   UNL     1       1.939  -2.383   5.145  0.00  0.00    -0.278 OA
ATOM      3  N   UNL     1       3.914  -2.334   4.136  0.00  0.00    -0.300 N 
ATOM      4  C   UNL     1       4.762  -1.810   3.055  0.00  0.00    +0.126 C 
ATOM      5  C   UNL     1       6.013  -1.178   3.677  0.00  0.00    +0.127 C 
ATOM      6  N   UNL     1       6.594  -2.130   4.635  0.00  0.00    -0.295 N 
ATOM      7  C   UNL     1       5.746  -2.653   5.715  0.00  0.00    +0.127 C 
ATOM      8  C   UNL     1       4.496  -3.281   5.097  0.00  0.00    +0.126 C 
ATOM      9  C   UNL     1       7.880  -2.516   4.524  0.00  0.00    +0.247 C 
ATOM     10  O   UNL     1       8.543  -2.158   3.569  0.00  0.00    -0.270 OA
ENDROOT
BRANCH   9  11
ATOM     11  C   UNL     1       8.485  -3.372   5.562  0.00  0.00    +0.045 A 
ATOM     12  C   UNL     1       8.447  -2.991   6.895  0.00  0.00    +0.014 A 
ATOM     13  C   UNL     1       9.015  -3.793   7.877  0.00  0.00    +0.001 A 
ATOM     14  C   UNL     1       9.623  -4.972   7.561  0.00  0.00    +0.008 A 
ATOM     15  C   UNL     1       9.684  -5.397   6.223  0.00  0.00    -0.017 A 
ATOM     16  C   UNL     1       9.106  -4.596   5.208  0.00  0.00    -0.006 A 
ATOM     17  C   UNL     1       9.164  -5.024   3.875  0.00  0.00    +0.009 A 
ATOM     18  C   UNL     1       9.770  -6.206   3.571  0.00  0.00    +0.001 A 
ATOM     19  C   UNL     1      10.334  -6.998   4.568  0.00  0.00    +0.001 A 
ATOM     20  C   UNL     1      10.307  -6.608   5.872  0.00  0.00    +0.008 A 
ENDBRANCH   9  11
BRANCH   1  21
ATOM     21  C   UNL     1       2.045  -0.976   3.253  0.00  0.00    +0.020 C 
BRANCH  21  30
ATOM     22  C   UNL     1       0.043   0.134   2.552  0.00  0.00    -0.005 C 
ATOM     23  C   UNL     1      -1.386   0.482   2.959  0.00  0.00    -0.047 A 
ATOM     24  C   UNL     1      -2.362   0.930   2.073  0.00  0.00    +0.010 A 
ATOM     25  C   UNL     1      -3.607   1.213   2.524  0.00  0.00    +0.045 A 
ATOM     26  S   UNL     1      -3.458   0.853   4.268  0.00  0.00    -0.101 S 
ATOM     27  C   UNL     1      -1.760   0.357   4.264  0.00  0.00    -0.010 A 
ATOM     28  C   UNL     1      -0.895  -0.097   5.395  0.00  0.00    +0.024 C 
ATOM     29  C   UNL     1       0.563  -0.067   4.904  0.00  0.00    -0.072 C 
ATOM     30  N   UNL     1       0.638  -0.718   3.588  0.00  0.00    +0.393 N 
ATOM     31  H   UNL     1       0.140  -1.594   3.624  0.00  0.00    -0.080 HD
BRANCH  22  38
ATOM     32  C   UNL     1       0.003   1.607   0.067  0.00  0.00    +0.044 C 
ATOM     33  C   UNL     1       0.009   0.100   0.049  0.00  0.00    -0.049 A 
ATOM     34  C   UNL     1       0.001  -0.578  -1.156  0.00  0.00    +0.003 A 
ATOM     35  C   UNL     1       0.006  -1.960  -1.172  0.00  0.00    +0.000 A 
ATOM     36  C   UNL     1       0.020  -2.664   0.018  0.00  0.00    +0.000 A 
ATOM     37  C   UNL     1       0.029  -1.987   1.222  0.00  0.00    +0.002 A 
ATOM     38  C   UNL     1       0.028  -0.605   1.238  0.00  0.00    -0.054 A 
ENDBRANCH  22  38
ENDBRANCH  21  30
ENDBRANCH   1  21
TORSDOF 4
