REMARK  Name = ZINC35494169
REMARK  11 active torsions:
REMARK  status: ('A' for Active; 'I' for Inactive)
REMARK    1  A    between atoms: C_1  and  C_2
REMARK    2  A    between atoms: C_2  and  C_4
REMARK    3  A    between atoms: C_8  and  C_37
REMARK    4  A    between atoms: C_17  and  C_36
REMARK    5  A    between atoms: N_21  and  O_22
REMARK    6  A    between atoms: C_23  and  C_34
REMARK    7  A    between atoms: C_23  and  C_35
REMARK    8  A    between atoms: C_28  and  C_33
REMARK    9  A    between atoms: C_29  and  C_32
REMARK   10  A    between atoms: C_37  and  O_39
REMARK   11  A    between atoms: O_39  and  C_40
REMARK                            x       y       z     vdW  Elec       q    Type
REMARK                         _______ _______ _______ _____ _____    ______ ____
ROOT
ATOM      1  C   UNL     1       0.320  -1.246  -0.126  0.00  0.00    +0.019 C 
ATOM      2  C   UNL     1      -1.042  -0.999  -0.834  0.00  0.00    +0.009 C 
ATOM      3  C   UNL     1      -0.715  -0.596  -2.293  0.00  0.00    +0.019 C 
ATOM      4  C   UNL     1       0.710  -1.128  -2.493  0.00  0.00    +0.071 C 
ATOM      5  C   UNL     1       1.373  -0.773  -1.139  0.00  0.00    +0.017 C 
ATOM      6  C   UNL     1       2.736  -1.403  -1.076  0.00  0.00    +0.000 C 
ATOM      7  C   UNL     1       3.395  -1.259   0.290  0.00  0.00    +0.005 C 
ATOM      8  C   UNL     1       3.924   0.158   0.512  0.00  0.00    +0.005 C 
ATOM      9  C   UNL     1       4.981   0.421  -0.559  0.00  0.00    +0.002 C 
ATOM     10  C   UNL     1       5.816   1.658  -0.245  0.00  0.00    -0.025 C 
ATOM     11  C   UNL     1       6.656   1.351   1.016  0.00  0.00    +0.013 C 
ATOM     12  C   UNL     1       7.411   2.607   1.442  0.00  0.00    +0.055 C 
ATOM     13  C   UNL     1       8.216   3.158   0.295  0.00  0.00    +0.063 C 
ATOM     14  N   UNL     1       9.349   3.731   0.544  0.00  0.00    -0.096 NA
ATOM     15  C   UNL     1       7.754   3.071  -1.139  0.00  0.00    +0.010 C 
ATOM     16  C   UNL     1       6.804   1.914  -1.375  0.00  0.00    +0.007 C 
ATOM     17  C   UNL     1       6.087   2.019  -2.717  0.00  0.00    +0.005 C 
ATOM     18  C   UNL     1       5.404   0.671  -3.002  0.00  0.00    +0.008 C 
ATOM     19  C   UNL     1       4.330   0.411  -1.935  0.00  0.00    -0.023 C 
ATOM     20  C   UNL     1       3.643  -0.931  -2.211  0.00  0.00    -0.023 C 
ATOM     21  C   UNL     1       2.949  -0.900  -3.568  0.00  0.00    +0.008 C 
ATOM     22  C   UNL     1       1.494  -0.455  -3.596  0.00  0.00    +0.019 C 
ATOM     23  C   UNL     1       4.750  -2.016  -2.342  0.00  0.00    +0.012 C 
ATOM     24  C   UNL     1       3.290   1.532  -2.072  0.00  0.00    +0.012 C 
ATOM     25  C   UNL     1       9.020   2.838  -2.001  0.00  0.00    +0.017 C 
ATOM     26  C   UNL     1       7.167   4.415  -1.576  0.00  0.00    +0.017 C 
ATOM     27  C   UNL     1       4.948   2.869   0.072  0.00  0.00    +0.012 C 
ENDROOT
BRANCH   1  29
ATOM     28  C   UNL     1       0.205   1.089   1.045  0.00  0.00    +0.039 C 
ATOM     29  C   UNL     1       0.377  -0.406   1.130  0.00  0.00    -0.076 C 
ATOM     30  C   UNL     1       0.575  -0.978   2.292  0.00  0.00    +0.007 C 
ENDBRANCH   1  29
BRANCH  14  31
ATOM     31  O   UNL     1       9.814   3.832   1.878  0.00  0.00    -0.409 OA
ATOM     32  H   UNL     1      10.669   4.275   1.964  0.00  0.00    +0.328 HD
ENDBRANCH  14  31
BRANCH   4  33
ATOM     33  C   UNL     1       0.636  -2.610  -2.729  0.00  0.00    +0.313 C 
ATOM     34  O   UNL     1       0.959  -3.068  -3.799  0.00  0.00    -0.250 OA
BRANCH  33  35
ATOM     35  O   UNL     1       0.212  -3.425  -1.750  0.00  0.00    -0.468 OA
ATOM     36  C   UNL     1       0.168  -4.822  -2.043  0.00  0.00    +0.280 C 
ENDBRANCH  33  35
ENDBRANCH   4  33
TORSDOF 4
