REMARK  Name = ZINC12832880
REMARK  7 active torsions:
REMARK  status: ('A' for Active; 'I' for Inactive)
REMARK    1  A    between atoms: C_1  and  C_2
REMARK    2  A    between atoms: C_12  and  C_14
REMARK    3  A    between atoms: C_14  and  N_66
REMARK    4  A    between atoms: C_15  and  C_16
REMARK    5  A    between atoms: C_15  and  N_66
REMARK    6  A    between atoms: N_20  and  C_21
REMARK    7  A    between atoms: C_27  and  N_66
REMARK                            x       y       z     vdW  Elec       q    Type
REMARK                         _______ _______ _______ _____ _____    ______ ____
ROOT
ATOM      1  N   UNL     1       1.491  -2.970   5.411  0.00  0.00    +0.389 N 
ATOM      2  H   UNL     1       2.005  -2.091   5.543  0.00  0.00    -0.080 HD
ENDROOT
BRANCH   1   3
ATOM      3  C   UNL     1       2.270  -3.851   4.516  0.00  0.00    -0.068 C 
ATOM      4  C   UNL     1       1.650  -5.248   4.466  0.00  0.00    -0.015 C 
ATOM      5  C   UNL     1       2.476  -6.140   3.537  0.00  0.00    -0.002 C 
ATOM      6  C   UNL     1       3.909  -6.237   4.065  0.00  0.00    -0.000 C 
ATOM      7  C   UNL     1       4.529  -4.839   4.115  0.00  0.00    -0.002 C 
ATOM      8  C   UNL     1       3.703  -3.947   5.044  0.00  0.00    -0.015 C 
ENDBRANCH   1   3
BRANCH   1   9
ATOM      9  C   UNL     1       0.176  -2.671   4.806  0.00  0.00    -0.037 C 
BRANCH   9  21
ATOM     10  C   UNL     1       1.114   2.164   0.453  0.00  0.00    +0.046 C 
ATOM     11  C   UNL     1       0.975   0.674   0.271  0.00  0.00    -0.026 A 
ATOM     12  C   UNL     1       1.034   0.123  -0.990  0.00  0.00    +0.005 A 
ATOM     13  C   UNL     1       0.913  -1.248  -1.171  0.00  0.00    +0.001 A 
ATOM     14  C   UNL     1       0.721  -2.076  -0.100  0.00  0.00    +0.010 A 
ATOM     15  C   UNL     1       0.651  -1.538   1.188  0.00  0.00    -0.001 A 
ATOM     16  C   UNL     1       0.780  -0.148   1.376  0.00  0.00    +0.052 A 
ATOM     17  N   UNL     1       0.710   0.377   2.648  0.00  0.00    -0.322 N 
ATOM     18  H   UNL     1       0.799   1.335   2.776  0.00  0.00    +0.169 HD
ATOM     19  C   UNL     1       0.521  -0.418   3.716  0.00  0.00    +0.251 A 
ATOM     20  O   UNL     1       0.465   0.081   4.826  0.00  0.00    -0.268 OA
ATOM     21  C   UNL     1       0.386  -1.817   3.582  0.00  0.00    +0.001 A 
ATOM     22  C   UNL     1       0.445  -2.395   2.357  0.00  0.00    +0.017 A 
ENDBRANCH   9  21
ENDBRANCH   1   9
BRANCH   1  23
ATOM     23  C   UNL     1       1.306  -3.621   6.725  0.00  0.00    +0.001 C 
BRANCH  23  24
ATOM     24  C   UNL     1       0.927  -2.569   7.736  0.00  0.00    +0.135 A 
ATOM     25  N   UNL     1      -0.285  -2.259   8.125  0.00  0.00    -0.115 NA
ATOM     26  N   UNL     1      -0.194  -1.315   8.997  0.00  0.00    -0.023 NA
ATOM     27  N   UNL     1       1.045  -1.016   9.175  0.00  0.00    -0.044 NA
ATOM     28  N   UNL     1       1.768  -1.770   8.418  0.00  0.00    -0.228 N 
BRANCH  28  29
ATOM     29  C   UNL     1       3.230  -1.758   8.319  0.00  0.00    +0.111 C 
ATOM     30  C   UNL     1       3.837  -1.959   9.709  0.00  0.00    +0.027 C 
ATOM     31  C   UNL     1       5.364  -1.946   9.605  0.00  0.00    +0.002 C 
ATOM     32  C   UNL     1       5.825  -0.603   9.036  0.00  0.00    +0.000 C 
ATOM     33  C   UNL     1       5.217  -0.402   7.646  0.00  0.00    +0.002 C 
ATOM     34  C   UNL     1       3.691  -0.415   7.750  0.00  0.00    +0.027 C 
ENDBRANCH  28  29
ENDBRANCH  23  24
ENDBRANCH   1  23
TORSDOF 6
