REMARK  Name = ZINC14374565
REMARK  7 active torsions:
REMARK  status: ('A' for Active; 'I' for Inactive)
REMARK    1  A    between atoms: C_1  and  C_2
REMARK    2  A    between atoms: C_5  and  C_33
REMARK    3  A    between atoms: C_13  and  S_21
REMARK    4  A    between atoms: N_14  and  C_15
REMARK    5  A    between atoms: C_15  and  C_16
REMARK    6  A    between atoms: S_21  and  C_22
REMARK    7  A    between atoms: C_22  and  C_23
REMARK                            x       y       z     vdW  Elec       q    Type
REMARK                         _______ _______ _______ _____ _____    ______ ____
ROOT
ATOM      1  C   UNL     1      -1.594  -1.470  -1.342  0.00  0.00    +0.009 C 
ATOM      2  C   UNL     1      -1.005  -2.000  -0.033  0.00  0.00    +0.004 C 
ATOM      3  C   UNL     1      -1.747  -1.374   1.150  0.00  0.00    +0.009 C 
ATOM      4  C   UNL     1      -1.181  -1.928   2.460  0.00  0.00    +0.004 C 
ATOM      5  C   UNL     1       0.301  -1.558   2.568  0.00  0.00    +0.111 C 
ATOM      6  N   UNL     1       0.996  -2.031   1.363  0.00  0.00    -0.299 N 
ATOM      7  C   UNL     1       0.479  -1.631   0.046  0.00  0.00    +0.111 C 
ATOM      8  C   UNL     1       2.120  -2.840   1.465  0.00  0.00    +0.221 A 
ATOM      9  N   UNL     1       2.121  -4.144   1.590  0.00  0.00    -0.112 NA
ATOM     10  N   UNL     1       3.453  -4.572   1.661  0.00  0.00    -0.121 NA
ATOM     11  C   UNL     1       4.223  -3.514   1.577  0.00  0.00    +0.194 A 
ATOM     12  N   UNL     1       3.419  -2.416   1.448  0.00  0.00    -0.283 N 
ATOM     13  C   UNL     1      -1.946  -1.328   3.641  0.00  0.00    +0.009 C 
ENDROOT
BRANCH  12  14
ATOM     14  C   UNL     1       3.870  -1.029   1.317  0.00  0.00    +0.201 C 
BRANCH  14  15
ATOM     15  C   UNL     1       4.112  -0.448   2.687  0.00  0.00    +0.125 A 
ATOM     16  C   UNL     1       5.275  -0.481   3.361  0.00  0.00    +0.046 A 
ATOM     17  C   UNL     1       5.053   0.175   4.594  0.00  0.00    +0.041 A 
ATOM     18  C   UNL     1       3.767   0.570   4.599  0.00  0.00    +0.195 A 
ATOM     19  O   UNL     1       3.203   0.195   3.439  0.00  0.00    -0.466 OA
ENDBRANCH  14  15
ENDBRANCH  12  14
BRANCH  11  20
ATOM     20  S   UNL     1       5.984  -3.508   1.617  0.00  0.00    -0.077 S 
BRANCH  20  21
ATOM     21  C   UNL     1       6.425  -5.259   1.794  0.00  0.00    +0.173 C 
BRANCH  21  22
ATOM     22  C   UNL     1       7.925  -5.398   1.842  0.00  0.00    +0.229 C 
ATOM     23  O   UNL     1       8.627  -4.412   1.764  0.00  0.00    -0.275 OA
ATOM     24  N   UNL     1       8.485  -6.617   1.971  0.00  0.00    -0.270 N 
ATOM     25  C   UNL     1       9.866  -6.736   2.123  0.00  0.00    +0.125 A 
ATOM     26  C   UNL     1      10.426  -7.986   2.363  0.00  0.00    +0.045 A 
ATOM     27  C   UNL     1      11.798  -8.091   2.512  0.00  0.00    +0.025 A 
ATOM     28  C   UNL     1      12.566  -6.937   2.414  0.00  0.00    +0.059 A 
ATOM     29  C   UNL     1      11.941  -5.728   2.174  0.00  0.00    +0.132 A 
ATOM     30  N   UNL     1      10.631  -5.660   2.031  0.00  0.00    -0.239 NA
ATOM     31 CL   UNL     1      14.291  -7.013   2.593  0.00  0.00    -0.082 Cl
ATOM     32  H   UNL     1       7.928  -7.410   1.959  0.00  0.00    +0.156 HD
ENDBRANCH  21  22
ENDBRANCH  20  21
ENDBRANCH  11  20
TORSDOF 5
