REMARK  Name = ZINC13193815
REMARK  9 active torsions:
REMARK  status: ('A' for Active; 'I' for Inactive)
REMARK    1  A    between atoms: C_1  and  C_2
REMARK    2  A    between atoms: C_4  and  C_13
REMARK    3  A    between atoms: C_6  and  C_12
REMARK    4  A    between atoms: C_7  and  O_8
REMARK    5  A    between atoms: O_8  and  C_9
REMARK    6  A    between atoms: C_15  and  C_30
REMARK    7  A    between atoms: N_19  and  C_20
REMARK    8  A    between atoms: C_24  and  C_26
REMARK    9  A    between atoms: C_30  and  C_32
REMARK                            x       y       z     vdW  Elec       q    Type
REMARK                         _______ _______ _______ _____ _____    ______ ____
ROOT
ATOM      1  C   UNL     1       0.104  -2.778  -2.238  0.00  0.00    +0.150 C 
ATOM      2  C   UNL     1       1.423  -3.181  -2.853  0.00  0.00    +0.077 C 
ATOM      3  C   UNL     1       1.347  -4.508  -3.106  0.00  0.00    +0.250 C 
ATOM      4  C   UNL     1       0.025  -5.008  -2.682  0.00  0.00    +0.292 C 
ATOM      5  O   UNL     1      -0.348  -6.161  -2.778  0.00  0.00    -0.266 OA
ATOM      6  N   UNL     1      -0.708  -3.999  -2.173  0.00  0.00    -0.253 N 
ATOM      7  O   UNL     1       2.328  -5.259  -3.660  0.00  0.00    -0.282 OA
ENDROOT
BRANCH   1  11
ATOM      8  C   UNL     1       0.212   1.107   0.914  0.00  0.00    +0.047 C 
ATOM      9  C   UNL     1       0.376  -0.369   0.655  0.00  0.00    -0.008 A 
ATOM     10  C   UNL     1       0.174  -0.875  -0.614  0.00  0.00    +0.012 A 
ATOM     11  C   UNL     1       0.325  -2.229  -0.852  0.00  0.00    -0.021 A 
ATOM     12  C   UNL     1       0.676  -3.079   0.180  0.00  0.00    +0.012 A 
ATOM     13  C   UNL     1       0.879  -2.578   1.451  0.00  0.00    -0.008 A 
ATOM     14  C   UNL     1       0.734  -1.220   1.691  0.00  0.00    +0.133 A 
ATOM     15  C   UNL     1       1.262  -3.506   2.575  0.00  0.00    +0.047 C 
BRANCH  14  16
ATOM     16  O   UNL     1       0.939  -0.723   2.939  0.00  0.00    -0.434 OA
BRANCH  16  17
ATOM     17  C   UNL     1      -0.193  -0.670   3.810  0.00  0.00    +0.541 C 
ATOM     18  F   UNL     1      -1.182   0.140   3.241  0.00  0.00    -0.166 F 
ATOM     19  F   UNL     1      -0.698  -1.962   3.997  0.00  0.00    -0.166 F 
ENDBRANCH  16  17
ENDBRANCH  14  16
ENDBRANCH   1  11
BRANCH   6  20
ATOM     20  C   UNL     1      -2.010  -4.097  -1.672  0.00  0.00    +0.038 A 
ATOM     21  C   UNL     1      -2.651  -2.966  -1.180  0.00  0.00    +0.023 A 
ATOM     22  C   UNL     1      -3.938  -3.056  -0.683  0.00  0.00    +0.003 A 
ATOM     23  C   UNL     1      -4.595  -4.269  -0.672  0.00  0.00    +0.015 A 
ATOM     24  C   UNL     1      -3.960  -5.412  -1.165  0.00  0.00    +0.065 A 
ATOM     25  C   UNL     1      -2.662  -5.319  -1.672  0.00  0.00    +0.038 A 
BRANCH  24  26
ATOM     26  C   UNL     1      -4.660  -6.711  -1.154  0.00  0.00    +0.387 C 
ATOM     27  O   UNL     1      -5.798  -6.789  -0.714  0.00  0.00    -0.241 OA
ATOM     28  O   UNL     1      -4.102  -7.710  -1.586  0.00  0.00    -0.241 OA
ENDBRANCH  24  26
ENDBRANCH   6  20
BRANCH   2  29
ATOM     29  C   UNL     1       2.567  -2.303  -3.125  0.00  0.00    +0.202 C 
ATOM     30  O   UNL     1       3.615  -2.465  -2.525  0.00  0.00    -0.286 OA
BRANCH  29  31
ATOM     31  C   UNL     1       2.449  -1.232  -4.118  0.00  0.00    +0.059 A 
ATOM     32  C   UNL     1       3.417  -0.340  -4.563  0.00  0.00    +0.019 A 
ATOM     33  C   UNL     1       3.003   0.563  -5.512  0.00  0.00    +0.008 A 
ATOM     34  C   UNL     1       1.716   0.526  -5.940  0.00  0.00    +0.046 A 
ATOM     35  S   UNL     1       1.028  -0.739  -5.075  0.00  0.00    -0.093 S 
ENDBRANCH  29  31
ENDBRANCH   2  29
TORSDOF 7
