REMARK  Name = ZINC22914707
REMARK  10 active torsions:
REMARK  status: ('A' for Active; 'I' for Inactive)
REMARK    1  A    between atoms: C_9  and  C_12
REMARK    2  A    between atoms: C_12  and  O_13
REMARK    3  A    between atoms: O_13  and  C_14
REMARK    4  A    between atoms: C_14  and  C_15
REMARK    5  A    between atoms: C_15  and  C_17
REMARK    6  A    between atoms: C_15  and  O_41
REMARK    7  A    between atoms: C_17  and  N_18
REMARK    8  A    between atoms: N_21  and  C_24
REMARK    9  A    between atoms: C_24  and  C_25
REMARK   10  A    between atoms: C_25  and  N_26
REMARK                            x       y       z     vdW  Elec       q    Type
REMARK                         _______ _______ _______ _____ _____    ______ ____
ROOT
ATOM      1  N   UNL     1      -1.489  10.064  -1.690  0.00  0.00    -0.303 NA
ATOM      2  C   UNL     1      -1.190  10.029  -3.129  0.00  0.00    +0.066 C 
ATOM      3  C   UNL     1      -2.453  10.380  -3.918  0.00  0.00    -0.063 C 
ATOM      4  N   UNL     1      -2.927  11.711  -3.514  0.00  0.00    +0.382 N 
ATOM      5  C   UNL     1      -3.226  11.745  -2.075  0.00  0.00    -0.063 C 
ATOM      6  C   UNL     1      -1.962  11.395  -1.286  0.00  0.00    +0.066 C 
ATOM      7  H   UNL     1      -2.121  12.433  -3.711  0.00  0.00    -0.082 HD
ENDROOT
BRANCH   1   8
ATOM      8  C   UNL     1      -0.319   9.659  -0.900  0.00  0.00    +0.117 C 
BRANCH   8   9
ATOM      9  C   UNL     1      -0.771   9.235   0.499  0.00  0.00    +0.154 C 
BRANCH   9  10
ATOM     10  O   UNL     1      -1.669   8.129   0.395  0.00  0.00    -0.388 OA
ATOM     11  H   UNL     1      -2.608   8.234  -0.167  0.00  0.00    +0.210 HD
ENDBRANCH   9  10
BRANCH   9  12
ATOM     12  C   UNL     1       0.449   8.826   1.327  0.00  0.00    +0.192 C 
BRANCH  12  13
ATOM     13  O   UNL     1       0.042   8.542   2.667  0.00  0.00    -0.373 OA
BRANCH  13  14
ATOM     14  C   UNL     1       1.112   8.148   3.529  0.00  0.00    +0.207 C 
BRANCH  14  23
ATOM     15  C   UNL     1      -0.683   9.080   9.568  0.00  0.00    +0.004 A 
ATOM     16  C   UNL     1      -1.217  10.067   8.761  0.00  0.00    +0.004 A 
ATOM     17  C   UNL     1      -0.964  10.064   7.402  0.00  0.00    +0.049 A 
ATOM     18  C   UNL     1      -0.171   9.072   6.845  0.00  0.00    +0.163 A 
ATOM     19  C   UNL     1       0.365   8.079   7.657  0.00  0.00    +0.162 A 
ATOM     20  C   UNL     1       0.106   8.087   9.019  0.00  0.00    +0.049 A 
ATOM     21  O   UNL     1       1.141   7.092   7.130  0.00  0.00    -0.485 OA
ATOM     22  C   UNL     1       1.684   7.327   5.826  0.00  0.00    +0.276 C 
ATOM     23  C   UNL     1       0.563   7.870   4.929  0.00  0.00    +0.236 C 
ATOM     24  O   UNL     1       0.076   9.086   5.507  0.00  0.00    -0.479 OA
ENDBRANCH  14  23
ENDBRANCH  13  14
ENDBRANCH  12  13
ENDBRANCH   9  12
ENDBRANCH   8   9
ENDBRANCH   1   8
BRANCH   4  25
ATOM     25  C   UNL     1      -4.097  12.116  -4.305  0.00  0.00    -0.059 C 
BRANCH  25  26
ATOM     26  C   UNL     1      -3.835  11.831  -5.785  0.00  0.00    +0.098 C 
BRANCH  26  27
ATOM     27  N   UNL     1      -5.002  12.235  -6.574  0.00  0.00    -0.236 N 
ATOM     28  C   UNL     1      -5.975  11.332  -6.801  0.00  0.00    +0.254 C 
ATOM     29  O   UNL     1      -5.872  10.206  -6.353  0.00  0.00    -0.270 OA
ATOM     30  C   UNL     1      -7.163  11.702  -7.584  0.00  0.00    +0.046 A 
ATOM     31  C   UNL     1      -8.191  10.805  -7.839  0.00  0.00    +0.014 A 
ATOM     32  C   UNL     1      -9.292  11.200  -8.589  0.00  0.00    +0.001 A 
ATOM     33  C   UNL     1      -9.398  12.465  -9.093  0.00  0.00    +0.008 A 
ATOM     34  C   UNL     1      -8.379  13.404  -8.857  0.00  0.00    -0.016 A 
ATOM     35  C   UNL     1      -7.256  13.015  -8.098  0.00  0.00    +0.006 A 
ATOM     36  C   UNL     1      -6.214  13.936  -7.844  0.00  0.00    +0.046 A 
ATOM     37  C   UNL     1      -6.314  15.223  -8.353  0.00  0.00    +0.014 A 
ATOM     38  C   UNL     1      -7.426  15.594  -9.100  0.00  0.00    +0.001 A 
ATOM     39  C   UNL     1      -8.442  14.717  -9.354  0.00  0.00    +0.008 A 
ATOM     40  C   UNL     1      -5.059  13.494  -7.049  0.00  0.00    +0.254 C 
ATOM     41  O   UNL     1      -4.151  14.269  -6.819  0.00  0.00    -0.270 OA
ENDBRANCH  26  27
ENDBRANCH  25  26
ENDBRANCH   4  25
TORSDOF 10
