REMARK  Name = ZINC34953610
REMARK  10 active torsions:
REMARK  status: ('A' for Active; 'I' for Inactive)
REMARK    1  A    between atoms: C_1  and  C_2
REMARK    2  A    between atoms: C_2  and  O_3
REMARK    3  A    between atoms: O_3  and  C_4
REMARK    4  A    between atoms: C_4  and  C_6
REMARK    5  A    between atoms: C_7  and  C_36
REMARK    6  A    between atoms: C_12  and  C_29
REMARK    7  A    between atoms: C_14  and  C_15
REMARK    8  A    between atoms: C_15  and  C_16
REMARK    9  A    between atoms: C_18  and  C_23
REMARK   10  A    between atoms: C_21  and  C_22
REMARK                            x       y       z     vdW  Elec       q    Type
REMARK                         _______ _______ _______ _____ _____    ______ ____
ROOT
ATOM      1  C   UNL     1      -2.857  -1.525   0.355  0.00  0.00    +0.120 A 
ATOM      2  C   UNL     1      -3.040  -2.873   0.636  0.00  0.00    +0.062 A 
ATOM      3  N   UNL     1      -4.277  -3.300   0.651  0.00  0.00    -0.229 NA
ATOM      4  C   UNL     1      -5.291  -2.489   0.409  0.00  0.00    +0.169 A 
ATOM      5  S   UNL     1      -4.551  -1.001   0.141  0.00  0.00    -0.045 S 
ATOM      6  N   UNL     1      -6.640  -2.789   0.389  0.00  0.00    -0.232 N 
ATOM      7  C   UNL     1      -7.730  -1.847   0.108  0.00  0.00    +0.154 C 
ATOM      8  C   UNL     1      -9.010  -2.644   0.203  0.00  0.00    +0.077 C 
ATOM      9  C   UNL     1      -8.657  -3.915   0.509  0.00  0.00    +0.250 C 
ATOM     10  O   UNL     1      -9.514  -4.946   0.682  0.00  0.00    -0.282 OA
ATOM     11  C   UNL     1      -7.186  -3.997   0.617  0.00  0.00    +0.293 C 
ATOM     12  O   UNL     1      -6.561  -5.006   0.875  0.00  0.00    -0.266 OA
ATOM     13  C   UNL     1      -1.879  -3.793   0.910  0.00  0.00    +0.067 C 
ENDROOT
BRANCH   7  14
ATOM     14  C   UNL     1      -7.732  -0.739   1.130  0.00  0.00    +0.013 A 
ATOM     15  C   UNL     1      -7.253  -0.973   2.405  0.00  0.00    +0.008 A 
ATOM     16  C   UNL     1      -7.256   0.044   3.342  0.00  0.00    +0.001 A 
ATOM     17  C   UNL     1      -7.737   1.295   3.005  0.00  0.00    +0.003 A 
ATOM     18  C   UNL     1      -8.216   1.532   1.730  0.00  0.00    +0.039 A 
ATOM     19  C   UNL     1      -8.210   0.516   0.789  0.00  0.00    +0.129 A 
ATOM     20  F   UNL     1      -8.673   0.747  -0.459  0.00  0.00    -0.205 F 
ENDBRANCH   7  14
BRANCH   1  21
ATOM     21  C   UNL     1      -1.622  -0.750   0.265  0.00  0.00    +0.348 C 
ATOM     22  O   UNL     1      -0.548  -1.293   0.445  0.00  0.00    -0.244 OA
BRANCH  21  23
ATOM     23  O   UNL     1      -1.672   0.568  -0.019  0.00  0.00    -0.461 OA
BRANCH  23  25
ATOM     24  C   UNL     1      -0.682   2.736  -0.420  0.00  0.00    +0.048 C 
ATOM     25  C   UNL     1      -0.425   1.264  -0.091  0.00  0.00    +0.229 C 
ENDBRANCH  23  25
ENDBRANCH  21  23
ENDBRANCH   1  21
BRANCH   8  26
ATOM     26  C   UNL     1     -10.371  -2.139   0.002  0.00  0.00    +0.195 C 
ATOM     27  O   UNL     1     -10.548  -0.978  -0.318  0.00  0.00    -0.287 OA
BRANCH  26  28
ATOM     28  C   UNL     1     -11.529  -3.039   0.188  0.00  0.00    +0.025 A 
ATOM     29  C   UNL     1     -12.313  -2.945   1.339  0.00  0.00    +0.015 A 
ATOM     30  C   UNL     1     -13.392  -3.788   1.506  0.00  0.00    -0.050 A 
ATOM     31  C   UNL     1     -13.698  -4.726   0.535  0.00  0.00    +0.003 A 
ATOM     32  C   UNL     1     -12.924  -4.825  -0.608  0.00  0.00    +0.004 A 
ATOM     33  C   UNL     1     -11.846  -3.985  -0.790  0.00  0.00    -0.040 A 
ATOM     34  C   UNL     1     -11.008  -4.091  -2.038  0.00  0.00    +0.044 C 
ATOM     35  C   UNL     1     -14.240  -3.687   2.748  0.00  0.00    +0.044 C 
ENDBRANCH  26  28
ENDBRANCH   8  26
TORSDOF 6
