REMARK  Name = ZINC39668020
REMARK  11 active torsions:
REMARK  status: ('A' for Active; 'I' for Inactive)
REMARK    1  A    between atoms: C_1  and  C_2
REMARK    2  A    between atoms: C_5  and  C_18
REMARK    3  A    between atoms: C_6  and  C_17
REMARK    4  A    between atoms: N_8  and  C_9
REMARK    5  A    between atoms: C_18  and  C_20
REMARK    6  A    between atoms: C_20  and  S_21
REMARK    7  A    between atoms: S_21  and  C_22
REMARK    8  A    between atoms: C_26  and  C_30
REMARK    9  A    between atoms: C_27  and  C_29
REMARK   10  A    between atoms: C_30  and  C_31
REMARK   11  A    between atoms: C_31  and  C_32
REMARK                            x       y       z     vdW  Elec       q    Type
REMARK                         _______ _______ _______ _____ _____    ______ ____
ROOT
ATOM      1  C   UNL     1      -2.857  -1.982   1.462  0.00  0.00    +0.171 C 
ATOM      2  O   UNL     1      -3.860  -1.790   0.807  0.00  0.00    -0.291 OA
ENDROOT
BRANCH   1   6
ATOM      3  C   UNL     1      -0.057   1.548   0.094  0.00  0.00    +0.032 C 
ATOM      4  C   UNL     1      -0.034   0.020   0.036  0.00  0.00    +0.094 C 
ATOM      5  C   UNL     1      -1.441  -0.515   0.051  0.00  0.00    +0.004 C 
ATOM      6  C   UNL     1      -1.615  -1.290   1.117  0.00  0.00    +0.014 C 
ATOM      7  C   UNL     1      -0.340  -1.347   1.917  0.00  0.00    +0.104 C 
ATOM      8  N   UNL     1       0.653  -0.515   1.219  0.00  0.00    -0.317 N 
ATOM      9  C   UNL     1      -0.584  -0.803   3.325  0.00  0.00    +0.033 C 
BRANCH   8  10
ATOM     10  C   UNL     1       1.976  -0.280   1.601  0.00  0.00    +0.033 A 
ATOM     11  C   UNL     1       2.482  -0.869   2.753  0.00  0.00    +0.043 A 
ATOM     12  C   UNL     1       3.791  -0.635   3.129  0.00  0.00    +0.044 A 
ATOM     13  C   UNL     1       4.598   0.185   2.359  0.00  0.00    +0.040 A 
ATOM     14  C   UNL     1       4.096   0.773   1.211  0.00  0.00    +0.044 A 
ATOM     15  C   UNL     1       2.789   0.538   0.828  0.00  0.00    +0.043 A 
ATOM     16 CL   UNL     1       5.111   1.801   0.249  0.00  0.00    -0.083 Cl
ATOM     17 CL   UNL     1       4.425  -1.370   4.569  0.00  0.00    -0.083 Cl
ENDBRANCH   8  10
ENDBRANCH   1   6
BRANCH   1  18
ATOM     18  C   UNL     1      -2.890  -2.933   2.631  0.00  0.00    +0.156 C 
BRANCH  18  19
ATOM     19  S   UNL     1      -4.507  -3.753   2.697  0.00  0.00    -0.078 S 
BRANCH  19  20
ATOM     20  C   UNL     1      -4.388  -4.816   4.097  0.00  0.00    +0.192 A 
ATOM     21  N   UNL     1      -3.265  -4.837   4.800  0.00  0.00    -0.183 NA
ATOM     22  C   UNL     1      -3.144  -5.628   5.859  0.00  0.00    +0.277 A 
ATOM     23  O   UNL     1      -1.994  -5.646   6.575  0.00  0.00    -0.265 OA
ATOM     24  C   UNL     1      -4.218  -6.438   6.225  0.00  0.00    +0.040 A 
ATOM     25  C   UNL     1      -5.372  -6.387   5.467  0.00  0.00    +0.049 A 
ATOM     26  N   UNL     1      -5.427  -5.572   4.425  0.00  0.00    -0.227 NA
ATOM     27  C   UNL     1      -6.558  -7.245   5.825  0.00  0.00    +0.066 C 
BRANCH  24  28
ATOM     28  C   UNL     1      -4.122  -7.350   7.421  0.00  0.00    +0.054 C 
BRANCH  28  29
ATOM     29  C   UNL     1      -4.597  -6.605   8.670  0.00  0.00    +0.130 C 
BRANCH  29  30
ATOM     30  C   UNL     1      -4.501  -7.516   9.866  0.00  0.00    +0.356 C 
ATOM     31  O   UNL     1      -4.090  -8.657   9.732  0.00  0.00    -0.246 OA
ATOM     32  O   UNL     1      -4.833  -7.114  10.968  0.00  0.00    -0.246 OA
ENDBRANCH  29  30
ENDBRANCH  28  29
ENDBRANCH  24  28
ENDBRANCH  19  20
ENDBRANCH  18  19
ENDBRANCH   1  18
TORSDOF 8
