REMARK  Name = ZINC15959861
REMARK  5 active torsions:
REMARK  status: ('A' for Active; 'I' for Inactive)
REMARK    1  A    between atoms: C_6  and  C_7
REMARK    2  A    between atoms: C_7  and  N_8
REMARK    3  A    between atoms: C_13  and  C_31
REMARK    4  A    between atoms: C_31  and  C_32
REMARK    5  A    between atoms: C_32  and  C_33
REMARK                            x       y       z     vdW  Elec       q    Type
REMARK                         _______ _______ _______ _____ _____    ______ ____
ROOT
ATOM      1  N   UNL     1      -1.727  -1.016  -1.368  0.00  0.00    -0.237 N 
ATOM      2  C   UNL     1      -2.510  -0.165  -2.040  0.00  0.00    +0.227 C 
ATOM      3  O   UNL     1      -2.944   0.880  -1.605  0.00  0.00    -0.275 OA
ATOM      4  C   UNL     1      -2.771  -0.709  -3.427  0.00  0.00    +0.107 C 
ATOM      5  C   UNL     1      -4.257  -1.110  -3.542  0.00  0.00    +0.068 C 
ATOM      6  N   UNL     1      -4.241  -2.452  -4.183  0.00  0.00    -0.295 NA
ATOM      7  C   UNL     1      -3.079  -3.129  -3.577  0.00  0.00    +0.136 C 
ATOM      8  C   UNL     1      -1.979  -2.047  -3.440  0.00  0.00    +0.122 C 
ATOM      9  C   UNL     1      -1.366  -2.103  -2.060  0.00  0.00    +0.229 C 
ATOM     10  O   UNL     1      -0.659  -2.995  -1.643  0.00  0.00    -0.275 OA
ATOM     11  C   UNL     1      -2.611  -4.280  -4.421  0.00  0.00    +0.005 A 
ATOM     12  C   UNL     1      -2.158  -4.381  -5.717  0.00  0.00    +0.027 A 
ATOM     13  C   UNL     1      -1.790  -5.615  -6.228  0.00  0.00    +0.041 A 
ATOM     14  C   UNL     1      -1.879  -6.743  -5.431  0.00  0.00    +0.022 A 
ATOM     15  C   UNL     1      -2.331  -6.645  -4.132  0.00  0.00    +0.025 A 
ATOM     16  C   UNL     1      -2.704  -5.408  -3.611  0.00  0.00    +0.039 A 
ATOM     17  N   UNL     1      -3.184  -5.056  -2.347  0.00  0.00    -0.283 N 
ATOM     18  C   UNL     1      -3.431  -3.736  -2.246  0.00  0.00    +0.243 C 
ATOM     19  O   UNL     1      -3.854  -3.151  -1.272  0.00  0.00    -0.273 OA
ATOM     20 CL   UNL     1      -1.220  -5.746  -7.862  0.00  0.00    -0.084 Cl
ATOM     21  H   UNL     1      -5.094  -2.955  -3.989  0.00  0.00    +0.123 HD
ATOM     22  H   UNL     1      -3.324  -5.690  -1.626  0.00  0.00    +0.155 HD
ENDROOT
BRANCH   1  23
ATOM     23  C   UNL     1      -1.294  -0.774   0.010  0.00  0.00    +0.151 C 
BRANCH  23  29
ATOM     24  C   UNL     1      -0.017   1.378   0.010  0.00  0.00    +0.009 A 
ATOM     25  C   UNL     1       1.170   2.088   0.002  0.00  0.00    +0.050 A 
ATOM     26  C   UNL     1       2.380   1.416  -0.013  0.00  0.00    +0.166 A 
ATOM     27  C   UNL     1       2.399   0.023  -0.021  0.00  0.00    +0.167 A 
ATOM     28  C   UNL     1       1.207  -0.682  -0.014  0.00  0.00    +0.054 A 
ATOM     29  C   UNL     1       0.002  -0.004   0.002  0.00  0.00    -0.026 A 
ATOM     30  O   UNL     1       3.698  -0.395  -0.036  0.00  0.00    -0.453 OA
ATOM     31  C   UNL     1       4.466   0.750  -0.450  0.00  0.00    +0.466 C 
ATOM     32  O   UNL     1       3.668   1.870  -0.024  0.00  0.00    -0.453 OA
ENDBRANCH  23  29
ENDBRANCH   1  23
BRANCH   5  33
ATOM     33  C   UNL     1      -5.013  -0.109  -4.417  0.00  0.00    +0.031 C 
BRANCH  33  34
ATOM     34  C   UNL     1      -6.504  -0.453  -4.416  0.00  0.00    +0.126 C 
BRANCH  34  35
ATOM     35  C   UNL     1      -7.248   0.533  -5.278  0.00  0.00    +0.356 C 
ATOM     36  O   UNL     1      -6.643   1.429  -5.841  0.00  0.00    -0.246 OA
ATOM     37  O   UNL     1      -8.456   0.436  -5.412  0.00  0.00    -0.246 OA
ENDBRANCH  34  35
ENDBRANCH  33  34
ENDBRANCH   5  33
TORSDOF 5
