REMARK  Name = ZINC11643648
REMARK  11 active torsions:
REMARK  status: ('A' for Active; 'I' for Inactive)
REMARK    1  A    between atoms: C_1  and  C_2
REMARK    2  A    between atoms: C_8  and  C_10
REMARK    3  A    between atoms: C_10  and  S_11
REMARK    4  A    between atoms: S_11  and  C_12
REMARK    5  A    between atoms: C_12  and  C_13
REMARK    6  A    between atoms: C_13  and  O_15
REMARK    7  A    between atoms: O_15  and  C_16
REMARK    8  A    between atoms: C_16  and  C_17
REMARK    9  A    between atoms: C_17  and  N_19
REMARK   10  A    between atoms: N_21  and  C_25
REMARK   11  A    between atoms: C_25  and  C_26
REMARK                            x       y       z     vdW  Elec       q    Type
REMARK                         _______ _______ _______ _____ _____    ______ ____
ROOT
ATOM      1  C   UNL     1      -7.914  -5.622   0.041  0.00  0.00    +0.329 C 
ENDROOT
BRANCH   1   2
ATOM      2  C   UNL     1      -9.364  -6.034   0.067  0.00  0.00    +0.276 C 
ATOM      3  O   UNL     1     -10.236  -5.188   0.126  0.00  0.00    -0.270 OA
BRANCH   2   4
ATOM      4  N   UNL     1      -9.689  -7.320   0.025  0.00  0.00    -0.153 NA
ATOM      5  C   UNL     1     -10.500  -7.772  -0.934  0.00  0.00    +0.166 A 
ATOM      6  N   UNL     1     -10.973  -7.119  -2.033  0.00  0.00    -0.324 N 
ATOM      7  C   UNL     1     -11.797  -7.781  -2.887  0.00  0.00    +0.095 A 
ATOM      8  C   UNL     1     -12.115  -9.052  -2.617  0.00  0.00    +0.066 A 
ATOM      9  S   UNL     1     -11.217  -9.343  -1.103  0.00  0.00    -0.061 S 
BRANCH   6  10
ATOM     10  C   UNL     1     -10.598  -5.726  -2.290  0.00  0.00    +0.160 C 
BRANCH  10  11
ATOM     11  C   UNL     1     -10.732  -5.434  -3.762  0.00  0.00    -0.009 A 
ATOM     12  C   UNL     1      -9.629  -5.532  -4.590  0.00  0.00    +0.007 A 
ATOM     13  C   UNL     1      -9.753  -5.267  -5.941  0.00  0.00    +0.000 A 
ATOM     14  C   UNL     1     -10.977  -4.896  -6.464  0.00  0.00    +0.001 A 
ATOM     15  C   UNL     1     -12.080  -4.792  -5.637  0.00  0.00    +0.020 A 
ATOM     16  C   UNL     1     -11.958  -5.061  -4.285  0.00  0.00    +0.046 A 
ATOM     17 CL   UNL     1     -13.342  -4.931  -3.245  0.00  0.00    -0.083 Cl
ENDBRANCH  10  11
ENDBRANCH   6  10
ENDBRANCH   2   4
ENDBRANCH   1   2
BRANCH   1  18
ATOM     18  O   UNL     1      -7.822  -4.174   0.097  0.00  0.00    -0.455 OA
BRANCH  18  19
ATOM     19  C   UNL     1      -6.590  -3.641   0.082  0.00  0.00    +0.317 C 
ATOM     20  O   UNL     1      -5.621  -4.361   0.025  0.00  0.00    -0.250 OA
BRANCH  19  21
ATOM     21  C   UNL     1      -6.415  -2.146   0.137  0.00  0.00    +0.190 C 
BRANCH  21  22
ATOM     22  S   UNL     1      -4.647  -1.742   0.102  0.00  0.00    -0.140 S 
BRANCH  22  23
ATOM     23  C   UNL     1      -4.609   0.071   0.174  0.00  0.00    +0.165 C 
BRANCH  23  31
ATOM     24  C   UNL     1       2.073   2.072   0.045  0.00  0.00    +0.089 C 
ATOM     25  C   UNL     1       0.600   2.386   0.109  0.00  0.00    +0.136 A 
ATOM     26  C   UNL     1      -0.416   1.494   0.109  0.00  0.00    +0.091 A 
ATOM     27  C   UNL     1      -1.582   2.303   0.175  0.00  0.00    +0.168 A 
ATOM     28  N   UNL     1      -1.165   3.541   0.216  0.00  0.00    -0.063 NA
ATOM     29  O   UNL     1       0.042   3.603   0.177  0.00  0.00    -0.358 OA
ATOM     30  N   UNL     1      -2.906   1.864   0.196  0.00  0.00    -0.267 N 
ATOM     31  C   UNL     1      -3.179   0.545   0.151  0.00  0.00    +0.228 C 
ATOM     32  O   UNL     1      -2.274  -0.261   0.092  0.00  0.00    -0.275 OA
ATOM     33  H   UNL     1      -3.630   2.508   0.243  0.00  0.00    +0.156 HD
ENDBRANCH  23  31
ENDBRANCH  22  23
ENDBRANCH  21  22
ENDBRANCH  19  21
ENDBRANCH  18  19
ENDBRANCH   1  18
TORSDOF 10
