REMARK  Name = ZINC59105866
REMARK  5 active torsions:
REMARK  status: ('A' for Active; 'I' for Inactive)
REMARK    1  A    between atoms: C_5  and  C_7
REMARK    2  A    between atoms: C_7  and  O_8
REMARK    3  A    between atoms: O_8  and  C_9
REMARK    4  A    between atoms: C_12  and  C_16
REMARK    5  A    between atoms: N_22  and  C_23
REMARK                            x       y       z     vdW  Elec       q    Type
REMARK                         _______ _______ _______ _____ _____    ______ ____
ROOT
ATOM      1  C   UNL     1      -0.468  -4.011  -0.104  0.00  0.00    +0.157 A 
ATOM      2  C   UNL     1      -0.852  -4.697  -1.251  0.00  0.00    +0.085 A 
ATOM      3  C   UNL     1      -0.952  -6.071  -1.235  0.00  0.00    +0.031 A 
ATOM      4  C   UNL     1      -0.666  -6.777  -0.060  0.00  0.00    -0.021 A 
ATOM      5  C   UNL     1      -0.279  -6.082   1.092  0.00  0.00    +0.031 A 
ATOM      6  C   UNL     1      -0.177  -4.708   1.063  0.00  0.00    +0.085 A 
ATOM      7 CL   UNL     1       0.309  -3.846   2.490  0.00  0.00    -0.080 Cl
ATOM      8 CL   UNL     1      -1.208  -3.819  -2.707  0.00  0.00    -0.080 Cl
ENDROOT
BRANCH   4   9
ATOM      9  C   UNL     1      -0.771  -8.242  -0.037  0.00  0.00    +0.028 C 
ATOM     10  C   UNL     1      -0.364  -8.969  -1.109  0.00  0.00    +0.078 C 
ATOM     11  C   UNL     1       0.364  -8.530  -2.315  0.00  0.00    +0.256 C 
ATOM     12  O   UNL     1       0.695  -7.370  -2.472  0.00  0.00    -0.269 OA
ATOM     13  N   UNL     1       0.641  -9.456  -3.218  0.00  0.00    -0.260 N 
ATOM     14  C   UNL     1       0.258 -10.765  -3.021  0.00  0.00    +0.166 C 
ATOM     15  N   UNL     1       0.451 -11.800  -3.808  0.00  0.00    -0.226 NA
ATOM     16  S   UNL     1      -0.557 -10.715  -1.433  0.00  0.00    -0.049 S 
ATOM     17  H   UNL     1       1.117  -9.211  -4.026  0.00  0.00    +0.157 HD
BRANCH  15  18
ATOM     18  C   UNL     1      -0.008 -13.036  -3.439  0.00  0.00    +0.067 A 
ATOM     19  C   UNL     1       0.185 -13.494  -2.134  0.00  0.00    +0.030 A 
ATOM     20  C   UNL     1      -0.279 -14.740  -1.767  0.00  0.00    +0.040 A 
ATOM     21  C   UNL     1      -0.935 -15.537  -2.691  0.00  0.00    +0.124 A 
ATOM     22  C   UNL     1      -1.129 -15.088  -3.988  0.00  0.00    +0.040 A 
ATOM     23  C   UNL     1      -0.675 -13.841  -4.364  0.00  0.00    +0.030 A 
ATOM     24  F   UNL     1      -1.387 -16.757  -2.327  0.00  0.00    -0.205 F 
ENDBRANCH  15  18
ENDBRANCH   4   9
BRANCH   1  25
ATOM     25  O   UNL     1      -0.370  -2.657  -0.126  0.00  0.00    -0.484 OA
BRANCH  25  26
ATOM     26  C   UNL     1       0.894  -2.103  -0.495  0.00  0.00    +0.267 C 
BRANCH  26  31
ATOM     27  C   UNL     1      -0.446   1.402  -0.083  0.00  0.00    +0.001 A 
ATOM     28  C   UNL     1       0.662   2.163  -0.405  0.00  0.00    +0.003 A 
ATOM     29  C   UNL     1       1.847   1.544  -0.757  0.00  0.00    +0.039 A 
ATOM     30  C   UNL     1       1.923   0.162  -0.786  0.00  0.00    +0.130 A 
ATOM     31  C   UNL     1       0.813  -0.599  -0.463  0.00  0.00    +0.025 A 
ATOM     32  C   UNL     1      -0.371   0.022  -0.112  0.00  0.00    +0.010 A 
ATOM     33  F   UNL     1       3.081  -0.444  -1.130  0.00  0.00    -0.205 F 
ENDBRANCH  26  31
ENDBRANCH  25  26
ENDBRANCH   1  25
TORSDOF 5
