REMARK  Name = ZINC03335071
REMARK  4 active torsions:
REMARK  status: ('A' for Active; 'I' for Inactive)
REMARK    1  A    between atoms: C_1  and  C_2
REMARK    2  A    between atoms: C_5  and  N_8
REMARK    3  A    between atoms: C_12  and  C_32
REMARK    4  A    between atoms: C_13  and  N_26
REMARK                            x       y       z     vdW  Elec       q    Type
REMARK                         _______ _______ _______ _____ _____    ______ ____
ROOT
ATOM      1  N   UNL     1       2.152   0.742   0.158  0.00  0.00    -0.225 N 
ATOM      2  C   UNL     1       1.336  -0.385   0.095  0.00  0.00    +0.115 A 
ATOM      3  C   UNL     1       0.003  -0.008   0.119  0.00  0.00    +0.009 A 
ATOM      4  C   UNL     1      -0.990  -0.979   0.068  0.00  0.00    +0.016 A 
ATOM      5  C   UNL     1      -2.424  -0.694   0.091  0.00  0.00    +0.100 A 
ATOM      6  C   UNL     1      -3.303  -1.788   0.038  0.00  0.00    +0.142 A 
ATOM      7  N   UNL     1      -2.857  -3.038  -0.031  0.00  0.00    -0.215 NA
ATOM      8  C   UNL     1      -1.576  -3.348  -0.058  0.00  0.00    +0.133 A 
ATOM      9  C   UNL     1      -0.594  -2.336  -0.009  0.00  0.00    +0.061 A 
ATOM     10  C   UNL     1       0.780  -2.646  -0.033  0.00  0.00    +0.110 A 
ATOM     11  N   UNL     1       1.146  -3.982  -0.117  0.00  0.00    -0.309 N 
ATOM     12  C   UNL     1       0.190  -4.990   0.368  0.00  0.00    +0.099 C 
ATOM     13  N   UNL     1      -1.151  -4.664  -0.140  0.00  0.00    -0.308 N 
ATOM     14  C   UNL     1       0.606  -6.370  -0.141  0.00  0.00    +0.045 C 
ATOM     15  C   UNL     1      -0.381  -7.422   0.368  0.00  0.00    +0.004 C 
ATOM     16  C   UNL     1      -0.385  -7.418   1.898  0.00  0.00    +0.000 C 
ATOM     17  C   UNL     1      -0.810  -6.038   2.404  0.00  0.00    +0.004 C 
ATOM     18  C   UNL     1       0.176  -4.984   1.896  0.00  0.00    +0.045 C 
ATOM     19  C   UNL     1      -0.017   1.500   0.203  0.00  0.00    +0.136 C 
ATOM     20  C   UNL     1       1.448   1.883   0.222  0.00  0.00    +0.230 C 
ATOM     21  O   UNL     1       1.899   3.007   0.284  0.00  0.00    -0.275 OA
ATOM     22  H   UNL     1       2.005  -4.243  -0.485  0.00  0.00    +0.149 HD
ATOM     23  H   UNL     1      -1.721  -5.350  -0.521  0.00  0.00    +0.150 HD
ATOM     24  N   UNL     1       1.757  -1.702   0.020  0.00  0.00    -0.330 N 
ATOM     25  H   UNL     1       2.752  -1.952   0.004  0.00  0.00    +0.168 HD
ENDROOT
BRANCH   1  30
ATOM     26  C   UNL     1       7.822   0.531   0.140  0.00  0.00    +0.044 C 
ATOM     27  C   UNL     1       6.317   0.587   0.144  0.00  0.00    -0.050 A 
ATOM     28  C   UNL     1       5.672   1.808   0.213  0.00  0.00    +0.005 A 
ATOM     29  C   UNL     1       4.292   1.863   0.218  0.00  0.00    +0.024 A 
ATOM     30  C   UNL     1       3.552   0.690   0.153  0.00  0.00    +0.043 A 
ATOM     31  C   UNL     1       4.202  -0.535   0.089  0.00  0.00    +0.024 A 
ATOM     32  C   UNL     1       5.582  -0.583   0.080  0.00  0.00    +0.005 A 
ENDBRANCH   1  30
BRANCH   6  33
ATOM     33  N   UNL     1      -4.666  -1.559   0.059  0.00  0.00    -0.314 N 
ATOM     34  C   UNL     1      -5.284  -2.167   1.244  0.00  0.00    +0.106 C 
ATOM     35  C   UNL     1      -6.761  -1.772   1.310  0.00  0.00    +0.019 C 
ATOM     36  C   UNL     1      -7.470  -2.249   0.040  0.00  0.00    +0.003 C 
ATOM     37  C   UNL     1      -6.776  -1.640  -1.182  0.00  0.00    +0.019 C 
ATOM     38  C   UNL     1      -5.299  -2.039  -1.176  0.00  0.00    +0.106 C 
ENDBRANCH   6  33
BRANCH   5  39
ATOM     39  C   UNL     1      -2.913   0.650   0.164  0.00  0.00    +0.103 C 
ATOM     40  N   UNL     1      -3.301   1.716   0.222  0.00  0.00    -0.191 NA
ENDBRANCH   5  39
TORSDOF 3
