REMARK  Name = ZINC05479524
REMARK  6 active torsions:
REMARK  status: ('A' for Active; 'I' for Inactive)
REMARK    1  A    between atoms: C_3  and  N_36
REMARK    2  A    between atoms: C_6  and  C_7
REMARK    3  A    between atoms: C_10  and  C_17
REMARK    4  A    between atoms: C_19  and  C_25
REMARK    5  A    between atoms: C_25  and  C_27
REMARK    6  A    between atoms: C_30  and  N_33
REMARK                            x       y       z     vdW  Elec       q    Type
REMARK                         _______ _______ _______ _____ _____    ______ ____
ROOT
ATOM      1  C   UNL     1       1.636   2.962  -1.195  0.00  0.00    +0.197 C 
ATOM      2  O   UNL     1       0.709   3.594  -1.657  0.00  0.00    -0.287 OA
ATOM      3  C   UNL     1       1.419   2.070  -0.000  0.00  0.00    +0.098 C 
ATOM      4  C   UNL     1      -0.019   1.526   0.010  0.00  0.00    +0.260 C 
ATOM      5  O   UNL     1      -0.642   2.006   1.228  0.00  0.00    -0.446 OA
ATOM      6  C   UNL     1       0.196   2.755   1.951  0.00  0.00    +0.381 C 
ATOM      7  O   UNL     1      -0.086   3.272   3.011  0.00  0.00    -0.241 OA
ATOM      8  C   UNL     1       1.523   2.869   1.283  0.00  0.00    +0.273 C 
ATOM      9  O   UNL     1       2.487   3.475   1.684  0.00  0.00    -0.280 OA
ENDROOT
BRANCH   4  10
ATOM     10  C   UNL     1       0.002  -0.004   0.002  0.00  0.00    +0.260 C 
ATOM     11  C   UNL     1      -1.429  -0.549   0.139  0.00  0.00    +0.098 C 
ATOM     12  C   UNL     1      -1.397  -1.360   1.418  0.00  0.00    +0.273 C 
ATOM     13  O   UNL     1      -2.313  -1.971   1.914  0.00  0.00    -0.280 OA
ATOM     14  C   UNL     1      -0.006  -1.251   1.943  0.00  0.00    +0.381 C 
ATOM     15  O   UNL     1       0.387  -1.779   2.962  0.00  0.00    -0.241 OA
ATOM     16  O   UNL     1       0.751  -0.495   1.142  0.00  0.00    -0.446 OA
BRANCH  11  17
ATOM     17  C   UNL     1      -1.772  -1.430  -1.035  0.00  0.00    +0.197 C 
ATOM     18  O   UNL     1      -0.900  -2.056  -1.599  0.00  0.00    -0.287 OA
BRANCH  17  19
ATOM     19  C   UNL     1      -3.165  -1.530  -1.497  0.00  0.00    +0.022 A 
ATOM     20  C   UNL     1      -4.175  -0.814  -0.846  0.00  0.00    +0.014 A 
ATOM     21  C   UNL     1      -5.477  -0.908  -1.289  0.00  0.00    +0.033 A 
ATOM     22  C   UNL     1      -5.788  -1.718  -2.368  0.00  0.00    +0.126 A 
ATOM     23  C   UNL     1      -4.796  -2.435  -3.013  0.00  0.00    +0.033 A 
ATOM     24  C   UNL     1      -3.488  -2.346  -2.586  0.00  0.00    +0.014 A 
BRANCH  22  25
ATOM     25  N   UNL     1      -7.190  -1.818  -2.833  0.00  0.00    +0.056 N 
ATOM     26  O   UNL     1      -7.467  -2.530  -3.782  0.00  0.00    -0.126 OA
ATOM     27  O   UNL     1      -8.066  -1.189  -2.268  0.00  0.00    -0.126 OA
ENDBRANCH  22  25
ENDBRANCH  17  19
ENDBRANCH  11  17
ENDBRANCH   4  10
BRANCH   1  33
ATOM     28  C   UNL     1       4.045   2.346  -1.269  0.00  0.00    +0.014 A 
ATOM     29  C   UNL     1       5.293   2.445  -1.847  0.00  0.00    +0.033 A 
ATOM     30  C   UNL     1       5.488   3.265  -2.944  0.00  0.00    +0.126 A 
ATOM     31  C   UNL     1       4.433   3.988  -3.474  0.00  0.00    +0.033 A 
ATOM     32  C   UNL     1       3.178   3.894  -2.911  0.00  0.00    +0.014 A 
ATOM     33  C   UNL     1       2.973   3.068  -1.802  0.00  0.00    +0.022 A 
BRANCH  30  34
ATOM     34  N   UNL     1       6.832   3.370  -3.555  0.00  0.00    +0.056 N 
ATOM     35  O   UNL     1       7.008   4.091  -4.521  0.00  0.00    -0.126 OA
ATOM     36  O   UNL     1       7.763   2.736  -3.091  0.00  0.00    -0.126 OA
ENDBRANCH  30  34
ENDBRANCH   1  33
TORSDOF 6
