REMARK  Name = ZINC12950465
REMARK  6 active torsions:
REMARK  status: ('A' for Active; 'I' for Inactive)
REMARK    1  A    between atoms: C_1  and  O_2
REMARK    2  A    between atoms: O_2  and  C_3
REMARK    3  A    between atoms: C_3  and  C_5
REMARK    4  A    between atoms: C_5  and  C_32
REMARK    5  A    between atoms: C_10  and  C_13
REMARK    6  A    between atoms: N_22  and  C_25
REMARK                            x       y       z     vdW  Elec       q    Type
REMARK                         _______ _______ _______ _____ _____    ______ ____
ROOT
ATOM      1  C   UNL     1       0.744  -2.159  -1.491  0.00  0.00    +0.155 C 
ATOM      2  C   UNL     1       2.114  -2.781  -1.834  0.00  0.00    +0.125 C 
ATOM      3  C   UNL     1       2.853  -2.890  -0.473  0.00  0.00    +0.112 C 
ATOM      4  C   UNL     1       1.867  -2.309   0.561  0.00  0.00    +0.099 C 
ATOM      5  N   UNL     1       0.524  -2.496  -0.062  0.00  0.00    -0.290 NA
ATOM      6  C   UNL     1       2.990  -4.382  -0.269  0.00  0.00    +0.232 C 
ATOM      7  O   UNL     1       3.516  -4.913   0.686  0.00  0.00    -0.274 OA
ATOM      8  N   UNL     1       2.439  -5.025  -1.305  0.00  0.00    -0.210 N 
ATOM      9  C   UNL     1       1.916  -4.219  -2.258  0.00  0.00    +0.233 C 
ATOM     10  O   UNL     1       1.375  -4.580  -3.281  0.00  0.00    -0.274 OA
ATOM     11  H   UNL     1      -0.153  -1.875   0.356  0.00  0.00    +0.124 HD
ENDROOT
BRANCH   4  12
ATOM     12  C   UNL     1       1.944  -3.082   1.852  0.00  0.00    -0.011 A 
ATOM     13  C   UNL     1       1.063  -4.120   2.091  0.00  0.00    +0.006 A 
ATOM     14  C   UNL     1       1.134  -4.829   3.276  0.00  0.00    +0.000 A 
ATOM     15  C   UNL     1       2.087  -4.500   4.222  0.00  0.00    +0.001 A 
ATOM     16  C   UNL     1       2.969  -3.463   3.985  0.00  0.00    +0.020 A 
ATOM     17  C   UNL     1       2.902  -2.757   2.796  0.00  0.00    +0.046 A 
ATOM     18 CL   UNL     1       4.014  -1.458   2.494  0.00  0.00    -0.083 Cl
ENDBRANCH   4  12
BRANCH   8  19
ATOM     19  C   UNL     1       2.411  -6.423  -1.402  0.00  0.00    +0.044 A 
ATOM     20  C   UNL     1       1.202  -7.101  -1.329  0.00  0.00    +0.025 A 
ATOM     21  C   UNL     1       1.177  -8.479  -1.425  0.00  0.00    +0.022 A 
ATOM     22  C   UNL     1       2.356  -9.184  -1.593  0.00  0.00    +0.041 A 
ATOM     23  C   UNL     1       3.562  -8.510  -1.666  0.00  0.00    +0.022 A 
ATOM     24  C   UNL     1       3.592  -7.132  -1.577  0.00  0.00    +0.025 A 
ATOM     25 CL   UNL     1       2.321 -10.915  -1.713  0.00  0.00    -0.084 Cl
ENDBRANCH   8  19
BRANCH   1  26
ATOM     26  C   UNL     1      -0.339  -2.765  -2.347  0.00  0.00    -0.016 A 
ATOM     27  C   UNL     1      -1.204  -3.698  -1.807  0.00  0.00    +0.006 A 
ATOM     28  C   UNL     1      -2.197  -4.254  -2.592  0.00  0.00    +0.000 A 
ATOM     29  C   UNL     1      -2.325  -3.876  -3.915  0.00  0.00    +0.000 A 
ATOM     30  C   UNL     1      -1.461  -2.942  -4.454  0.00  0.00    +0.000 A 
ATOM     31  C   UNL     1      -0.470  -2.383  -3.669  0.00  0.00    +0.006 A 
ENDBRANCH   1  26
BRANCH   1  32
ATOM     32  C   UNL     1       0.785  -0.664  -1.678  0.00  0.00    +0.333 C 
ATOM     33  O   UNL     1       1.540  -0.177  -2.485  0.00  0.00    -0.248 OA
BRANCH  32  35
ATOM     34  C   UNL     1       0.073   1.533  -1.178  0.00  0.00    +0.280 C 
ATOM     35  O   UNL     1      -0.018   0.125  -0.948  0.00  0.00    -0.466 OA
ENDBRANCH  32  35
ENDBRANCH   1  32
TORSDOF 5
