REMARK  Name = ZINC33534997
REMARK  12 active torsions:
REMARK  status: ('A' for Active; 'I' for Inactive)
REMARK    1  A    between atoms: C_1  and  C_2
REMARK    2  A    between atoms: C_7  and  C_8
REMARK    3  A    between atoms: C_15  and  C_16
REMARK    4  A    between atoms: C_18  and  C_27
REMARK    5  A    between atoms: C_19  and  O_26
REMARK    6  A    between atoms: C_20  and  C_22
REMARK    7  A    between atoms: C_22  and  C_23
REMARK    8  A    between atoms: C_22  and  C_24
REMARK    9  A    between atoms: C_22  and  C_25
REMARK   10  A    between atoms: C_27  and  C_28
REMARK   11  A    between atoms: C_27  and  C_29
REMARK   12  A    between atoms: C_27  and  C_30
REMARK                            x       y       z     vdW  Elec       q    Type
REMARK                         _______ _______ _______ _____ _____    ______ ____
ROOT
ATOM      1  C   UNL     1       2.220   0.645   5.816  0.00  0.00    +0.044 C 
ATOM      2  C   UNL     1       1.167   0.117   4.877  0.00  0.00    -0.045 A 
ATOM      3  C   UNL     1      -0.060   0.758   4.789  0.00  0.00    +0.006 A 
ATOM      4  C   UNL     1      -1.035   0.286   3.932  0.00  0.00    +0.029 A 
ATOM      5  C   UNL     1      -0.784  -0.835   3.159  0.00  0.00    +0.078 A 
ATOM      6  C   UNL     1       0.452  -1.488   3.242  0.00  0.00    +0.094 A 
ATOM      7  C   UNL     1       1.430  -0.999   4.113  0.00  0.00    -0.020 A 
ATOM      8  C   UNL     1       2.766  -1.690   4.216  0.00  0.00    +0.046 C 
ATOM      9  N   UNL     1       0.409  -2.538   2.381  0.00  0.00    -0.221 NA
ATOM     10  C   UNL     1      -0.751  -2.566   1.790  0.00  0.00    +0.182 A 
ATOM     11  N   UNL     1      -1.558  -1.538   2.216  0.00  0.00    -0.253 N 
ATOM     12  C   UNL     1      -2.790  -1.429   1.698  0.00  0.00    +0.272 A 
ATOM     13  O   UNL     1      -3.541  -0.537   2.044  0.00  0.00    -0.266 OA
ATOM     14  C   UNL     1      -3.204  -2.424   0.698  0.00  0.00    +0.081 A 
ATOM     15  C   UNL     1      -4.381  -2.537   0.030  0.00  0.00    +0.028 C 
ATOM     16  S   UNL     1      -1.741  -3.444   0.600  0.00  0.00    -0.046 S 
ENDROOT
BRANCH  15  17
ATOM     17  C   UNL     1      -5.392  -1.478   0.140  0.00  0.00    -0.023 A 
ATOM     18  C   UNL     1      -5.003  -0.133   0.143  0.00  0.00    +0.015 A 
ATOM     19  C   UNL     1      -5.956   0.856   0.240  0.00  0.00    +0.000 A 
ATOM     20  C   UNL     1      -7.301   0.521   0.346  0.00  0.00    +0.124 A 
ATOM     21  C   UNL     1      -7.692  -0.813   0.349  0.00  0.00    +0.000 A 
ATOM     22  C   UNL     1      -6.748  -1.810   0.247  0.00  0.00    +0.015 A 
BRANCH  21  23
ATOM     23  C   UNL     1      -9.152  -1.168   0.465  0.00  0.00    -0.009 C 
ATOM     24  C   UNL     1      -9.309  -2.690   0.445  0.00  0.00    +0.015 C 
ATOM     25  C   UNL     1      -9.708  -0.616   1.779  0.00  0.00    +0.015 C 
ATOM     26  C   UNL     1      -9.920  -0.560  -0.710  0.00  0.00    +0.015 C 
ENDBRANCH  21  23
BRANCH  19  27
ATOM     27  C   UNL     1      -5.540   2.304   0.238  0.00  0.00    -0.009 C 
ATOM     28  C   UNL     1      -4.018   2.398   0.111  0.00  0.00    +0.015 C 
ATOM     29  C   UNL     1      -6.195   3.021  -0.945  0.00  0.00    +0.015 C 
ATOM     30  C   UNL     1      -5.984   2.965   1.544  0.00  0.00    +0.015 C 
ENDBRANCH  19  27
BRANCH  20  31
ATOM     31  O   UNL     1      -8.236   1.500   0.447  0.00  0.00    -0.506 OA
ATOM     32  H   UNL     1      -9.301   1.237   0.531  0.00  0.00    +0.292 HD
ENDBRANCH  20  31
ENDBRANCH  15  17
TORSDOF 4
