REMARK  Name = ZINC12602536
REMARK  8 active torsions:
REMARK  status: ('A' for Active; 'I' for Inactive)
REMARK    1  A    between atoms: C_4  and  C_7
REMARK    2  A    between atoms: C_7  and  C_8
REMARK    3  A    between atoms: N_11  and  C_14
REMARK    4  A    between atoms: C_14  and  C_15
REMARK    5  A    between atoms: C_24  and  C_26
REMARK    6  A    between atoms: C_26  and  N_27
REMARK    7  A    between atoms: N_27  and  S_28
REMARK    8  A    between atoms: S_28  and  C_31
REMARK                            x       y       z     vdW  Elec       q    Type
REMARK                         _______ _______ _______ _____ _____    ______ ____
ROOT
ATOM      1  C   UNL     1       8.134  -1.605   4.665  0.00  0.00    -0.010 C 
ATOM      2  C   UNL     1       9.147  -0.714   3.940  0.00  0.00    +0.086 C 
ATOM      3  N   UNL     1      10.281  -0.441   4.832  0.00  0.00    -0.298 NA
ATOM      4  C   UNL     1      10.979  -1.683   5.194  0.00  0.00    +0.085 C 
ATOM      5  C   UNL     1      10.018  -2.602   5.954  0.00  0.00    +0.019 C 
ATOM      6  C   UNL     1       8.656  -1.908   6.075  0.00  0.00    -0.006 C 
ATOM      7  C   UNL     1       8.850  -0.581   6.819  0.00  0.00    +0.024 C 
ATOM      8  C   UNL     1       9.846   0.286   6.032  0.00  0.00    +0.072 C 
ENDROOT
BRANCH   1   9
ATOM      9  C   UNL     1       6.789  -0.881   4.760  0.00  0.00    -0.074 C 
BRANCH   9  13
ATOM     10  C   UNL     1       4.171  -0.963   1.399  0.00  0.00    -0.010 C 
ATOM     11  C   UNL     1       4.474   0.372   2.086  0.00  0.00    -0.015 C 
ATOM     12  C   UNL     1       5.009   0.105   3.494  0.00  0.00    -0.079 C 
ATOM     13  N   UNL     1       6.237  -0.694   3.412  0.00  0.00    +0.380 N 
ATOM     14  C   UNL     1       5.941  -2.004   2.819  0.00  0.00    -0.079 C 
ATOM     15  C   UNL     1       5.442  -1.818   1.385  0.00  0.00    -0.015 C 
ATOM     16  H   UNL     1       6.913  -0.211   2.838  0.00  0.00    -0.082 HD
BRANCH  10  17
ATOM     17  C   UNL     1       3.711  -0.707  -0.038  0.00  0.00    +0.038 C 
BRANCH  17  21
ATOM     18  C   UNL     1      -0.017   1.378   0.010  0.00  0.00    +0.000 A 
ATOM     19  C   UNL     1       1.171   2.086   0.002  0.00  0.00    +0.000 A 
ATOM     20  C   UNL     1       2.377   1.411  -0.013  0.00  0.00    +0.003 A 
ATOM     21  C   UNL     1       2.396   0.029  -0.020  0.00  0.00    -0.047 A 
ATOM     22  C   UNL     1       1.208  -0.679  -0.012  0.00  0.00    +0.003 A 
ATOM     23  C   UNL     1       0.002  -0.004   0.002  0.00  0.00    +0.000 A 
ENDBRANCH  17  21
ENDBRANCH  10  17
ENDBRANCH   9  13
ENDBRANCH   1   9
BRANCH   8  24
ATOM     24  C   UNL     1       9.170   1.595   5.619  0.00  0.00    +0.124 C 
BRANCH  24  25
ATOM     25  N   UNL     1      10.078   2.366   4.767  0.00  0.00    -0.188 NA
ATOM     26  H   UNL     1      11.019   2.134   4.726  0.00  0.00    +0.148 HD
BRANCH  25  27
ATOM     27  S   UNL     1       9.499   3.634   3.872  0.00  0.00    +0.058 S 
ATOM     28  O   UNL     1      10.612   4.187   3.183  0.00  0.00    -0.153 OA
ATOM     29  O   UNL     1       8.344   3.159   3.195  0.00  0.00    -0.153 OA
BRANCH  27  30
ATOM     30  C   UNL     1       8.948   4.863   5.008  0.00  0.00    +0.105 A 
ATOM     31  C   UNL     1       7.643   4.848   5.463  0.00  0.00    +0.028 A 
ATOM     32  C   UNL     1       7.210   5.813   6.354  0.00  0.00    +0.002 A 
ATOM     33  C   UNL     1       8.083   6.792   6.789  0.00  0.00    +0.000 A 
ATOM     34  C   UNL     1       9.388   6.807   6.335  0.00  0.00    +0.002 A 
ATOM     35  C   UNL     1       9.822   5.840   5.447  0.00  0.00    +0.028 A 
ENDBRANCH  27  30
ENDBRANCH  25  27
ENDBRANCH  24  25
ENDBRANCH   8  24
TORSDOF 8
