REMARK  Name = ZINC00709833
REMARK  9 active torsions:
REMARK  status: ('A' for Active; 'I' for Inactive)
REMARK    1  A    between atoms: C_1  and  C_2
REMARK    2  A    between atoms: C_2  and  O_3
REMARK    3  A    between atoms: O_3  and  C_4
REMARK    4  A    between atoms: C_4  and  C_6
REMARK    5  A    between atoms: C_11  and  N_12
REMARK    6  A    between atoms: C_11  and  N_61
REMARK    7  A    between atoms: N_20  and  N_21
REMARK    8  A    between atoms: C_22  and  C_24
REMARK    9  A    between atoms: C_27  and  C_30
REMARK                            x       y       z     vdW  Elec       q    Type
REMARK                         _______ _______ _______ _____ _____    ______ ____
ROOT
ATOM      1  N   UNL     1       3.875  -0.642  -0.039  0.00  0.00    -0.282 N 
ATOM      2  C   UNL     1       4.592   0.549  -0.038  0.00  0.00    +0.044 A 
ATOM      3  C   UNL     1       5.959   0.805  -0.050  0.00  0.00    +0.024 A 
ATOM      4  C   UNL     1       6.420   2.106  -0.063  0.00  0.00    +0.002 A 
ATOM      5  C   UNL     1       5.533   3.169  -0.051  0.00  0.00    +0.001 A 
ATOM      6  C   UNL     1       4.172   2.935  -0.035  0.00  0.00    +0.012 A 
ATOM      7  C   UNL     1       3.698   1.628  -0.030  0.00  0.00    +0.028 A 
ATOM      8  C   UNL     1       2.337   1.043  -0.015  0.00  0.00    +0.153 C 
ATOM      9  N   UNL     1       1.193   1.683  -0.000  0.00  0.00    -0.174 NA
ATOM     10  C   UNL     1       2.550  -0.418  -0.025  0.00  0.00    +0.270 C 
ATOM     11  O   UNL     1       1.680  -1.269  -0.022  0.00  0.00    -0.268 OA
ENDROOT
BRANCH   9  12
ATOM     12  N   UNL     1      -0.011   0.966   0.007  0.00  0.00    -0.202 N 
ATOM     13  C   UNL     1      -1.187   1.624   0.017  0.00  0.00    +0.263 C 
ATOM     14  O   UNL     1      -1.204   2.839   0.023  0.00  0.00    -0.268 OA
ATOM     15  H   UNL     1       0.002  -0.004   0.002  0.00  0.00    +0.178 HD
BRANCH  13  16
ATOM     16  C   UNL     1      -2.457   0.868   0.018  0.00  0.00    +0.038 A 
ATOM     17  C   UNL     1      -2.441  -0.528   0.005  0.00  0.00    +0.013 A 
ATOM     18  C   UNL     1      -3.630  -1.228   0.012  0.00  0.00    +0.004 A 
ATOM     19  C   UNL     1      -4.836  -0.549   0.021  0.00  0.00    -0.050 A 
ATOM     20  C   UNL     1      -4.858   0.834   0.029  0.00  0.00    +0.004 A 
ATOM     21  C   UNL     1      -3.677   1.546   0.028  0.00  0.00    +0.013 A 
ATOM     22  C   UNL     1      -6.131  -1.321   0.023  0.00  0.00    +0.044 C 
ENDBRANCH  13  16
ENDBRANCH   9  12
BRANCH   1  23
ATOM     23  C   UNL     1       4.487  -1.973  -0.052  0.00  0.00    +0.039 C 
BRANCH  23  29
ATOM     24  C   UNL     1       4.760  -4.273  -3.646  0.00  0.00    +0.094 C 
ATOM     25  C   UNL     1       6.035  -3.713  -3.011  0.00  0.00    -0.004 C 
ATOM     26  C   UNL     1       5.767  -3.391  -1.539  0.00  0.00    -0.076 C 
ATOM     27  C   UNL     1       3.431  -2.943  -2.003  0.00  0.00    -0.076 C 
ATOM     28  C   UNL     1       3.630  -3.252  -3.489  0.00  0.00    -0.004 C 
ATOM     29  N   UNL     1       4.687  -2.385  -1.457  0.00  0.00    +0.390 N 
ATOM     30  H   UNL     1       4.955  -1.563  -2.010  0.00  0.00    -0.080 HD
BRANCH  24  31
ATOM     31  C   UNL     1       5.000  -4.535  -5.111  0.00  0.00    +0.310 C 
ATOM     32  O   UNL     1       6.081  -4.299  -5.598  0.00  0.00    -0.251 OA
BRANCH  31  33
ATOM     33  O   UNL     1       4.014  -5.032  -5.874  0.00  0.00    -0.465 OA
BRANCH  33  35
ATOM     34  C   UNL     1       3.081  -5.823  -7.980  0.00  0.00    +0.048 C 
ATOM     35  C   UNL     1       4.317  -5.260  -7.276  0.00  0.00    +0.229 C 
ENDBRANCH  33  35
ENDBRANCH  31  33
ENDBRANCH  24  31
ENDBRANCH  23  29
ENDBRANCH   1  23
TORSDOF 7
