REMARK  Name = ZINC11073662
REMARK  4 active torsions:
REMARK  status: ('A' for Active; 'I' for Inactive)
REMARK    1  A    between atoms: C_1  and  C_2
REMARK    2  A    between atoms: C_6  and  N_8
REMARK    3  A    between atoms: C_13  and  C_15
REMARK    4  A    between atoms: C_20  and  C_23
REMARK                            x       y       z     vdW  Elec       q    Type
REMARK                         _______ _______ _______ _____ _____    ______ ____
ROOT
ATOM      1  C   UNL     1       2.064   2.980   1.814  0.00  0.00    +0.263 C 
ATOM      2  O   UNL     1       3.151   3.519   1.716  0.00  0.00    -0.269 OA
ATOM      3  N   UNL     1       1.952   1.650   1.627  0.00  0.00    -0.292 N 
ATOM      4  C   UNL     1       3.092   0.844   1.159  0.00  0.00    +0.113 C 
ATOM      5  C   UNL     1       3.431  -0.174   2.251  0.00  0.00    +0.054 C 
ATOM      6  C   UNL     1       2.181  -0.827   2.764  0.00  0.00    -0.039 C 
ATOM      7  C   UNL     1       0.973  -0.336   2.612  0.00  0.00    -0.004 C 
ATOM      8  C   UNL     1       0.686   0.947   1.881  0.00  0.00    +0.135 C 
ENDROOT
BRANCH   6   9
ATOM      9  C   UNL     1       2.319  -2.106   3.487  0.00  0.00    +0.003 A 
ATOM     10  C   UNL     1       2.570  -3.324   2.941  0.00  0.00    +0.091 A 
ATOM     11  N   UNL     1       2.632  -4.266   3.925  0.00  0.00    -0.360 N 
ATOM     12  H   UNL     1       2.803  -5.210   3.780  0.00  0.00    +0.165 HD
ATOM     13  C   UNL     1       2.410  -3.685   5.155  0.00  0.00    +0.047 A 
ATOM     14  C   UNL     1       2.205  -2.312   4.941  0.00  0.00    +0.007 A 
ATOM     15  C   UNL     1       1.956  -1.466   6.020  0.00  0.00    +0.010 A 
ATOM     16  C   UNL     1       1.912  -1.984   7.296  0.00  0.00    +0.001 A 
ATOM     17  C   UNL     1       2.114  -3.340   7.509  0.00  0.00    +0.002 A 
ATOM     18  C   UNL     1       2.362  -4.188   6.451  0.00  0.00    +0.026 A 
ENDBRANCH   6   9
BRANCH   1  24
ATOM     19  N   UNL     1      -1.452   3.956   2.392  0.00  0.00    -0.160 N 
ATOM     20  C   UNL     1      -1.436   5.303   2.353  0.00  0.00    +0.240 C 
ATOM     21  O   UNL     1      -2.441   5.931   2.608  0.00  0.00    -0.273 OA
ATOM     22  C   UNL     1      -0.163   6.026   1.992  0.00  0.00    +0.104 C 
ATOM     23  C   UNL     1       1.035   5.226   2.518  0.00  0.00    +0.071 C 
ATOM     24  C   UNL     1       0.876   3.778   2.136  0.00  0.00    +0.122 C 
ATOM     25  N   UNL     1      -0.297   3.226   2.094  0.00  0.00    -0.172 NA
BRANCH  19  31
ATOM     26  C   UNL     1      -5.292   3.412   5.415  0.00  0.00    +0.044 C 
ATOM     27  C   UNL     1      -4.513   3.000   4.192  0.00  0.00    -0.049 A 
ATOM     28  C   UNL     1      -4.964   1.956   3.405  0.00  0.00    +0.003 A 
ATOM     29  C   UNL     1      -4.253   1.575   2.282  0.00  0.00    +0.002 A 
ATOM     30  C   UNL     1      -3.091   2.240   1.941  0.00  0.00    +0.025 A 
ATOM     31  C   UNL     1      -2.632   3.284   2.732  0.00  0.00    +0.060 A 
ATOM     32  C   UNL     1      -3.349   3.664   3.860  0.00  0.00    +0.028 A 
ENDBRANCH  19  31
ENDBRANCH   1  24
TORSDOF 3
