REMARK  Name = ZINC49090891
REMARK  4 active torsions:
REMARK  status: ('A' for Active; 'I' for Inactive)
REMARK    1  A    between atoms: C_1  and  C_2
REMARK    2  A    between atoms: C_4  and  C_8
REMARK    3  A    between atoms: C_12  and  C_19
REMARK    4  A    between atoms: C_16  and  C_18
REMARK                            x       y       z     vdW  Elec       q    Type
REMARK                         _______ _______ _______ _____ _____    ______ ____
ROOT
ATOM      1  C   UNL     1       0.041  -3.356  -1.443  0.00  0.00    +0.266 C 
ATOM      2  O   UNL     1      -0.057  -3.303  -2.655  0.00  0.00    -0.268 OA
ATOM      3  N   UNL     1       0.162  -4.550  -0.829  0.00  0.00    -0.293 N 
ATOM      4  C   UNL     1       0.167  -4.640   0.637  0.00  0.00    +0.121 C 
ATOM      5  C   UNL     1       1.418  -5.405   1.080  0.00  0.00    +0.092 C 
ATOM      6  C   UNL     1       1.463  -6.758   0.367  0.00  0.00    +0.016 C 
ATOM      7  C   UNL     1       1.542  -6.538  -1.145  0.00  0.00    +0.023 C 
ATOM      8  C   UNL     1       0.287  -5.786  -1.613  0.00  0.00    +0.073 C 
ATOM      9  C   UNL     1      -0.951  -6.659  -1.394  0.00  0.00    +0.028 C 
ENDROOT
BRANCH   1  13
ATOM     10  C   UNL     1      -1.327   0.487   1.571  0.00  0.00    +0.068 C 
ATOM     11  C   UNL     1      -0.553  -0.435   0.664  0.00  0.00    +0.074 A 
ATOM     12  C   UNL     1      -1.027  -1.624   0.101  0.00  0.00    +0.070 A 
ATOM     13  C   UNL     1       0.027  -2.119  -0.649  0.00  0.00    +0.135 A 
ATOM     14  N   UNL     1       1.052  -1.226  -0.503  0.00  0.00    -0.271 N 
ATOM     15  H   UNL     1       1.927  -1.306  -0.915  0.00  0.00    +0.189 HD
ATOM     16  N   UNL     1       0.679  -0.262   0.260  0.00  0.00    -0.177 NA
ATOM     17 BR   UNL     1      -2.740  -2.393   0.319  0.00  0.00    -0.046 Br
ENDBRANCH   1  13
BRANCH   5  18
ATOM     18  C   UNL     1       1.373  -5.623   2.571  0.00  0.00    +0.215 C 
ATOM     19  O   UNL     1       1.379  -6.749   3.020  0.00  0.00    -0.276 OA
ATOM     20  N   UNL     1       1.326  -4.565   3.405  0.00  0.00    -0.329 N 
ATOM     21  H   UNL     1       1.321  -3.664   3.046  0.00  0.00    +0.145 HD
ATOM     22  H   UNL     1       1.297  -4.705   4.364  0.00  0.00    +0.145 HD
ENDBRANCH   5  18
TORSDOF 2
