REMARK  Name = ZINC09428237
REMARK  9 active torsions:
REMARK  status: ('A' for Active; 'I' for Inactive)
REMARK    1  A    between atoms: C_1  and  C_2
REMARK    2  A    between atoms: C_2  and  C_29
REMARK    3  A    between atoms: N_3  and  N_4
REMARK    4  A    between atoms: C_5  and  C_7
REMARK    5  A    between atoms: C_7  and  S_8
REMARK    6  A    between atoms: S_8  and  C_9
REMARK    7  A    between atoms: N_22  and  C_23
REMARK    8  A    between atoms: C_33  and  O_35
REMARK    9  A    between atoms: O_35  and  C_36
REMARK                            x       y       z     vdW  Elec       q    Type
REMARK                         _______ _______ _______ _____ _____    ______ ____
ROOT
ATOM      1  C   UNL     1      -0.033  -4.765  -0.519  0.00  0.00    +0.178 A 
ATOM      2  N   UNL     1      -0.942  -3.823  -0.309  0.00  0.00    -0.215 NA
ATOM      3  C   UNL     1      -0.503  -2.627   0.066  0.00  0.00    +0.117 A 
ATOM      4  C   UNL     1       0.861  -2.309   0.253  0.00  0.00    +0.076 A 
ATOM      5  C   UNL     1       1.149  -0.945   0.665  0.00  0.00    -0.023 A 
ATOM      6  C   UNL     1       0.088  -0.124   0.829  0.00  0.00    -0.004 A 
ATOM      7  S   UNL     1      -1.333  -1.116   0.445  0.00  0.00    -0.073 S 
ATOM      8  C   UNL     1       0.110   1.315   1.246  0.00  0.00    +0.043 C 
ATOM      9  C   UNL     1       1.496   1.634   1.822  0.00  0.00    +0.005 C 
ATOM     10  C   UNL     1       2.561   1.091   0.864  0.00  0.00    +0.005 C 
ATOM     11  C   UNL     1       2.568  -0.437   0.908  0.00  0.00    +0.037 C 
ATOM     12  C   UNL     1       1.815  -3.352   0.018  0.00  0.00    +0.268 A 
ATOM     13  O   UNL     1       3.014  -3.174   0.152  0.00  0.00    -0.267 OA
ATOM     14  N   UNL     1       1.304  -4.546  -0.363  0.00  0.00    -0.255 N 
ENDROOT
BRANCH  14  15
ATOM     15  C   UNL     1       2.189  -5.605  -0.607  0.00  0.00    +0.052 A 
ATOM     16  C   UNL     1       2.705  -5.800  -1.881  0.00  0.00    +0.026 A 
ATOM     17  C   UNL     1       3.581  -6.841  -2.118  0.00  0.00    +0.002 A 
ATOM     18  C   UNL     1       3.934  -7.697  -1.091  0.00  0.00    +0.000 A 
ATOM     19  C   UNL     1       3.417  -7.508   0.178  0.00  0.00    +0.002 A 
ATOM     20  C   UNL     1       2.546  -6.465   0.422  0.00  0.00    +0.026 A 
ENDBRANCH  14  15
BRANCH   1  21
ATOM     21  S   UNL     1      -0.574  -6.366  -1.019  0.00  0.00    -0.078 S 
BRANCH  21  22
ATOM     22  C   UNL     1      -2.363  -6.092  -1.064  0.00  0.00    +0.174 C 
BRANCH  22  24
ATOM     23  N   UNL     1      -4.399  -7.398  -1.583  0.00  0.00    -0.206 N 
ATOM     24  C   UNL     1      -3.055  -7.365  -1.479  0.00  0.00    +0.242 C 
ATOM     25  O   UNL     1      -2.404  -8.359  -1.721  0.00  0.00    -0.273 OA
ATOM     26  H   UNL     1      -4.920  -6.603  -1.389  0.00  0.00    +0.177 HD
BRANCH  23  29
ATOM     27  C   UNL     1      -7.146  -7.378  -1.768  0.00  0.00    +0.068 C 
ATOM     28  C   UNL     1      -6.336  -8.613  -2.068  0.00  0.00    +0.063 C 
ATOM     29  N   UNL     1      -5.042  -8.581  -1.969  0.00  0.00    -0.185 NA
BRANCH  28  30
ATOM     30  C   UNL     1      -7.013  -9.859  -2.474  0.00  0.00    +0.001 A 
ATOM     31  C   UNL     1      -8.406  -9.898  -2.577  0.00  0.00    +0.010 A 
ATOM     32  C   UNL     1      -9.036 -11.063  -2.963  0.00  0.00    +0.004 A 
ATOM     33  C   UNL     1      -8.294 -12.197  -3.239  0.00  0.00    +0.045 A 
ATOM     34  C   UNL     1      -6.910 -12.169  -3.134  0.00  0.00    +0.121 A 
ATOM     35  C   UNL     1      -6.266 -11.004  -2.753  0.00  0.00    +0.055 A 
BRANCH  34  36
ATOM     36  O   UNL     1      -6.186 -13.287  -3.406  0.00  0.00    -0.495 OA
ATOM     37  C   UNL     1      -6.915 -14.454  -3.794  0.00  0.00    +0.277 C 
ENDBRANCH  34  36
ENDBRANCH  28  30
ENDBRANCH  23  29
ENDBRANCH  22  24
ENDBRANCH  21  22
ENDBRANCH   1  21
TORSDOF 7
