REMARK  Name = ZINC08868977
REMARK  11 active torsions:
REMARK  status: ('A' for Active; 'I' for Inactive)
REMARK    1  A    between atoms: C_1  and  C_2
REMARK    2  A    between atoms: C_2  and  O_3
REMARK    3  A    between atoms: O_3  and  C_4
REMARK    4  A    between atoms: C_4  and  C_6
REMARK    5  A    between atoms: C_10  and  N_11
REMARK    6  A    between atoms: C_12  and  C_14
REMARK    7  A    between atoms: N_19  and  S_20
REMARK    8  A    between atoms: S_20  and  C_23
REMARK    9  A    between atoms: C_26  and  O_29
REMARK   10  A    between atoms: O_29  and  C_30
REMARK   11  A    between atoms: C_34  and  N_63
REMARK                            x       y       z     vdW  Elec       q    Type
REMARK                         _______ _______ _______ _____ _____    ______ ____
ROOT
ATOM      1  N   UNL     1       1.774   3.129  -4.924  0.00  0.00    -0.278 N 
ATOM      2  C   UNL     1       1.261   4.375  -4.901  0.00  0.00    +0.236 C 
ATOM      3  O   UNL     1       0.159   4.586  -5.362  0.00  0.00    -0.274 OA
ATOM      4  H   UNL     1       2.655   2.960  -4.555  0.00  0.00    +0.155 HD
ENDROOT
BRANCH   1   9
ATOM      5  C   UNL     1       1.397   0.749  -5.588  0.00  0.00    +0.091 A 
ATOM      6  C   UNL     1       0.437  -0.146  -6.206  0.00  0.00    -0.025 A 
ATOM      7  C   UNL     1      -0.714   0.434  -6.615  0.00  0.00    -0.021 A 
ATOM      8  S   UNL     1      -0.535   2.141  -6.189  0.00  0.00    -0.079 S 
ATOM      9  C   UNL     1       1.042   2.088  -5.474  0.00  0.00    +0.086 A 
ATOM     10  C   UNL     1      -1.866  -0.251  -7.281  0.00  0.00    -0.036 C 
ATOM     11  C   UNL     1      -0.710  -2.290  -6.666  0.00  0.00    -0.074 C 
ATOM     12  C   UNL     1       0.653  -1.642  -6.405  0.00  0.00    +0.018 C 
ATOM     13  C   UNL     1      -2.536  -2.369  -8.256  0.00  0.00    -0.096 C 
ATOM     14  N   UNL     1      -1.393  -1.571  -7.762  0.00  0.00    +0.381 N 
ATOM     15  H   UNL     1      -0.729  -1.428  -8.532  0.00  0.00    -0.082 HD
BRANCH   5  16
ATOM     16  C   UNL     1       2.687   0.260  -5.098  0.00  0.00    +0.342 C 
ATOM     17  O   UNL     1       3.653   0.246  -5.837  0.00  0.00    -0.245 OA
BRANCH  16  18
ATOM     18  O   UNL     1       2.805  -0.176  -3.826  0.00  0.00    -0.461 OA
BRANCH  18  20
ATOM     19  C   UNL     1       4.051  -1.097  -1.948  0.00  0.00    +0.048 C 
ATOM     20  C   UNL     1       4.113  -0.647  -3.409  0.00  0.00    +0.229 C 
ENDBRANCH  18  20
ENDBRANCH  16  18
ENDBRANCH   5  16
ENDBRANCH   1   9
BRANCH   2  21
ATOM     21  C   UNL     1       2.056   5.507  -4.303  0.00  0.00    +0.166 C 
ATOM     22  C   UNL     1       1.560   5.815  -2.868  0.00  0.00    +0.031 C 
ATOM     23  C   UNL     1       1.997   7.294  -2.699  0.00  0.00    +0.019 C 
ATOM     24  C   UNL     1       1.798   7.878  -4.114  0.00  0.00    +0.110 C 
ATOM     25  N   UNL     1       1.827   6.751  -5.060  0.00  0.00    -0.165 NA
BRANCH  25  26
ATOM     26  S   UNL     1       1.634   6.861  -6.701  0.00  0.00    +0.062 S 
ATOM     27  O   UNL     1       1.341   5.550  -7.164  0.00  0.00    -0.153 OA
ATOM     28  O   UNL     1       0.768   7.963  -6.935  0.00  0.00    -0.153 OA
BRANCH  26  29
ATOM     29  C   UNL     1       3.200   7.297  -7.382  0.00  0.00    +0.106 A 
ATOM     30  C   UNL     1       3.493   8.623  -7.644  0.00  0.00    +0.032 A 
ATOM     31  C   UNL     1       4.722   8.968  -8.172  0.00  0.00    +0.047 A 
ATOM     32  C   UNL     1       5.657   7.982  -8.451  0.00  0.00    +0.120 A 
ATOM     33  C   UNL     1       5.359   6.652  -8.192  0.00  0.00    +0.047 A 
ATOM     34  C   UNL     1       4.131   6.313  -7.658  0.00  0.00    +0.032 A 
BRANCH  32  35
ATOM     35  O   UNL     1       6.865   8.319  -8.975  0.00  0.00    -0.495 OA
ATOM     36  C   UNL     1       7.104   9.707  -9.216  0.00  0.00    +0.277 C 
ENDBRANCH  32  35
ENDBRANCH  26  29
ENDBRANCH  25  26
ENDBRANCH   2  21
TORSDOF 8
