REMARK  Name = ZINC39710405
REMARK  11 active torsions:
REMARK  status: ('A' for Active; 'I' for Inactive)
REMARK    1  A    between atoms: C_1  and  C_2
REMARK    2  A    between atoms: C_2  and  C_3
REMARK    3  A    between atoms: C_10  and  C_15
REMARK    4  A    between atoms: C_15  and  C_17
REMARK    5  A    between atoms: C_15  and  N_26
REMARK    6  A    between atoms: N_21  and  C_22
REMARK    7  A    between atoms: C_22  and  C_23
REMARK    8  A    between atoms: C_23  and  O_24
REMARK    9  A    between atoms: O_24  and  C_25
REMARK   10  A    between atoms: N_29  and  C_32
REMARK   11  A    between atoms: C_35  and  N_38
REMARK                            x       y       z     vdW  Elec       q    Type
REMARK                         _______ _______ _______ _____ _____    ______ ____
ROOT
ATOM      1  C   UNL     1      -6.560  -1.385  -2.337  0.00  0.00    +0.142 C 
ENDROOT
BRANCH   1   9
ATOM      2  C   UNL     1      -1.308  -1.337   0.205  0.00  0.00    -0.047 A 
ATOM      3  C   UNL     1      -1.870  -1.435   1.478  0.00  0.00    +0.005 A 
ATOM      4  C   UNL     1      -3.178  -1.740   1.681  0.00  0.00    +0.024 A 
ATOM      5  C   UNL     1      -4.034  -1.973   0.589  0.00  0.00    +0.040 A 
ATOM      6  N   UNL     1      -5.316  -2.271   0.799  0.00  0.00    -0.284 N 
ATOM      7  C   UNL     1      -6.174  -2.503  -0.180  0.00  0.00    +0.226 C 
ATOM      8  O   UNL     1      -7.333  -2.770   0.074  0.00  0.00    -0.275 OA
ATOM      9  C   UNL     1      -5.708  -2.433  -1.617  0.00  0.00    +0.123 C 
ATOM     10  C   UNL     1      -4.251  -2.094  -1.862  0.00  0.00    -0.003 C 
ATOM     11  C   UNL     1      -3.467  -1.877  -0.768  0.00  0.00    -0.007 A 
ATOM     12  C   UNL     1      -2.051  -1.540  -0.913  0.00  0.00    +0.013 A 
ATOM     13  H   UNL     1      -5.635  -2.321   1.714  0.00  0.00    +0.155 HD
BRANCH   2  15
ATOM     14  C   UNL     1       0.327   0.525   0.122  0.00  0.00    +0.009 C 
ATOM     15  C   UNL     1       0.153  -0.994   0.068  0.00  0.00    +0.032 C 
ENDBRANCH   2  15
ENDBRANCH   1   9
BRANCH   1  16
ATOM     16  N   UNL     1      -7.980  -1.742  -2.215  0.00  0.00    -0.289 NA
ATOM     17  C   UNL     1      -8.249  -3.049  -2.828  0.00  0.00    +0.104 C 
ATOM     18  C   UNL     1      -9.692  -3.465  -2.523  0.00  0.00    +0.120 C 
ATOM     19  N   UNL     1     -10.591  -2.382  -2.950  0.00  0.00    -0.327 N 
ATOM     20  C   UNL     1     -10.303  -1.016  -2.485  0.00  0.00    +0.120 C 
ATOM     21  C   UNL     1      -8.836  -0.696  -2.792  0.00  0.00    +0.104 C 
BRANCH  19  22
ATOM     22  C   UNL     1     -11.688  -2.643  -3.774  0.00  0.00    +0.030 A 
ATOM     23  C   UNL     1     -12.018  -3.952  -4.100  0.00  0.00    +0.025 A 
ATOM     24  C   UNL     1     -13.103  -4.207  -4.915  0.00  0.00    +0.034 A 
ATOM     25  C   UNL     1     -13.861  -3.160  -5.406  0.00  0.00    +0.126 A 
ATOM     26  C   UNL     1     -13.536  -1.855  -5.083  0.00  0.00    +0.034 A 
ATOM     27  C   UNL     1     -12.455  -1.594  -4.265  0.00  0.00    +0.025 A 
BRANCH  25  28
ATOM     28  N   UNL     1     -15.024  -3.436  -6.280  0.00  0.00    +0.056 N 
ATOM     29  O   UNL     1     -15.309  -4.577  -6.563  0.00  0.00    -0.126 OA
ATOM     30  O   UNL     1     -15.688  -2.522  -6.710  0.00  0.00    -0.126 OA
ENDBRANCH  25  28
ENDBRANCH  19  22
ENDBRANCH   1  16
BRANCH   1  31
ATOM     31  C   UNL     1      -6.177  -1.340  -3.793  0.00  0.00    +0.170 A 
ATOM     32  N   UNL     1      -6.266  -2.322  -4.657  0.00  0.00    -0.112 NA
ATOM     33  N   UNL     1      -5.843  -1.891  -5.795  0.00  0.00    -0.023 NA
ATOM     34  N   UNL     1      -5.485  -0.659  -5.679  0.00  0.00    -0.044 NA
ATOM     35  N   UNL     1      -5.681  -0.282  -4.461  0.00  0.00    -0.225 N 
BRANCH  35  36
ATOM     36  C   UNL     1      -5.411   1.047  -3.908  0.00  0.00    +0.175 C 
BRANCH  36  37
ATOM     37  C   UNL     1      -3.946   1.132  -3.475  0.00  0.00    +0.183 C 
BRANCH  37  38
ATOM     38  O   UNL     1      -3.706   2.394  -2.851  0.00  0.00    -0.381 OA
ATOM     39  C   UNL     1      -2.337   2.623  -2.509  0.00  0.00    +0.194 C 
ENDBRANCH  37  38
ENDBRANCH  36  37
ENDBRANCH  35  36
ENDBRANCH   1  31
TORSDOF 9
