REMARK  Name = ZINC12904095
REMARK  13 active torsions:
REMARK  status: ('A' for Active; 'I' for Inactive)
REMARK    1  A    between atoms: C_1  and  C_2
REMARK    2  A    between atoms: C_4  and  C_35
REMARK    3  A    between atoms: C_6  and  S_8
REMARK    4  A    between atoms: S_8  and  C_9
REMARK    5  A    between atoms: C_9  and  C_10
REMARK    6  A    between atoms: C_10  and  O_12
REMARK    7  A    between atoms: O_12  and  C_13
REMARK    8  A    between atoms: C_13  and  C_14
REMARK    9  A    between atoms: C_15  and  C_31
REMARK   10  A    between atoms: C_16  and  C_25
REMARK   11  A    between atoms: N_21  and  C_22
REMARK   12  A    between atoms: C_31  and  O_33
REMARK   13  A    between atoms: O_33  and  C_34
REMARK                            x       y       z     vdW  Elec       q    Type
REMARK                         _______ _______ _______ _____ _____    ______ ____
ROOT
ATOM      1  C   UNL     1      -0.011   1.365  -0.117  0.00  0.00    +0.065 C 
ATOM      2  C   UNL     1       1.134   2.075  -0.023  0.00  0.00    +0.082 C 
ATOM      3  C   UNL     1       2.433   1.305   0.094  0.00  0.00    +0.144 C 
ATOM      4  N   UNL     1       2.340  -0.165   0.095  0.00  0.00    -0.288 N 
ATOM      5  C   UNL     1       1.121  -0.731  -0.006  0.00  0.00    +0.307 C 
ATOM      6  O   UNL     1       1.033  -1.943  -0.006  0.00  0.00    -0.252 OA
ATOM      7  N   UNL     1       0.003  -0.000  -0.107  0.00  0.00    -0.252 N 
ATOM      8  H   UNL     1       3.137  -0.713   0.167  0.00  0.00    +0.151 HD
ENDROOT
BRANCH   3   9
ATOM      9  C   UNL     1       3.111   1.728   1.371  0.00  0.00    -0.022 A 
ATOM     10  C   UNL     1       2.806   1.092   2.560  0.00  0.00    +0.006 A 
ATOM     11  C   UNL     1       3.432   1.477   3.731  0.00  0.00    +0.000 A 
ATOM     12  C   UNL     1       4.355   2.506   3.715  0.00  0.00    +0.000 A 
ATOM     13  C   UNL     1       4.656   3.146   2.527  0.00  0.00    +0.000 A 
ATOM     14  C   UNL     1       4.034   2.757   1.355  0.00  0.00    +0.006 A 
ENDBRANCH   3   9
BRANCH   7  15
ATOM     15  C   UNL     1      -1.277  -0.706  -0.212  0.00  0.00    +0.083 C 
ATOM     16  C   UNL     1      -1.364  -1.867  -1.205  0.00  0.00    +0.025 C 
ATOM     17  C   UNL     1      -2.069  -0.543  -1.510  0.00  0.00    +0.025 C 
ENDBRANCH   7  15
BRANCH   2  18
ATOM     18  C   UNL     1       1.120   3.489  -0.033  0.00  0.00    +0.339 C 
ATOM     19  O   UNL     1       0.061   4.088  -0.020  0.00  0.00    -0.245 OA
BRANCH  18  20
ATOM     20  O   UNL     1       2.282   4.175  -0.057  0.00  0.00    -0.465 OA
ATOM     21  C   UNL     1       2.194   5.601  -0.066  0.00  0.00    +0.280 C 
ENDBRANCH  18  20
ENDBRANCH   2  18
BRANCH   1  22
ATOM     22  C   UNL     1      -1.326   2.092  -0.241  0.00  0.00    +0.283 C 
BRANCH  22  23
ATOM     23  O   UNL     1      -1.447   2.648  -1.577  0.00  0.00    -0.458 OA
BRANCH  23  24
ATOM     24  C   UNL     1      -2.569   3.331  -1.853  0.00  0.00    +0.318 C 
ATOM     25  O   UNL     1      -3.422   3.460  -1.006  0.00  0.00    -0.250 OA
BRANCH  24  26
ATOM     26  C   UNL     1      -2.766   3.937  -3.218  0.00  0.00    +0.197 C 
BRANCH  26  27
ATOM     27  S   UNL     1      -4.363   4.786  -3.277  0.00  0.00    -0.075 S 
BRANCH  27  33
ATOM     28  C   UNL     1      -2.026   5.247  -7.807  0.00  0.00    +0.066 C 
ATOM     29  C   UNL     1      -3.225   5.550  -6.947  0.00  0.00    +0.043 A 
ATOM     30  C   UNL     1      -4.284   6.286  -7.455  0.00  0.00    +0.046 A 
ATOM     31  C   UNL     1      -5.369   6.544  -6.630  0.00  0.00    +0.043 A 
ATOM     32  N   UNL     1      -5.361   6.082  -5.391  0.00  0.00    -0.227 NA
ATOM     33  C   UNL     1      -4.332   5.381  -4.936  0.00  0.00    +0.189 A 
ATOM     34  N   UNL     1      -3.278   5.122  -5.696  0.00  0.00    -0.227 NA
ATOM     35  C   UNL     1      -6.543   7.339  -7.140  0.00  0.00    +0.066 C 
ENDBRANCH  27  33
ENDBRANCH  26  27
ENDBRANCH  24  26
ENDBRANCH  23  24
ENDBRANCH  22  23
ENDBRANCH   1  22
TORSDOF 10
