REMARK  Name = ZINC09335165
REMARK  8 active torsions:
REMARK  status: ('A' for Active; 'I' for Inactive)
REMARK    1  A    between atoms: C_4  and  C_7
REMARK    2  A    between atoms: N_9  and  C_10
REMARK    3  A    between atoms: C_10  and  C_11
REMARK    4  A    between atoms: C_11  and  O_13
REMARK    5  A    between atoms: O_13  and  C_14
REMARK    6  A    between atoms: C_14  and  C_15
REMARK    7  A    between atoms: C_18  and  C_34
REMARK    8  A    between atoms: C_26  and  C_27
REMARK                            x       y       z     vdW  Elec       q    Type
REMARK                         _______ _______ _______ _____ _____    ______ ____
ROOT
ATOM      1  C   UNL     1      -0.018   1.503   0.010  0.00  0.00    +0.273 C 
ATOM      2  O   UNL     1      -1.077   2.095   0.018  0.00  0.00    -0.270 OA
ATOM      3  N   UNL     1       1.139   2.192   0.003  0.00  0.00    -0.179 N 
ATOM      4  C   UNL     1       1.277   3.667   0.004  0.00  0.00    +0.176 C 
ATOM      5  C   UNL     1       2.702   3.846  -0.545  0.00  0.00    +0.069 C 
ATOM      6  C   UNL     1       3.473   4.924   0.221  0.00  0.00    +0.012 C 
ATOM      7  C   UNL     1       4.921   4.911  -0.261  0.00  0.00    +0.005 C 
ATOM      8  C   UNL     1       5.638   3.605   0.017  0.00  0.00    +0.037 C 
ATOM      9  C   UNL     1       4.760   2.393  -0.057  0.00  0.00    -0.021 C 
ATOM     10  C   UNL     1       5.318   1.160  -0.014  0.00  0.00    +0.051 C 
ATOM     11  C   UNL     1       3.359   2.519  -0.172  0.00  0.00    +0.068 C 
ATOM     12  N   UNL     1       2.427   1.643  -0.013  0.00  0.00    -0.181 NA
ENDROOT
BRANCH  10  13
ATOM     13  C   UNL     1       6.769   1.018   0.104  0.00  0.00    +0.128 A 
ATOM     14  C   UNL     1       7.458  -0.161   0.164  0.00  0.00    +0.049 A 
ATOM     15  C   UNL     1       8.820   0.173   0.270  0.00  0.00    +0.042 A 
ATOM     16  C   UNL     1       8.900   1.520   0.279  0.00  0.00    +0.195 A 
ATOM     17  O   UNL     1       7.660   2.027   0.179  0.00  0.00    -0.464 OA
ENDBRANCH  10  13
BRANCH   4  18
ATOM     18  C   UNL     1       1.166   4.219   1.401  0.00  0.00    +0.128 A 
ATOM     19  C   UNL     1       0.549   5.363   1.748  0.00  0.00    +0.046 A 
ATOM     20  C   UNL     1       0.684   5.492   3.150  0.00  0.00    +0.041 A 
ATOM     21  C   UNL     1       1.381   4.423   3.574  0.00  0.00    +0.195 A 
ATOM     22  O   UNL     1       1.671   3.655   2.511  0.00  0.00    -0.466 OA
ENDBRANCH   4  18
BRANCH   1  23
ATOM     23  C   UNL     1       0.002  -0.004   0.002  0.00  0.00    +0.329 C 
BRANCH  23  24
ATOM     24  O   UNL     1      -1.360  -0.507   0.012  0.00  0.00    -0.454 OA
BRANCH  24  25
ATOM     25  C   UNL     1      -1.518  -1.840   0.007  0.00  0.00    +0.325 C 
ATOM     26  O   UNL     1      -0.550  -2.562  -0.006  0.00  0.00    -0.249 OA
BRANCH  25  27
ATOM     27  C   UNL     1      -2.902  -2.434   0.017  0.00  0.00    +0.225 C 
BRANCH  27  30
ATOM     28  C   UNL     1      -3.926  -4.646   0.015  0.00  0.00    +0.245 C 
ATOM     29  O   UNL     1      -5.017  -4.109   0.028  0.00  0.00    -0.270 OA
ATOM     30  N   UNL     1      -2.806  -3.896   0.008  0.00  0.00    -0.301 N 
ATOM     31  H   UNL     1      -1.936  -4.325  -0.003  0.00  0.00    +0.150 HD
BRANCH  28  35
ATOM     32  C   UNL     1      -3.646  -8.884  -0.012  0.00  0.00    +0.000 A 
ATOM     33  C   UNL     1      -4.889  -8.276   0.004  0.00  0.00    +0.001 A 
ATOM     34  C   UNL     1      -4.987  -6.900   0.013  0.00  0.00    +0.013 A 
ATOM     35  C   UNL     1      -3.829  -6.121   0.006  0.00  0.00    +0.037 A 
ATOM     36  C   UNL     1      -2.578  -6.741  -0.015  0.00  0.00    +0.013 A 
ATOM     37  C   UNL     1      -2.494  -8.118  -0.019  0.00  0.00    +0.001 A 
ENDBRANCH  28  35
ENDBRANCH  27  30
ENDBRANCH  25  27
ENDBRANCH  24  25
ENDBRANCH  23  24
ENDBRANCH   1  23
TORSDOF 8
