REMARK  Name = ZINC13240785
REMARK  9 active torsions:
REMARK  status: ('A' for Active; 'I' for Inactive)
REMARK    1  A    between atoms: C_1  and  C_2
REMARK    2  A    between atoms: C_2  and  N_3
REMARK    3  A    between atoms: N_3  and  C_4
REMARK    4  A    between atoms: N_3  and  S_6
REMARK    5  A    between atoms: C_4  and  C_5
REMARK    6  A    between atoms: S_6  and  C_9
REMARK    7  A    between atoms: C_12  and  N_17
REMARK    8  A    between atoms: C_13  and  C_15
REMARK    9  A    between atoms: C_23  and  C_25
REMARK                            x       y       z     vdW  Elec       q    Type
REMARK                         _______ _______ _______ _____ _____    ______ ____
ROOT
ATOM      1  C   UNL     1      -6.137   0.013   8.423  0.00  0.00    +0.106 A 
ATOM      2  C   UNL     1      -4.845  -0.007   8.925  0.00  0.00    +0.030 A 
ATOM      3  C   UNL     1      -3.775   0.315   8.115  0.00  0.00    +0.026 A 
ATOM      4  C   UNL     1      -3.989   0.675   6.790  0.00  0.00    +0.044 A 
ATOM      5  C   UNL     1      -5.296   0.696   6.279  0.00  0.00    +0.086 A 
ATOM      6  C   UNL     1      -6.368   0.361   7.111  0.00  0.00    +0.045 A 
ENDROOT
BRANCH   4   7
ATOM      7  N   UNL     1      -2.915   1.005   5.975  0.00  0.00    -0.326 N 
ATOM      8  C   UNL     1      -2.239   2.216   6.459  0.00  0.00    +0.124 C 
ATOM      9  C   UNL     1      -1.180   2.649   5.439  0.00  0.00    +0.126 C 
ATOM     10  N   UNL     1      -0.293   1.506   5.173  0.00  0.00    -0.298 N 
ATOM     11  C   UNL     1      -0.906   0.220   4.809  0.00  0.00    +0.126 C 
ATOM     12  C   UNL     1      -1.976  -0.119   5.860  0.00  0.00    +0.124 C 
ATOM     13  C   UNL     1       1.046   1.636   5.255  0.00  0.00    +0.220 C 
ATOM     14  O   UNL     1       1.765   0.716   4.930  0.00  0.00    -0.275 OA
BRANCH  13  15
ATOM     15  C   UNL     1       1.649   2.925   5.751  0.00  0.00    +0.098 C 
ATOM     16  C   UNL     1       1.597   3.987   4.639  0.00  0.00    +0.037 C 
ATOM     17  C   UNL     1       2.489   5.194   5.018  0.00  0.00    +0.166 C 
ATOM     18  S   UNL     1       3.768   4.428   6.094  0.00  0.00    -0.030 S 
ATOM     19  O   UNL     1       3.668   4.983   7.398  0.00  0.00    -0.174 OA
ATOM     20  O   UNL     1       5.017   4.452   5.417  0.00  0.00    -0.174 OA
ATOM     21  C   UNL     1       3.139   2.696   6.131  0.00  0.00    +0.178 C 
ENDBRANCH  13  15
ENDBRANCH   4   7
BRANCH   1  22
ATOM     22  S   UNL     1      -7.490  -0.408   9.470  0.00  0.00    +0.061 S 
ATOM     23  O   UNL     1      -7.062  -0.169  10.803  0.00  0.00    -0.153 OA
ATOM     24  O   UNL     1      -8.641   0.215   8.916  0.00  0.00    -0.153 OA
BRANCH  22  25
ATOM     25  N   UNL     1      -7.725  -2.041   9.333  0.00  0.00    -0.177 NA
BRANCH  25  27
ATOM     26  C   UNL     1      -7.928  -3.298  11.422  0.00  0.00    +0.022 C 
ATOM     27  C   UNL     1      -7.024  -2.960  10.234  0.00  0.00    +0.106 C 
ENDBRANCH  25  27
BRANCH  25  28
ATOM     28  C   UNL     1      -8.633  -2.568   8.312  0.00  0.00    +0.106 C 
ATOM     29  C   UNL     1      -7.832  -2.948   7.064  0.00  0.00    +0.022 C 
ENDBRANCH  25  28
ENDBRANCH  22  25
ENDBRANCH   1  22
BRANCH   5  30
ATOM     30  C   UNL     1      -5.536   1.069   4.874  0.00  0.00    +0.388 C 
ATOM     31  O   UNL     1      -4.615   1.452   4.181  0.00  0.00    -0.241 OA
ATOM     32  O   UNL     1      -6.778   0.986   4.357  0.00  0.00    -0.241 OA
ENDBRANCH   5  30
TORSDOF 7
