REMARK  Name = ZINC35926563
REMARK  7 active torsions:
REMARK  status: ('A' for Active; 'I' for Inactive)
REMARK    1  A    between atoms: C_1  and  C_2
REMARK    2  A    between atoms: C_5  and  C_8
REMARK    3  A    between atoms: C_8  and  N_9
REMARK    4  A    between atoms: N_12  and  C_15
REMARK    5  A    between atoms: C_15  and  C_16
REMARK    6  A    between atoms: C_30  and  C_32
REMARK    7  A    between atoms: C_35  and  N_38
REMARK                            x       y       z     vdW  Elec       q    Type
REMARK                         _______ _______ _______ _____ _____    ______ ____
ROOT
ATOM      1  C   UNL     1       4.494  -8.250   0.679  0.00  0.00    +0.034 A 
ATOM      2  C   UNL     1       4.883  -8.839  -0.488  0.00  0.00    +0.091 A 
ATOM      3  C   UNL     1       4.919 -10.243  -0.562  0.00  0.00    +0.253 A 
ATOM      4  O   UNL     1       5.263 -10.804  -1.589  0.00  0.00    -0.268 OA
ATOM      5  N   UNL     1       4.567 -10.959   0.528  0.00  0.00    -0.295 N 
ATOM      6  H   UNL     1       4.585 -11.929   0.500  0.00  0.00    +0.172 HD
ATOM      7  C   UNL     1       4.187 -10.316   1.665  0.00  0.00    +0.198 A 
ATOM      8  N   UNL     1       4.160  -9.000   1.727  0.00  0.00    -0.223 NA
ATOM      9  N   UNL     1       3.831 -11.049   2.765  0.00  0.00    -0.298 N 
ATOM     10  C   UNL     1       3.743 -12.514   2.691  0.00  0.00    +0.127 C 
ATOM     11  C   UNL     1       4.641 -13.115   3.780  0.00  0.00    +0.127 C 
ATOM     12  N   UNL     1       4.341 -12.450   5.056  0.00  0.00    -0.295 N 
ATOM     13  C   UNL     1       4.430 -10.985   5.129  0.00  0.00    +0.127 C 
ATOM     14  C   UNL     1       3.537 -10.385   4.043  0.00  0.00    +0.127 C 
ATOM     15  C   UNL     1       3.991 -13.172   6.139  0.00  0.00    +0.247 C 
ATOM     16  O   UNL     1       3.650 -12.608   7.160  0.00  0.00    -0.270 OA
ENDROOT
BRANCH  15  17
ATOM     17  C   UNL     1       4.021 -14.649   6.085  0.00  0.00    +0.037 A 
ATOM     18  C   UNL     1       5.077 -15.305   5.450  0.00  0.00    +0.015 A 
ATOM     19  C   UNL     1       5.100 -16.684   5.403  0.00  0.00    +0.033 A 
ATOM     20  C   UNL     1       4.079 -17.416   5.984  0.00  0.00    +0.126 A 
ATOM     21  C   UNL     1       3.030 -16.771   6.614  0.00  0.00    +0.033 A 
ATOM     22  C   UNL     1       2.998 -15.393   6.673  0.00  0.00    +0.015 A 
BRANCH  20  23
ATOM     23  N   UNL     1       4.110 -18.894   5.930  0.00  0.00    +0.056 N 
ATOM     24  O   UNL     1       5.025 -19.460   5.379  0.00  0.00    -0.126 OA
ATOM     25  O   UNL     1       3.219 -19.536   6.436  0.00  0.00    -0.126 OA
ENDBRANCH  20  23
ENDBRANCH  15  17
BRANCH   1  26
ATOM     26  C   UNL     1       4.447  -6.747   0.784  0.00  0.00    -0.022 C 
BRANCH  26  30
ATOM     27  N   UNL     1       0.769  -4.764   0.264  0.00  0.00    -0.302 NA
ATOM     28  C   UNL     1       1.581  -4.412   1.437  0.00  0.00    +0.066 C 
ATOM     29  C   UNL     1       3.026  -4.862   1.208  0.00  0.00    -0.063 C 
ATOM     30  N   UNL     1       3.058  -6.314   0.986  0.00  0.00    +0.385 N 
ATOM     31  C   UNL     1       2.263  -6.647  -0.203  0.00  0.00    -0.063 C 
ATOM     32  C   UNL     1       0.812  -6.212   0.015  0.00  0.00    +0.066 C 
ATOM     33  H   UNL     1       2.673  -6.785   1.791  0.00  0.00    -0.081 HD
BRANCH  27  34
ATOM     34  C   UNL     1      -0.615  -4.298   0.422  0.00  0.00    +0.119 C 
BRANCH  34  39
ATOM     35  C   UNL     1      -0.712   1.480   0.450  0.00  0.00    +0.044 C 
ATOM     36  C   UNL     1      -0.687  -0.027   0.443  0.00  0.00    -0.050 A 
ATOM     37  C   UNL     1      -0.809  -0.714  -0.750  0.00  0.00    +0.003 A 
ATOM     38  C   UNL     1      -0.785  -2.096  -0.757  0.00  0.00    +0.005 A 
ATOM     39  C   UNL     1      -0.639  -2.791   0.429  0.00  0.00    -0.033 A 
ATOM     40  C   UNL     1      -0.516  -2.104   1.622  0.00  0.00    +0.005 A 
ATOM     41  C   UNL     1      -0.535  -0.722   1.629  0.00  0.00    +0.003 A 
ENDBRANCH  34  39
ENDBRANCH  27  34
ENDBRANCH  26  30
ENDBRANCH   1  26
TORSDOF 6
