REMARK  Name = ZINC00390696
REMARK  5 active torsions:
REMARK  status: ('A' for Active; 'I' for Inactive)
REMARK    1  A    between atoms: C_5  and  O_7
REMARK    2  A    between atoms: O_7  and  C_8
REMARK    3  A    between atoms: C_13  and  C_14
REMARK    4  A    between atoms: C_17  and  O_21
REMARK    5  A    between atoms: C_19  and  O_20
REMARK                            x       y       z     vdW  Elec       q    Type
REMARK                         _______ _______ _______ _____ _____    ______ ____
ROOT
ATOM      1  C   UNL     1       0.047  -2.697   0.091  0.00  0.00    +0.174 A 
ATOM      2  C   UNL     1      -1.182  -2.128   0.111  0.00  0.00    +0.151 A 
ATOM      3  N   UNL     1      -2.099  -3.124   0.235  0.00  0.00    -0.280 N 
ATOM      4  H   UNL     1      -3.062  -3.010   0.276  0.00  0.00    +0.188 HD
ATOM      5  N   UNL     1      -1.412  -4.343   0.292  0.00  0.00    -0.170 NA
ATOM      6  C   UNL     1      -0.123  -4.094   0.201  0.00  0.00    +0.138 A 
ENDROOT
BRANCH   6   7
ATOM      7  C   UNL     1       0.963  -5.105   0.214  0.00  0.00    +0.047 A 
ATOM      8  C   UNL     1       2.293  -4.702   0.119  0.00  0.00    +0.017 A 
ATOM      9  C   UNL     1       3.301  -5.644   0.132  0.00  0.00    +0.046 A 
ATOM     10  C   UNL     1       2.993  -6.994   0.240  0.00  0.00    +0.120 A 
ATOM     11  C   UNL     1       1.671  -7.403   0.336  0.00  0.00    +0.091 A 
ATOM     12  C   UNL     1       0.654  -6.464   0.329  0.00  0.00    +0.130 A 
BRANCH  12  13
ATOM     13  O   UNL     1      -0.641  -6.862   0.428  0.00  0.00    -0.506 OA
ATOM     14  H   UNL     1      -1.064  -7.040  -0.423  0.00  0.00    +0.292 HD
ENDBRANCH  12  13
BRANCH  10  15
ATOM     15  O   UNL     1       3.990  -7.917   0.252  0.00  0.00    -0.507 OA
ATOM     16  H   UNL     1       4.324  -8.124   1.136  0.00  0.00    +0.292 HD
ENDBRANCH  10  15
ENDBRANCH   6   7
BRANCH   1  17
ATOM     17  O   UNL     1       1.234  -2.039  -0.022  0.00  0.00    -0.449 OA
BRANCH  17  22
ATOM     18  C   UNL     1       1.245   1.409  -1.184  0.00  0.00    +0.004 A 
ATOM     19  C   UNL     1       1.175   2.087   0.018  0.00  0.00    +0.003 A 
ATOM     20  C   UNL     1       1.124   1.386   1.209  0.00  0.00    +0.042 A 
ATOM     21  C   UNL     1       1.144   0.003   1.199  0.00  0.00    +0.165 A 
ATOM     22  C   UNL     1       1.214  -0.680  -0.009  0.00  0.00    +0.164 A 
ATOM     23  C   UNL     1       1.264   0.027  -1.200  0.00  0.00    +0.049 A 
ATOM     24  F   UNL     1       1.095  -0.683   2.362  0.00  0.00    -0.202 F 
ENDBRANCH  17  22
ENDBRANCH   1  17
TORSDOF 5
