REMARK  Name = ZINC37349470
REMARK  4 active torsions:
REMARK  status: ('A' for Active; 'I' for Inactive)
REMARK    1  A    between atoms: C_1  and  C_2
REMARK    2  A    between atoms: C_5  and  C_7
REMARK    3  A    between atoms: C_8  and  C_14
REMARK    4  A    between atoms: C_9  and  N_13
REMARK                            x       y       z     vdW  Elec       q    Type
REMARK                         _______ _______ _______ _____ _____    ______ ____
ROOT
ATOM      1  C   UNL     1       1.314   0.159   2.237  0.00  0.00    +0.076 A 
ATOM      2  C   UNL     1       2.675   0.186   2.597  0.00  0.00    +0.044 A 
ATOM      3  C   UNL     1       2.813   1.114   3.614  0.00  0.00    +0.120 A 
ATOM      4  N   UNL     1       1.586   1.627   3.857  0.00  0.00    -0.264 N 
ATOM      5  H   UNL     1       1.374   2.302   4.520  0.00  0.00    +0.190 HD
ATOM      6  N   UNL     1       0.675   1.020   2.985  0.00  0.00    -0.176 NA
ENDROOT
BRANCH   2   7
ATOM      7  C   UNL     1       3.759  -0.630   1.997  0.00  0.00    -0.009 A 
ATOM      8  C   UNL     1       3.748  -2.017   2.137  0.00  0.00    +0.012 A 
ATOM      9  C   UNL     1       4.758  -2.775   1.579  0.00  0.00    +0.050 A 
ATOM     10  C   UNL     1       5.785  -2.161   0.878  0.00  0.00    +0.166 A 
ATOM     11  C   UNL     1       5.801  -0.775   0.735  0.00  0.00    +0.167 A 
ATOM     12  C   UNL     1       4.787  -0.012   1.288  0.00  0.00    +0.058 A 
ATOM     13  O   UNL     1       6.904  -0.423   0.013  0.00  0.00    -0.453 OA
ATOM     14  C   UNL     1       7.779  -1.566   0.066  0.00  0.00    +0.466 C 
ATOM     15  O   UNL     1       6.880  -2.676   0.245  0.00  0.00    -0.453 OA
ENDBRANCH   2   7
BRANCH   1  19
ATOM     16  C   UNL     1      -0.019   1.526   0.010  0.00  0.00    +0.008 C 
ATOM     17  C   UNL     1       0.002  -0.004   0.002  0.00  0.00    -0.004 C 
ATOM     18  C   UNL     1      -0.828  -0.728   1.065  0.00  0.00    +0.014 C 
ATOM     19  C   UNL     1       0.700  -0.708   1.168  0.00  0.00    +0.043 C 
ENDBRANCH   1  19
BRANCH   3  20
ATOM     20  N   UNL     1       3.992   1.455   4.263  0.00  0.00    -0.343 N 
ATOM     21  H   UNL     1       4.825   1.027   4.012  0.00  0.00    +0.144 HD
ATOM     22  H   UNL     1       3.983   2.122   4.967  0.00  0.00    +0.144 HD
ENDBRANCH   3  20
TORSDOF 3
