REMARK  Name = ZINC64600293
REMARK  8 active torsions:
REMARK  status: ('A' for Active; 'I' for Inactive)
REMARK    1  A    between atoms: N_9  and  C_14
REMARK    2  A    between atoms: C_10  and  O_13
REMARK    3  A    between atoms: C_14  and  C_15
REMARK    4  A    between atoms: C_15  and  C_16
REMARK    5  A    between atoms: C_16  and  C_17
REMARK    6  A    between atoms: N_19  and  C_20
REMARK    7  A    between atoms: C_20  and  C_21
REMARK    8  A    between atoms: C_21  and  C_22
REMARK                            x       y       z     vdW  Elec       q    Type
REMARK                         _______ _______ _______ _____ _____    ______ ____
ROOT
ATOM      1  C   UNL     1       3.088  -6.120  -1.388  0.00  0.00    +0.097 C 
ENDROOT
BRANCH   1   2
ATOM      2  C   UNL     1       3.484  -6.505  -2.790  0.00  0.00    +0.213 C 
ATOM      3  O   UNL     1       3.664  -5.646  -3.627  0.00  0.00    -0.276 OA
ATOM      4  N   UNL     1       3.638  -7.804  -3.113  0.00  0.00    -0.315 N 
ATOM      5  H   UNL     1       3.494  -8.491  -2.444  0.00  0.00    +0.149 HD
BRANCH   4   6
ATOM      6  C   UNL     1       4.023  -8.179  -4.476  0.00  0.00    +0.108 C 
BRANCH   6   7
ATOM      7  C   UNL     1       4.128  -9.703  -4.576  0.00  0.00    +0.052 C 
BRANCH   7   8
ATOM      8  C   UNL     1       4.524 -10.088  -5.978  0.00  0.00    -0.040 C 
ATOM      9  C   UNL     1       5.774 -10.339  -6.430  0.00  0.00    +0.000 A 
ATOM     10  C   UNL     1       7.088 -10.327  -5.777  0.00  0.00    +0.030 A 
ATOM     11  C   UNL     1       8.187 -10.628  -6.508  0.00  0.00    +0.042 A 
ATOM     12  C   UNL     1       8.101 -10.949  -7.870  0.00  0.00    +0.022 A 
ATOM     13  C   UNL     1       6.928 -10.981  -8.539  0.00  0.00    +0.027 A 
ATOM     14  C   UNL     1       5.710 -10.682  -7.869  0.00  0.00    +0.043 A 
ATOM     15  N   UNL     1       4.469 -10.644  -8.290  0.00  0.00    -0.380 N 
ATOM     16  C   UNL     1       3.604 -10.280  -7.162  0.00  0.00    +0.144 C 
ATOM     17 CL   UNL     1       9.743 -10.615  -5.739  0.00  0.00    -0.084 Cl
ATOM     18  H   UNL     1       4.172 -10.831  -9.194  0.00  0.00    +0.160 HD
ENDBRANCH   7   8
ENDBRANCH   6   7
ENDBRANCH   4   6
ENDBRANCH   1   2
BRANCH   1  19
ATOM     19  C   UNL     1       2.983  -4.596  -1.288  0.00  0.00    +0.028 C 
BRANCH  19  20
ATOM     20  C   UNL     1       2.581  -4.205   0.135  0.00  0.00    +0.112 C 
BRANCH  20  29
ATOM     21  C   UNL     1      -0.017   1.375   0.010  0.00  0.00    +0.001 A 
ATOM     22  C   UNL     1       1.168   2.095   0.002  0.00  0.00    +0.002 A 
ATOM     23  C   UNL     1       2.386   1.444  -0.012  0.00  0.00    +0.024 A 
ATOM     24  C   UNL     1       2.422   0.060  -0.018  0.00  0.00    +0.042 A 
ATOM     25  C   UNL     1       1.223  -0.674  -0.014  0.00  0.00    +0.058 A 
ATOM     26  C   UNL     1       0.002  -0.004   0.002  0.00  0.00    +0.015 A 
ATOM     27  C   UNL     1       1.301  -2.146  -0.031  0.00  0.00    +0.251 C 
ATOM     28  O   UNL     1       0.313  -2.811  -0.278  0.00  0.00    -0.270 OA
ATOM     29  N   UNL     1       2.480  -2.747   0.230  0.00  0.00    -0.256 N 
ATOM     30  C   UNL     1       3.660  -1.968   0.607  0.00  0.00    +0.299 C 
ATOM     31  N   UNL     1       3.621  -0.645  -0.027  0.00  0.00    -0.303 N 
ATOM     32  H   UNL     1       4.413  -0.271  -0.443  0.00  0.00    +0.150 HD
BRANCH  30  33
ATOM     33  O   UNL     1       3.688  -1.808   2.027  0.00  0.00    -0.359 OA
ATOM     34  H   UNL     1       4.444  -1.301   2.351  0.00  0.00    +0.213 HD
ENDBRANCH  30  33
ENDBRANCH  20  29
ENDBRANCH  19  20
ENDBRANCH   1  19
TORSDOF 8
