REMARK  Name = ZINC21264078
REMARK  16 active torsions:
REMARK  status: ('A' for Active; 'I' for Inactive)
REMARK    1  A    between atoms: C_1  and  C_2
REMARK    2  A    between atoms: C_5  and  C_7
REMARK    3  A    between atoms: C_7  and  N_8
REMARK    4  A    between atoms: N_8  and  C_9
REMARK    5  A    between atoms: N_8  and  C_15
REMARK    6  A    between atoms: C_9  and  C_10
REMARK    7  A    between atoms: C_10  and  C_11
REMARK    8  A    between atoms: C_11  and  N_12
REMARK    9  A    between atoms: N_12  and  C_13
REMARK   10  A    between atoms: N_12  and  C_14
REMARK   11  A    between atoms: C_15  and  N_17
REMARK   12  A    between atoms: N_17  and  C_18
REMARK   13  A    between atoms: C_20  and  C_26
REMARK   14  A    between atoms: C_20  and  C_27
REMARK   15  A    between atoms: C_22  and  C_24
REMARK   16  A    between atoms: C_22  and  C_25
REMARK                            x       y       z     vdW  Elec       q    Type
REMARK                         _______ _______ _______ _____ _____    ______ ____
ROOT
ATOM      1  C   UNL     1       0.113   5.703  -2.353  0.00  0.00    +0.133 C 
ATOM      2  S   UNL     1      -0.229   4.821  -3.780  0.00  0.00    -0.019 S 
ENDROOT
BRANCH   1   3
ATOM      3  N   UNL     1       0.389   5.051  -1.207  0.00  0.00    -0.324 N 
ATOM      4  H   UNL     1       0.608   5.617  -0.290  0.00  0.00    +0.148 HD
BRANCH   3   5
ATOM      5  C   UNL     1       0.396   3.583  -1.181  0.00  0.00    +0.069 C 
ATOM      6  C   UNL     1       1.298   3.104  -0.042  0.00  0.00    +0.009 C 
ATOM      7  C   UNL     1       1.320   1.577  -0.002  0.00  0.00    -0.072 C 
ATOM      8  N   UNL     1      -0.012   1.005   0.008  0.00  0.00    +0.386 N 
ATOM      9  C   UNL     1      -1.042   1.551  -0.852  0.00  0.00    -0.072 C 
ATOM     10  C   UNL     1      -1.022   3.076  -0.918  0.00  0.00    +0.009 C 
ATOM     11  C   UNL     1      -0.944   0.975  -2.269  0.00  0.00    -0.010 C 
ATOM     12  C   UNL     1      -2.415   1.129  -0.282  0.00  0.00    -0.010 C 
ATOM     13  C   UNL     1       2.035   1.156   1.301  0.00  0.00    -0.010 C 
ATOM     14  C   UNL     1       2.151   1.041  -1.172  0.00  0.00    -0.010 C 
ATOM     15  H   UNL     1       0.042  -0.055  -0.283  0.00  0.00    -0.084 HD
ATOM     16  H   UNL     1      -0.438   1.086   1.018  0.00  0.00    -0.084 HD
ENDBRANCH   3   5
ENDBRANCH   1   3
BRANCH   1  17
ATOM     17  N   UNL     1       0.106   7.051  -2.376  0.00  0.00    -0.305 N 
BRANCH  17  18
ATOM     18  C   UNL     1      -0.194   7.761  -3.622  0.00  0.00    +0.181 C 
BRANCH  18  23
ATOM     19  C   UNL     1      -5.077   7.093  -4.696  0.00  0.00    +0.086 C 
ATOM     20  C   UNL     1      -3.801   7.713  -4.185  0.00  0.00    +0.102 A 
ATOM     21  C   UNL     1      -3.699   8.896  -3.555  0.00  0.00    +0.045 A 
ATOM     22  C   UNL     1      -2.330   9.083  -3.254  0.00  0.00    +0.046 A 
ATOM     23  C   UNL     1      -1.678   8.002  -3.718  0.00  0.00    +0.122 A 
ATOM     24  O   UNL     1      -2.573   7.178  -4.286  0.00  0.00    -0.463 OA
ENDBRANCH  18  23
ENDBRANCH  17  18
BRANCH  17  25
ATOM     25  C   UNL     1       0.398   7.806  -1.155  0.00  0.00    +0.105 C 
BRANCH  25  26
ATOM     26  C   UNL     1       1.903   8.070  -1.067  0.00  0.00    +0.000 C 
BRANCH  26  27
ATOM     27  C   UNL     1       2.208   8.859   0.208  0.00  0.00    -0.078 C 
BRANCH  27  28
ATOM     28  N   UNL     1       3.653   9.113   0.293  0.00  0.00    +0.376 N 
ATOM     29  C   UNL     1       4.094  10.007  -0.786  0.00  0.00    -0.097 C 
ATOM     30  C   UNL     1       4.015   9.655   1.609  0.00  0.00    -0.097 C 
ATOM     31  H   UNL     1       4.173   8.151   0.169  0.00  0.00    -0.083 HD
ENDBRANCH  27  28
ENDBRANCH  26  27
ENDBRANCH  25  26
ENDBRANCH  17  25
ENDBRANCH   1  17
TORSDOF 9
