REMARK  Name = ZINC43659281
REMARK  5 active torsions:
REMARK  status: ('A' for Active; 'I' for Inactive)
REMARK    1  A    between atoms: C_1  and  C_2
REMARK    2  A    between atoms: C_3  and  C_11
REMARK    3  A    between atoms: C_7  and  N_8
REMARK    4  A    between atoms: C_11  and  C_12
REMARK    5  A    between atoms: C_21  and  O_23
REMARK                            x       y       z     vdW  Elec       q    Type
REMARK                         _______ _______ _______ _____ _____    ______ ____
ROOT
ATOM      1  C   UNL     1      -0.749   0.015  -2.412  0.00  0.00    +0.042 C 
ENDROOT
BRANCH   1   2
ATOM      2  C   UNL     1       0.487   0.652  -3.050  0.00  0.00    +0.031 C 
ATOM      3  C   UNL     1       1.430  -0.430  -3.619  0.00  0.00    +0.042 C 
ATOM      4  C   UNL     1       2.021   0.179  -4.872  0.00  0.00    -0.041 A 
ATOM      5  C   UNL     1       3.138  -0.185  -5.606  0.00  0.00    +0.004 A 
ATOM      6  C   UNL     1       3.492   0.529  -6.734  0.00  0.00    +0.000 A 
ATOM      7  C   UNL     1       2.729   1.612  -7.132  0.00  0.00    +0.000 A 
ATOM      8  C   UNL     1       1.615   1.976  -6.401  0.00  0.00    +0.006 A 
ATOM      9  C   UNL     1       1.259   1.261  -5.270  0.00  0.00    -0.016 A 
ATOM     10  C   UNL     1       0.103   1.458  -4.309  0.00  0.00    +0.148 C 
BRANCH  10  11
ATOM     11  O   UNL     1      -1.105   0.945  -4.876  0.00  0.00    -0.387 OA
ATOM     12  H   UNL     1      -1.396   1.413  -5.670  0.00  0.00    +0.210 HD
ENDBRANCH  10  11
ENDBRANCH   1   2
BRANCH   1  15
ATOM     13  C   UNL     1      -0.538   1.447   0.088  0.00  0.00    +0.046 C 
ATOM     14  C   UNL     1      -0.246  -0.031   0.039  0.00  0.00    -0.017 A 
ATOM     15  C   UNL     1      -0.347  -0.716  -1.157  0.00  0.00    -0.042 A 
ATOM     16  C   UNL     1      -0.080  -2.071  -1.202  0.00  0.00    +0.004 A 
ATOM     17  C   UNL     1       0.289  -2.742  -0.051  0.00  0.00    +0.003 A 
ATOM     18  C   UNL     1       0.390  -2.057   1.145  0.00  0.00    +0.033 A 
ATOM     19  C   UNL     1       0.127  -0.700   1.190  0.00  0.00    +0.129 A 
BRANCH  19  20
ATOM     20  N   UNL     1       0.241   0.035   2.470  0.00  0.00    +0.057 N 
ATOM     21  O   UNL     1       0.674   1.163   2.482  0.00  0.00    -0.126 OA
ATOM     22  O   UNL     1      -0.099  -0.494   3.502  0.00  0.00    -0.126 OA
ENDBRANCH  19  20
ENDBRANCH   1  15
TORSDOF 4
