REMARK  Name = ZINC38789866
REMARK  7 active torsions:
REMARK  status: ('A' for Active; 'I' for Inactive)
REMARK    1  A    between atoms: C_1  and  C_2
REMARK    2  A    between atoms: C_2  and  C_3
REMARK    3  A    between atoms: C_2  and  C_4
REMARK    4  A    between atoms: C_11  and  C_16
REMARK    5  A    between atoms: C_16  and  N_17
REMARK    6  A    between atoms: N_17  and  C_18
REMARK    7  A    between atoms: C_21  and  N_24
REMARK                            x       y       z     vdW  Elec       q    Type
REMARK                         _______ _______ _______ _____ _____    ______ ____
ROOT
ATOM      1  N   UNL     1      -6.480  -5.096  -2.118  0.00  0.00    -0.343 N 
ATOM      2  H   UNL     1      -7.210  -4.467  -2.233  0.00  0.00    +0.146 HD
ENDROOT
BRANCH   1   3
ATOM      3  C   UNL     1      -6.726  -6.473  -2.173  0.00  0.00    +0.027 A 
ATOM      4  C   UNL     1      -5.682  -7.372  -2.003  0.00  0.00    +0.025 A 
ATOM      5  C   UNL     1      -5.926  -8.731  -2.058  0.00  0.00    +0.025 A 
ATOM      6  C   UNL     1      -7.214  -9.197  -2.284  0.00  0.00    +0.030 A 
ATOM      7  C   UNL     1      -8.258  -8.297  -2.453  0.00  0.00    +0.025 A 
ATOM      8  C   UNL     1      -8.016  -6.939  -2.393  0.00  0.00    +0.025 A 
BRANCH   6   9
ATOM      9  N   UNL     1      -7.461 -10.574  -2.340  0.00  0.00    -0.328 N 
ATOM     10  C   UNL     1      -8.843 -11.036  -2.447  0.00  0.00    +0.114 C 
ATOM     11  C   UNL     1      -9.212 -11.843  -1.197  0.00  0.00    +0.114 C 
ATOM     12  C   UNL     1      -8.657 -13.242  -1.344  0.00  0.00    +0.215 C 
ATOM     13  O   UNL     1      -9.412 -14.171  -1.538  0.00  0.00    -0.276 OA
ATOM     14  N   UNL     1      -7.341 -13.461  -1.262  0.00  0.00    -0.314 N 
ATOM     15  C   UNL     1      -6.411 -12.349  -1.022  0.00  0.00    +0.123 C 
ATOM     16  C   UNL     1      -6.326 -11.492  -2.296  0.00  0.00    +0.124 C 
ATOM     17  H   UNL     1      -6.997 -14.362  -1.363  0.00  0.00    +0.149 HD
ENDBRANCH   6   9
ENDBRANCH   1   3
BRANCH   1  18
ATOM     18  C   UNL     1      -5.119  -4.604  -1.886  0.00  0.00    +0.118 C 
BRANCH  18  26
ATOM     19  C   UNL     1      -1.452  -0.522   0.099  0.00  0.00    -0.044 A 
ATOM     20  C   UNL     1      -2.316  -0.184   1.141  0.00  0.00    +0.006 A 
ATOM     21  C   UNL     1      -3.603  -0.615   1.194  0.00  0.00    +0.024 A 
ATOM     22  C   UNL     1      -4.125  -1.436   0.178  0.00  0.00    +0.040 A 
ATOM     23  N   UNL     1      -5.389  -1.852   0.240  0.00  0.00    -0.284 N 
ATOM     24  C   UNL     1      -5.942  -2.625  -0.680  0.00  0.00    +0.226 C 
ATOM     25  O   UNL     1      -7.102  -2.974  -0.568  0.00  0.00    -0.275 OA
ATOM     26  C   UNL     1      -5.126  -3.074  -1.871  0.00  0.00    +0.115 C 
ATOM     27  C   UNL     1      -3.687  -2.603  -1.947  0.00  0.00    -0.003 C 
ATOM     28  C   UNL     1      -3.234  -1.809  -0.935  0.00  0.00    -0.007 A 
ATOM     29  C   UNL     1      -1.860  -1.306  -0.933  0.00  0.00    +0.013 A 
ATOM     30  H   UNL     1      -5.930  -1.575   0.997  0.00  0.00    +0.155 HD
BRANCH  19  32
ATOM     31  C   UNL     1      -0.057   1.528   0.117  0.00  0.00    +0.012 C 
ATOM     32  C   UNL     1      -0.038  -0.002   0.115  0.00  0.00    +0.013 C 
ATOM     33  C   UNL     1       0.676  -0.504   1.371  0.00  0.00    +0.012 C 
ENDBRANCH  19  32
ENDBRANCH  18  26
ENDBRANCH   1  18
TORSDOF 5
