REMARK  Name = ZINC14983274
REMARK  11 active torsions:
REMARK  status: ('A' for Active; 'I' for Inactive)
REMARK    1  A    between atoms: C_1  and  C_2
REMARK    2  A    between atoms: C_2  and  C_3
REMARK    3  A    between atoms: C_2  and  C_4
REMARK    4  A    between atoms: C_2  and  C_5
REMARK    5  A    between atoms: C_5  and  N_71
REMARK    6  A    between atoms: C_8  and  C_11
REMARK    7  A    between atoms: C_8  and  O_35
REMARK    8  A    between atoms: C_18  and  C_20
REMARK    9  A    between atoms: N_22  and  C_23
REMARK   10  A    between atoms: N_22  and  C_24
REMARK   11  A    between atoms: C_24  and  C_25
REMARK                            x       y       z     vdW  Elec       q    Type
REMARK                         _______ _______ _______ _____ _____    ______ ____
ROOT
ATOM      1  C   UNL     1      -5.576  -2.139   6.353  0.00  0.00    -0.015 A 
ATOM      2  C   UNL     1      -5.958  -0.815   6.183  0.00  0.00    +0.010 A 
ATOM      3  C   UNL     1      -5.672  -0.144   5.014  0.00  0.00    +0.047 A 
ATOM      4  C   UNL     1      -4.995  -0.796   3.990  0.00  0.00    +0.136 A 
ATOM      5  C   UNL     1      -4.611  -2.138   4.167  0.00  0.00    +0.021 A 
ATOM      6  C   UNL     1      -4.910  -2.800   5.361  0.00  0.00    +0.018 A 
ATOM      7  C   UNL     1      -3.931  -2.523   2.931  0.00  0.00    +0.063 A 
ATOM      8  C   UNL     1      -3.956  -1.426   2.131  0.00  0.00    +0.191 A 
ATOM      9  O   UNL     1      -4.580  -0.412   2.767  0.00  0.00    -0.450 OA
ENDROOT
BRANCH   1  12
ATOM     10  C   UNL     1      -6.322  -2.561  10.084  0.00  0.00    -0.076 C 
ATOM     11  C   UNL     1      -5.933  -1.841   8.791  0.00  0.00    +0.021 C 
ATOM     12  C   UNL     1      -5.900  -2.852   7.641  0.00  0.00    +0.088 C 
ATOM     13  C   UNL     1      -7.270  -3.525   7.522  0.00  0.00    +0.021 C 
ATOM     14  C   UNL     1      -7.621  -4.194   8.853  0.00  0.00    -0.076 C 
ATOM     15  N   UNL     1      -7.660  -3.165   9.914  0.00  0.00    +0.380 N 
ATOM     16  H   UNL     1      -8.324  -2.431   9.641  0.00  0.00    -0.082 HD
BRANCH  12  17
ATOM     17  O   UNL     1      -4.903  -3.841   7.903  0.00  0.00    -0.384 OA
ATOM     18  H   UNL     1      -4.828  -4.516   7.215  0.00  0.00    +0.211 HD
ENDBRANCH  12  17
BRANCH  15  19
ATOM     19  C   UNL     1      -8.107  -3.768  11.186  0.00  0.00    -0.073 C 
BRANCH  19  21
ATOM     20  C   UNL     1     -10.008  -2.147  11.197  0.00  0.00    +0.009 C 
ATOM     21  C   UNL     1      -8.830  -2.696  12.004  0.00  0.00    -0.052 C 
ATOM     22  C   UNL     1      -9.347  -3.311  13.307  0.00  0.00    +0.009 C 
ATOM     23  C   UNL     1      -7.859  -1.559  12.327  0.00  0.00    +0.009 C 
ENDBRANCH  19  21
ENDBRANCH  15  19
ENDBRANCH   1  12
BRANCH   8  24
ATOM     24  C   UNL     1      -3.384  -1.351   0.779  0.00  0.00    +0.282 C 
ATOM     25  O   UNL     1      -2.954  -2.356   0.244  0.00  0.00    -0.267 OA
ATOM     26  N   UNL     1      -3.335  -0.170   0.132  0.00  0.00    -0.294 N 
ATOM     27  C   UNL     1      -3.743   1.059   0.819  0.00  0.00    +0.133 C 
BRANCH  26  28
ATOM     28  C   UNL     1      -2.875  -0.114  -1.258  0.00  0.00    +0.143 C 
BRANCH  28  29
ATOM     29  C   UNL     1      -1.383   0.096  -1.285  0.00  0.00    -0.029 A 
ATOM     30  C   UNL     1      -0.871   1.392  -1.299  0.00  0.00    +0.007 A 
ATOM     31  C   UNL     1       0.470   1.617  -1.329  0.00  0.00    +0.028 A 
ATOM     32  C   UNL     1       1.360   0.529  -1.340  0.00  0.00    +0.071 A 
ATOM     33  C   UNL     1       0.838  -0.788  -1.319  0.00  0.00    +0.001 A 
ATOM     34  C   UNL     1      -0.553  -0.983  -1.289  0.00  0.00    +0.015 A 
ATOM     35  C   UNL     1       1.730  -1.876  -1.331  0.00  0.00    +0.011 A 
ATOM     36  C   UNL     1       3.070  -1.611  -1.361  0.00  0.00    +0.020 A 
ATOM     37  C   UNL     1       3.517  -0.292  -1.380  0.00  0.00    +0.111 A 
ATOM     38  N   UNL     1       2.683   0.719  -1.370  0.00  0.00    -0.255 NA
ENDBRANCH  28  29
ENDBRANCH  26  28
ENDBRANCH   8  24
TORSDOF 7
