REMARK  Name = ZINC11970743
REMARK  13 active torsions:
REMARK  status: ('A' for Active; 'I' for Inactive)
REMARK    1  A    between atoms: C_1  and  C_2
REMARK    2  A    between atoms: C_2  and  N_65
REMARK    3  A    between atoms: C_3  and  C_4
REMARK    4  A    between atoms: C_3  and  N_65
REMARK    5  A    between atoms: C_5  and  C_6
REMARK    6  A    between atoms: C_5  and  N_65
REMARK    7  A    between atoms: C_6  and  N_7
REMARK    8  A    between atoms: N_7  and  C_8
REMARK    9  A    between atoms: C_9  and  C_11
REMARK   10  A    between atoms: C_15  and  C_16
REMARK   11  A    between atoms: C_25  and  C_27
REMARK   12  A    between atoms: C_32  and  O_33
REMARK   13  A    between atoms: O_33  and  C_34
REMARK                            x       y       z     vdW  Elec       q    Type
REMARK                         _______ _______ _______ _____ _____    ______ ____
ROOT
ATOM      1  C   UNL     1       1.046  -0.671  -0.170  0.00  0.00    +0.086 A 
ATOM      2  C   UNL     1      -0.337  -0.390  -0.171  0.00  0.00    +0.148 A 
ATOM      3  N   UNL     1      -0.498   0.899  -0.282  0.00  0.00    -0.171 NA
ATOM      4  N   UNL     1       0.753   1.520  -0.359  0.00  0.00    -0.194 N 
ATOM      5  C   UNL     1       1.714   0.552  -0.290  0.00  0.00    +0.125 A 
ATOM      6  C   UNL     1       0.980   2.888  -0.485  0.00  0.00    +0.252 A 
ATOM      7  N   UNL     1       2.226   3.333  -0.541  0.00  0.00    -0.219 NA
ATOM      8  C   UNL     1       2.484   4.625  -0.665  0.00  0.00    +0.117 A 
ATOM      9  C   UNL     1       1.433   5.522  -0.726  0.00  0.00    +0.048 A 
ATOM     10  C   UNL     1       0.128   5.024  -0.659  0.00  0.00    +0.080 A 
ATOM     11  N   UNL     1      -0.054   3.710  -0.539  0.00  0.00    -0.210 NA
ENDROOT
BRANCH  10  12
ATOM     12  C   UNL     1      -1.033   5.942  -0.720  0.00  0.00    +0.042 A 
ATOM     13  C   UNL     1      -0.833   7.316  -0.845  0.00  0.00    +0.013 A 
ATOM     14  C   UNL     1      -1.917   8.167  -0.901  0.00  0.00    +0.001 A 
ATOM     15  C   UNL     1      -3.204   7.662  -0.835  0.00  0.00    +0.004 A 
ATOM     16  C   UNL     1      -3.414   6.303  -0.711  0.00  0.00    +0.046 A 
ATOM     17  C   UNL     1      -2.335   5.435  -0.657  0.00  0.00    +0.129 A 
BRANCH  17  18
ATOM     18  O   UNL     1      -2.540   4.098  -0.541  0.00  0.00    -0.494 OA
ATOM     19  C   UNL     1      -3.897   3.652  -0.483  0.00  0.00    +0.277 C 
ENDBRANCH  17  18
ENDBRANCH  10  12
BRANCH   5  20
ATOM     20  C   UNL     1       3.166   0.757  -0.333  0.00  0.00    +0.154 A 
ATOM     21  C   UNL     1       3.836   1.566  -1.205  0.00  0.00    +0.051 A 
ATOM     22  C   UNL     1       5.201   1.460  -0.886  0.00  0.00    +0.042 A 
ATOM     23  C   UNL     1       5.302   0.596   0.146  0.00  0.00    +0.196 A 
ATOM     24  O   UNL     1       4.072   0.174   0.477  0.00  0.00    -0.461 OA
ENDBRANCH   5  20
BRANCH   1  27
ATOM     25  N   UNL     1       1.153  -2.918   0.775  0.00  0.00    -0.302 N 
ATOM     26  C   UNL     1      -0.092  -2.639   1.494  0.00  0.00    +0.132 C 
ATOM     27  C   UNL     1       1.668  -1.998  -0.064  0.00  0.00    +0.250 C 
ATOM     28  O   UNL     1       2.648  -2.267  -0.734  0.00  0.00    -0.270 OA
BRANCH  25  29
ATOM     29  C   UNL     1       1.838  -4.199   0.968  0.00  0.00    +0.089 C 
BRANCH  29  30
ATOM     30  C   UNL     1       2.833  -4.075   2.124  0.00  0.00    -0.060 C 
BRANCH  30  31
ATOM     31  N   UNL     1       3.412  -5.408   2.396  0.00  0.00    +0.380 N 
ATOM     32  H   UNL     1       2.662  -6.109   2.365  0.00  0.00    -0.082 HD
BRANCH  31  34
ATOM     33  C   UNL     1       4.840  -7.201   1.542  0.00  0.00    -0.017 C 
ATOM     34  C   UNL     1       4.423  -5.739   1.370  0.00  0.00    -0.082 C 
ENDBRANCH  31  34
BRANCH  31  35
ATOM     35  C   UNL     1       4.029  -5.426   3.739  0.00  0.00    -0.082 C 
ATOM     36  C   UNL     1       2.920  -5.519   4.788  0.00  0.00    -0.017 C 
ENDBRANCH  31  35
ENDBRANCH  30  31
ENDBRANCH  29  30
ENDBRANCH  25  29
ENDBRANCH   1  27
TORSDOF 9
