REMARK  Name = ZINC45638803
REMARK  7 active torsions:
REMARK  status: ('A' for Active; 'I' for Inactive)
REMARK    1  A    between atoms: C_1  and  C_2
REMARK    2  A    between atoms: C_6  and  C_24
REMARK    3  A    between atoms: C_8  and  N_11
REMARK    4  A    between atoms: N_14  and  N_15
REMARK    5  A    between atoms: C_16  and  C_18
REMARK    6  A    between atoms: C_24  and  C_25
REMARK    7  A    between atoms: C_24  and  C_26
REMARK                            x       y       z     vdW  Elec       q    Type
REMARK                         _______ _______ _______ _____ _____    ______ ____
ROOT
ATOM      1  N   UNL     1       2.763  -0.519   2.499  0.00  0.00    -0.295 N 
ATOM      2  C   UNL     1       2.509   0.086   3.676  0.00  0.00    +0.316 C 
ATOM      3  O   UNL     1       1.776   1.055   3.716  0.00  0.00    -0.251 OA
ATOM      4  N   UNL     1       3.069  -0.382   4.809  0.00  0.00    -0.218 N 
ATOM      5  H   UNL     1       3.348  -1.292   2.467  0.00  0.00    +0.151 HD
ATOM      6  H   UNL     1       2.886   0.054   5.656  0.00  0.00    +0.174 HD
ENDROOT
BRANCH   1  12
ATOM      7  C   UNL     1       0.055   1.507  -0.102  0.00  0.00    +0.007 C 
ATOM      8  C   UNL     1       0.095  -0.022  -0.147  0.00  0.00    -0.012 C 
ATOM      9  C   UNL     1       0.924  -0.474  -1.351  0.00  0.00    +0.004 C 
ATOM     10  C   UNL     1       2.348   0.070  -1.222  0.00  0.00    +0.006 C 
ATOM     11  C   UNL     1       2.984  -0.462   0.064  0.00  0.00    +0.012 C 
ATOM     12  C   UNL     1       2.155  -0.009   1.267  0.00  0.00    +0.078 C 
ATOM     13  C   UNL     1       0.730  -0.554   1.139  0.00  0.00    +0.026 C 
BRANCH  11  14
ATOM     14  C   UNL     1       4.408   0.082   0.192  0.00  0.00    -0.012 C 
ATOM     15  C   UNL     1       5.276  -0.490  -0.931  0.00  0.00    +0.007 C 
ATOM     16  C   UNL     1       4.382   1.608   0.089  0.00  0.00    +0.007 C 
ENDBRANCH  11  14
ENDBRANCH   1  12
BRANCH   4  17
ATOM     17  N   UNL     1       3.914  -1.498   4.763  0.00  0.00    -0.229 N 
ATOM     18  C   UNL     1       4.474  -1.967   5.896  0.00  0.00    +0.260 C 
ATOM     19  O   UNL     1       4.245  -1.421   6.958  0.00  0.00    -0.269 OA
ATOM     20  H   UNL     1       4.097  -1.934   3.916  0.00  0.00    +0.173 HD
BRANCH  18  21
ATOM     21  C   UNL     1       5.366  -3.145   5.848  0.00  0.00    +0.038 A 
ATOM     22  C   UNL     1       5.636  -3.770   4.630  0.00  0.00    +0.013 A 
ATOM     23  C   UNL     1       6.469  -4.869   4.591  0.00  0.00    +0.001 A 
ATOM     24  C   UNL     1       7.038  -5.350   5.757  0.00  0.00    +0.000 A 
ATOM     25  C   UNL     1       6.775  -4.735   6.968  0.00  0.00    +0.001 A 
ATOM     26  C   UNL     1       5.947  -3.632   7.019  0.00  0.00    +0.013 A 
ENDBRANCH  18  21
ENDBRANCH   4  17
TORSDOF 4
