REMARK  Name = ZINC28536647
REMARK  9 active torsions:
REMARK  status: ('A' for Active; 'I' for Inactive)
REMARK    1  A    between atoms: C_2  and  C_3
REMARK    2  A    between atoms: C_3  and  N_4
REMARK    3  A    between atoms: C_6  and  O_24
REMARK    4  A    between atoms: C_8  and  S_10
REMARK    5  A    between atoms: S_10  and  C_11
REMARK    6  A    between atoms: C_11  and  C_12
REMARK    7  A    between atoms: N_14  and  C_15
REMARK    8  A    between atoms: C_18  and  C_21
REMARK    9  A    between atoms: O_24  and  C_25
REMARK                            x       y       z     vdW  Elec       q    Type
REMARK                         _______ _______ _______ _____ _____    ______ ____
ROOT
ATOM      1  N   UNL     1       0.630  -1.175  -1.067  0.00  0.00    -0.221 N 
ATOM      2  C   UNL     1       2.076  -1.335  -0.836  0.00  0.00    +0.158 C 
ATOM      3  C   UNL     1       2.784  -1.105  -2.150  0.00  0.00    +0.208 C 
ATOM      4  N   UNL     1       2.166  -1.329  -3.270  0.00  0.00    -0.263 N 
ATOM      5  C   UNL     1       0.880  -1.768  -3.312  0.00  0.00    +0.178 C 
ATOM      6  N   UNL     1       0.105  -1.706  -2.261  0.00  0.00    -0.157 NA
ATOM      7  H   UNL     1       2.684  -1.165  -4.227  0.00  0.00    +0.157 HD
ENDROOT
BRANCH   1   8
ATOM      8  C   UNL     1      -0.228  -0.497  -0.092  0.00  0.00    +0.158 C 
BRANCH   8  10
ATOM      9  C   UNL     1      -1.436   1.565  -0.591  0.00  0.00    +0.005 C 
ATOM     10  C   UNL     1      -0.281   0.975  -0.408  0.00  0.00    -0.014 C 
ENDBRANCH   8  10
ENDBRANCH   1   8
BRANCH   5  11
ATOM     11  S   UNL     1       0.245  -2.440  -4.812  0.00  0.00    -0.079 S 
BRANCH  11  12
ATOM     12  C   UNL     1      -1.466  -2.881  -4.406  0.00  0.00    +0.173 C 
BRANCH  12  13
ATOM     13  C   UNL     1      -2.134  -3.476  -5.619  0.00  0.00    +0.227 C 
ATOM     14  O   UNL     1      -1.515  -3.591  -6.656  0.00  0.00    -0.275 OA
ATOM     15  N   UNL     1      -3.417  -3.880  -5.552  0.00  0.00    -0.285 N 
ATOM     16  H   UNL     1      -4.002  -3.706  -4.636  0.00  0.00    +0.155 HD
BRANCH  15  17
ATOM     17  C   UNL     1      -4.005  -4.520  -6.643  0.00  0.00    +0.033 A 
ATOM     18  C   UNL     1      -3.664  -4.139  -7.937  0.00  0.00    +0.024 A 
ATOM     19  C   UNL     1      -4.239  -4.771  -9.016  0.00  0.00    +0.015 A 
ATOM     20  C   UNL     1      -5.174  -5.789  -8.811  0.00  0.00    +0.037 A 
ATOM     21  C   UNL     1      -5.518  -6.166  -7.510  0.00  0.00    +0.015 A 
ATOM     22  C   UNL     1      -4.936  -5.533  -6.435  0.00  0.00    +0.024 A 
BRANCH  20  23
ATOM     23  C   UNL     1      -5.796  -6.466  -9.966  0.00  0.00    +0.242 C 
ATOM     24  O   UNL     1      -6.609  -7.352  -9.786  0.00  0.00    -0.270 OA
ATOM     25  N   UNL     1      -5.462  -6.101 -11.220  0.00  0.00    -0.325 N 
ATOM     26  H   UNL     1      -5.926  -6.606 -12.081  0.00  0.00    +0.145 HD
ATOM     27  H   UNL     1      -4.726  -5.300 -11.383  0.00  0.00    +0.145 HD
ENDBRANCH  20  23
ENDBRANCH  15  17
ENDBRANCH  12  13
ENDBRANCH  11  12
ENDBRANCH   5  11
BRANCH   3  28
ATOM     28  O   UNL     1       4.059  -0.665  -2.160  0.00  0.00    -0.440 OA
BRANCH  28  29
ATOM     29  C   UNL     1       4.662  -0.550  -3.372  0.00  0.00    +0.130 A 
ATOM     30  C   UNL     1       5.583  -1.502  -3.784  0.00  0.00    +0.046 A 
ATOM     31  C   UNL     1       6.191  -1.385  -5.019  0.00  0.00    +0.004 A 
ATOM     32  C   UNL     1       5.890  -0.313  -5.840  0.00  0.00    +0.000 A 
ATOM     33  C   UNL     1       4.976   0.640  -5.430  0.00  0.00    +0.004 A 
ATOM     34  C   UNL     1       4.362   0.524  -4.198  0.00  0.00    +0.046 A 
ENDBRANCH  28  29
ENDBRANCH   3  28
TORSDOF 9
