REMARK  Name = ZINC10584052
REMARK  7 active torsions:
REMARK  status: ('A' for Active; 'I' for Inactive)
REMARK    1  A    between atoms: C_1  and  C_2
REMARK    2  A    between atoms: C_5  and  N_9
REMARK    3  A    between atoms: C_7  and  C_8
REMARK    4  A    between atoms: C_11  and  N_16
REMARK    5  A    between atoms: C_24  and  C_25
REMARK    6  A    between atoms: C_24  and  C_31
REMARK    7  A    between atoms: C_24  and  N_70
REMARK                            x       y       z     vdW  Elec       q    Type
REMARK                         _______ _______ _______ _____ _____    ______ ____
ROOT
ATOM      1  N   UNL     1       0.664   7.837   1.562  0.00  0.00    -0.294 N 
ATOM      2  C   UNL     1       0.594   6.800   2.421  0.00  0.00    +0.302 C 
ATOM      3  O   UNL     1       0.644   5.660   2.003  0.00  0.00    -0.253 OA
ATOM      4  N   UNL     1       0.469   7.029   3.743  0.00  0.00    -0.289 N 
ATOM      5  C   UNL     1       0.503   5.918   4.707  0.00  0.00    +0.091 C 
ATOM      6  C   UNL     1       1.532   6.258   5.798  0.00  0.00    -0.058 C 
ATOM      7  C   UNL     1       1.319   8.636   5.367  0.00  0.00    -0.058 C 
ATOM      8  C   UNL     1       0.287   8.394   4.260  0.00  0.00    +0.091 C 
ATOM      9  H   UNL     1       0.702   8.745   1.900  0.00  0.00    +0.151 HD
ATOM     10  N   UNL     1       1.182   7.571   6.384  0.00  0.00    +0.389 N 
ATOM     11  H   UNL     1       0.208   7.542   6.707  0.00  0.00    -0.080 HD
ENDROOT
BRANCH   1  14
ATOM     12  N   UNL     1       0.045   9.613  -1.002  0.00  0.00    -0.270 N 
ATOM     13  C   UNL     1       1.227   8.817  -0.652  0.00  0.00    +0.136 C 
ATOM     14  C   UNL     1       0.683   7.591   0.118  0.00  0.00    +0.101 C 
ATOM     15  C   UNL     1      -0.754   7.482  -0.444  0.00  0.00    +0.120 C 
ATOM     16  C   UNL     1      -1.081   8.886  -0.903  0.00  0.00    +0.222 C 
ATOM     17  O   UNL     1      -2.196   9.295  -1.147  0.00  0.00    -0.275 OA
BRANCH  12  22
ATOM     18  C   UNL     1       0.208  15.057  -2.592  0.00  0.00    +0.044 C 
ATOM     19  C   UNL     1       0.165  13.611  -2.170  0.00  0.00    -0.047 A 
ATOM     20  C   UNL     1      -1.029  12.914  -2.216  0.00  0.00    +0.005 A 
ATOM     21  C   UNL     1      -1.072  11.589  -1.830  0.00  0.00    +0.024 A 
ATOM     22  C   UNL     1       0.085  10.956  -1.395  0.00  0.00    +0.037 A 
ATOM     23  C   UNL     1       1.282  11.658  -1.350  0.00  0.00    +0.027 A 
ATOM     24  C   UNL     1       1.318  12.984  -1.737  0.00  0.00    -0.046 A 
ATOM     25  C   UNL     1       2.617  13.747  -1.688  0.00  0.00    +0.044 C 
ENDBRANCH  12  22
ENDBRANCH   1  14
BRANCH  10  26
ATOM     26  C   UNL     1       2.062   7.858   7.537  0.00  0.00    -0.007 C 
BRANCH  26  27
ATOM     27  C   UNL     1       1.714   9.215   8.091  0.00  0.00    -0.057 A 
ATOM     28  C   UNL     1       0.390   9.576   8.255  0.00  0.00    +0.002 A 
ATOM     29  C   UNL     1       0.071  10.820   8.768  0.00  0.00    +0.000 A 
ATOM     30  C   UNL     1       1.076  11.706   9.108  0.00  0.00    +0.000 A 
ATOM     31  C   UNL     1       2.400  11.347   8.938  0.00  0.00    +0.000 A 
ATOM     32  C   UNL     1       2.719  10.102   8.430  0.00  0.00    +0.002 A 
ENDBRANCH  26  27
BRANCH  26  33
ATOM     33  C   UNL     1       1.835   6.810   8.595  0.00  0.00    -0.057 A 
ATOM     34  C   UNL     1       0.570   6.288   8.792  0.00  0.00    +0.002 A 
ATOM     35  C   UNL     1       0.363   5.324   9.761  0.00  0.00    +0.000 A 
ATOM     36  C   UNL     1       1.419   4.887  10.538  0.00  0.00    +0.000 A 
ATOM     37  C   UNL     1       2.683   5.412  10.344  0.00  0.00    +0.000 A 
ATOM     38  C   UNL     1       2.891   6.373   9.373  0.00  0.00    +0.002 A 
ENDBRANCH  26  33
ENDBRANCH  10  26
TORSDOF 5
