REMARK  Name = ZINC12027053
REMARK  8 active torsions:
REMARK  status: ('A' for Active; 'I' for Inactive)
REMARK    1  A    between atoms: C_1  and  C_2
REMARK    2  A    between atoms: C_2  and  C_3
REMARK    3  A    between atoms: C_2  and  C_11
REMARK    4  A    between atoms: C_2  and  O_32
REMARK    5  A    between atoms: C_3  and  O_4
REMARK    6  A    between atoms: O_4  and  C_5
REMARK    7  A    between atoms: C_21  and  C_22
REMARK    8  A    between atoms: C_21  and  N_61
REMARK                            x       y       z     vdW  Elec       q    Type
REMARK                         _______ _______ _______ _____ _____    ______ ____
ROOT
ATOM      1  C   UNL     1      -1.413  -2.041   0.005  0.00  0.00    -0.013 A 
ATOM      2  C   UNL     1      -0.372  -2.713  -0.608  0.00  0.00    +0.010 A 
ATOM      3  C   UNL     1      -0.344  -4.095  -0.613  0.00  0.00    +0.046 A 
ATOM      4  C   UNL     1      -1.366  -4.805   0.001  0.00  0.00    +0.122 A 
ATOM      5  C   UNL     1      -2.411  -4.128   0.599  0.00  0.00    -0.022 A 
ATOM      6  C   UNL     1      -2.433  -2.749   0.615  0.00  0.00    +0.012 A 
ATOM      7  C   UNL     1      -3.541  -4.915   1.235  0.00  0.00    -0.039 C 
ATOM      8  C   UNL     1      -2.389  -6.879   2.101  0.00  0.00    -0.036 C 
ATOM      9  C   UNL     1      -1.091  -6.732   1.336  0.00  0.00    +0.210 C 
ATOM     10  O   UNL     1      -1.326  -6.165   0.042  0.00  0.00    -0.494 OA
ATOM     11  N   UNL     1      -3.004  -5.580   2.447  0.00  0.00    +0.387 N 
ATOM     12  H   UNL     1      -2.286  -4.976   2.864  0.00  0.00    -0.081 HD
ENDROOT
BRANCH   1  14
ATOM     13  C   UNL     1      -2.173  -0.027  -1.227  0.00  0.00    +0.050 C 
ATOM     14  C   UNL     1      -1.433  -0.534   0.013  0.00  0.00    +0.122 C 
BRANCH  14  15
ATOM     15  O   UNL     1      -2.102  -0.073   1.189  0.00  0.00    -0.381 OA
ATOM     16  H   UNL     1      -1.687  -0.357   2.014  0.00  0.00    +0.211 HD
ENDBRANCH  14  15
BRANCH  14  17
ATOM     17  C   UNL     1       0.002  -0.004   0.002  0.00  0.00    +0.268 C 
BRANCH  17  18
ATOM     18  O   UNL     1      -0.017   1.425   0.010  0.00  0.00    -0.489 OA
BRANCH  18  19
ATOM     19  C   UNL     1       1.185   2.058   0.002  0.00  0.00    +0.121 A 
ATOM     20  C   UNL     1       2.359   1.320  -0.008  0.00  0.00    +0.045 A 
ATOM     21  C   UNL     1       3.580   1.966  -0.022  0.00  0.00    +0.004 A 
ATOM     22  C   UNL     1       3.633   3.348  -0.015  0.00  0.00    +0.000 A 
ATOM     23  C   UNL     1       2.464   4.086   0.000  0.00  0.00    +0.004 A 
ATOM     24  C   UNL     1       1.240   3.444   0.009  0.00  0.00    +0.045 A 
ENDBRANCH  18  19
ENDBRANCH  17  18
ENDBRANCH  14  17
ENDBRANCH   1  14
BRANCH  11  25
ATOM     25  C   UNL     1      -4.082  -5.783   3.428  0.00  0.00    -0.042 C 
BRANCH  25  26
ATOM     26  C   UNL     1      -3.590  -6.700   4.518  0.00  0.00    -0.055 A 
ATOM     27  C   UNL     1      -3.949  -8.014   4.522  0.00  0.00    +0.002 A 
ATOM     28  C   UNL     1      -3.502  -8.874   5.522  0.00  0.00    +0.002 A 
ATOM     29  C   UNL     1      -2.694  -8.428   6.523  0.00  0.00    +0.028 A 
ATOM     30  C   UNL     1      -2.301  -7.079   6.553  0.00  0.00    +0.071 A 
ATOM     31  C   UNL     1      -2.753  -6.207   5.532  0.00  0.00    +0.002 A 
ATOM     32  C   UNL     1      -2.354  -4.857   5.561  0.00  0.00    +0.012 A 
ATOM     33  C   UNL     1      -1.539  -4.448   6.577  0.00  0.00    +0.020 A 
ATOM     34  C   UNL     1      -1.127  -5.359   7.547  0.00  0.00    +0.111 A 
ATOM     35  N   UNL     1      -1.507  -6.613   7.522  0.00  0.00    -0.255 NA
ENDBRANCH  25  26
ENDBRANCH  11  25
TORSDOF 7
