REMARK  Name = ZINC06194067
REMARK  4 active torsions:
REMARK  status: ('A' for Active; 'I' for Inactive)
REMARK    1  A    between atoms: C_1  and  C_2
REMARK    2  A    between atoms: C_2  and  N_3
REMARK    3  A    between atoms: N_3  and  C_4
REMARK    4  A    between atoms: C_5  and  C_16
REMARK                            x       y       z     vdW  Elec       q    Type
REMARK                         _______ _______ _______ _____ _____    ______ ____
ROOT
ATOM      1  C   UNL     1      -1.605  -1.868   0.007  0.00  0.00    +0.086 A 
ATOM      2  C   UNL     1      -2.833  -2.517   0.010  0.00  0.00    +0.104 A 
ATOM      3  C   UNL     1      -2.823  -3.970   0.003  0.00  0.00    +0.079 A 
ATOM      4  C   UNL     1      -1.541  -4.512  -0.006  0.00  0.00    +0.085 A 
ATOM      5  S   UNL     1      -0.469  -3.102  -0.011  0.00  0.00    -0.067 S 
ATOM      6  C   UNL     1      -1.326  -5.891  -0.015  0.00  0.00    +0.200 A 
ATOM      7  C   UNL     1      -2.425  -6.738  -0.014  0.00  0.00    +0.122 A 
ATOM      8  C   UNL     1      -3.707  -6.183  -0.005  0.00  0.00    +0.253 A 
ATOM      9  O   UNL     1      -4.678  -6.923  -0.004  0.00  0.00    -0.268 OA
ATOM     10  N   UNL     1      -3.895  -4.855   0.003  0.00  0.00    -0.320 N 
ATOM     11  H   UNL     1      -4.799  -4.504   0.009  0.00  0.00    +0.169 HD
ATOM     12  O   UNL     1      -0.068  -6.394  -0.024  0.00  0.00    -0.286 OA
ENDROOT
BRANCH   1  13
ATOM     13  N   UNL     1      -1.372  -0.511   0.012  0.00  0.00    -0.338 N 
ATOM     14  H   UNL     1      -2.118   0.109   0.023  0.00  0.00    +0.147 HD
BRANCH  13  16
ATOM     15  C   UNL     1      -0.019   1.526   0.010  0.00  0.00    +0.024 C 
ATOM     16  C   UNL     1       0.002  -0.004   0.002  0.00  0.00    +0.098 C 
ENDBRANCH  13  16
ENDBRANCH   1  13
BRANCH   2  17
ATOM     17  C   UNL     1      -4.062  -1.782   0.020  0.00  0.00    +0.104 C 
ATOM     18  N   UNL     1      -5.037  -1.199   0.028  0.00  0.00    -0.191 NA
ENDBRANCH   2  17
TORSDOF 3
