REMARK  Name = ZINC03873080
REMARK  4 active torsions:
REMARK  status: ('A' for Active; 'I' for Inactive)
REMARK    1  A    between atoms: C_1  and  C_2
REMARK    2  A    between atoms: C_12  and  C_14
REMARK    3  A    between atoms: C_12  and  O_21
REMARK    4  A    between atoms: C_26  and  C_31
REMARK                            x       y       z     vdW  Elec       q    Type
REMARK                         _______ _______ _______ _____ _____    ______ ____
ROOT
ATOM      1  C   UNL     1       0.112   1.370  -2.477  0.00  0.00    +0.012 C 
ATOM      2  C   UNL     1      -0.738   1.599  -1.229  0.00  0.00    +0.008 C 
ATOM      3  C   UNL     1      -0.013   1.084   0.008  0.00  0.00    +0.010 C 
ATOM      4  C   UNL     1      -0.708   1.574   1.280  0.00  0.00    +0.032 C 
ATOM      5  C   UNL     1       0.310   2.095   2.289  0.00  0.00    +0.125 C 
ATOM      6  C   UNL     1       1.132   0.978   2.914  0.00  0.00    +0.076 C 
ATOM      7  C   UNL     1       0.309   0.220   3.956  0.00  0.00    +0.184 C 
ATOM      8  C   UNL     1      -0.233   1.182   5.001  0.00  0.00    +0.111 C 
ATOM      9  C   UNL     1      -0.979   2.354   4.374  0.00  0.00    +0.190 C 
ATOM     10  O   UNL     1      -0.300   2.909   3.268  0.00  0.00    -0.344 OA
ATOM     11  O   UNL     1      -0.760  -0.483   3.281  0.00  0.00    -0.458 OA
ATOM     12  C   UNL     1      -0.384  -1.439   2.400  0.00  0.00    +0.332 C 
ATOM     13  O   UNL     1       0.674  -1.999   2.589  0.00  0.00    -0.246 OA
ATOM     14  C   UNL     1      -1.254  -1.756   1.273  0.00  0.00    +0.090 C 
ATOM     15  C   UNL     1      -0.959  -2.596   0.297  0.00  0.00    -0.066 C 
ATOM     16  C   UNL     1      -1.830  -2.568  -0.946  0.00  0.00    +0.035 C 
ATOM     17  C   UNL     1      -1.373  -1.359  -1.784  0.00  0.00    +0.031 C 
ATOM     18  C   UNL     1      -2.373  -0.252  -1.622  0.00  0.00    -0.030 C 
ATOM     19  C   UNL     1      -2.095   0.994  -1.387  0.00  0.00    -0.028 C 
ATOM     20  C   UNL     1       0.172  -3.583   0.358  0.00  0.00    +0.039 C 
ENDROOT
BRANCH   9  21
ATOM     21  C   UNL     1      -2.401   1.931   3.993  0.00  0.00    +0.143 C 
ATOM     22  C   UNL     1      -3.131   3.143   3.378  0.00  0.00    +0.106 C 
ATOM     23  S   UNL     1      -4.553   3.308   4.524  0.00  0.00    -0.066 S 
ATOM     24  C   UNL     1      -4.190   1.958   5.628  0.00  0.00    +0.272 C 
ATOM     25  O   UNL     1      -4.834   1.610   6.599  0.00  0.00    -0.263 OA
ATOM     26  N   UNL     1      -3.059   1.405   5.167  0.00  0.00    -0.298 N 
ATOM     27  H   UNL     1      -2.677   0.640   5.627  0.00  0.00    +0.150 HD
ENDBRANCH   9  21
BRANCH   9  28
ATOM     28  O   UNL     1      -1.097   3.385   5.382  0.00  0.00    -0.363 OA
ATOM     29  H   UNL     1      -0.249   3.730   5.692  0.00  0.00    +0.213 HD
ENDBRANCH   9  28
TORSDOF 2
