REMARK  Name = ZINC13986986
REMARK  6 active torsions:
REMARK  status: ('A' for Active; 'I' for Inactive)
REMARK    1  A    between atoms: C_1  and  C_2
REMARK    2  A    between atoms: C_2  and  C_4
REMARK    3  A    between atoms: C_2  and  N_45
REMARK    4  A    between atoms: C_7  and  S_10
REMARK    5  A    between atoms: S_10  and  N_13
REMARK    6  A    between atoms: C_14  and  N_45
REMARK                            x       y       z     vdW  Elec       q    Type
REMARK                         _______ _______ _______ _____ _____    ______ ____
ROOT
ATOM      1  N   UNL     1      -3.517   4.490   4.778  0.00  0.00    +0.391 N 
ATOM      2  H   UNL     1      -3.716   4.699   3.792  0.00  0.00    -0.084 HD
ATOM      3  H   UNL     1      -2.744   5.082   5.104  0.00  0.00    -0.084 HD
ENDROOT
BRANCH   1   4
ATOM      4  C   UNL     1      -4.719   4.768   5.587  0.00  0.00    -0.008 C 
ATOM      5  C   UNL     1      -5.964   4.483   4.783  0.00  0.00    -0.049 A 
ATOM      6  C   UNL     1      -6.447   3.330   4.202  0.00  0.00    +0.003 A 
ATOM      7  C   UNL     1      -7.644   3.353   3.507  0.00  0.00    +0.000 A 
ATOM      8  C   UNL     1      -8.357   4.533   3.394  0.00  0.00    +0.001 A 
ATOM      9  C   UNL     1      -7.880   5.696   3.972  0.00  0.00    +0.009 A 
ATOM     10  C   UNL     1      -6.674   5.678   4.675  0.00  0.00    -0.016 A 
ATOM     11  C   UNL     1      -5.940   6.755   5.384  0.00  0.00    -0.016 A 
ATOM     12  C   UNL     1      -4.772   6.235   5.935  0.00  0.00    -0.049 A 
ATOM     13  C   UNL     1      -3.918   7.049   6.648  0.00  0.00    +0.003 A 
ATOM     14  C   UNL     1      -4.218   8.389   6.819  0.00  0.00    +0.000 A 
ATOM     15  C   UNL     1      -5.377   8.915   6.276  0.00  0.00    +0.001 A 
ATOM     16  C   UNL     1      -6.237   8.108   5.561  0.00  0.00    +0.009 A 
ENDBRANCH   1   4
BRANCH   1  18
ATOM     17  C   UNL     1      -2.259   2.890   6.150  0.00  0.00    -0.009 C 
ATOM     18  C   UNL     1      -3.131   3.072   4.906  0.00  0.00    -0.043 C 
BRANCH  18  19
ATOM     19  C   UNL     1      -2.353   2.659   3.683  0.00  0.00    -0.061 A 
ATOM     20  C   UNL     1      -2.559   1.412   3.121  0.00  0.00    +0.004 A 
ATOM     21  C   UNL     1      -1.846   1.033   2.000  0.00  0.00    +0.029 A 
ATOM     22  C   UNL     1      -0.927   1.900   1.439  0.00  0.00    +0.105 A 
ATOM     23  C   UNL     1      -0.717   3.145   2.004  0.00  0.00    +0.029 A 
ATOM     24  C   UNL     1      -1.434   3.525   3.123  0.00  0.00    +0.004 A 
BRANCH  22  25
ATOM     25  S   UNL     1      -0.017   1.417   0.010  0.00  0.00    +0.056 S 
ATOM     26  O   UNL     1       0.002  -0.004   0.002  0.00  0.00    -0.153 OA
ATOM     27  O   UNL     1       1.172   2.195   0.003  0.00  0.00    -0.153 OA
BRANCH  25  28
ATOM     28  N   UNL     1      -0.897   1.885  -1.312  0.00  0.00    -0.204 NA
ATOM     29  H   UNL     1      -1.201   1.223  -1.952  0.00  0.00    +0.144 HD
ATOM     30  H   UNL     1      -1.110   2.822  -1.446  0.00  0.00    +0.144 HD
ENDBRANCH  25  28
ENDBRANCH  22  25
ENDBRANCH  18  19
ENDBRANCH   1  18
TORSDOF 5
