REMARK  Name = ZINC36676925
REMARK  5 active torsions:
REMARK  status: ('A' for Active; 'I' for Inactive)
REMARK    1  A    between atoms: C_1  and  C_2
REMARK    2  A    between atoms: C_9  and  C_13
REMARK    3  A    between atoms: C_13  and  N_14
REMARK    4  A    between atoms: C_17  and  C_21
REMARK    5  A    between atoms: C_17  and  C_22
REMARK                            x       y       z     vdW  Elec       q    Type
REMARK                         _______ _______ _______ _____ _____    ______ ____
ROOT
ATOM      1  N   UNL     1       1.340  -4.552   4.332  0.00  0.00    -0.218 N 
ATOM      2  C   UNL     1       2.469  -5.275   4.196  0.00  0.00    +0.251 C 
ATOM      3  O   UNL     1       2.635  -6.250   3.494  0.00  0.00    -0.272 OA
ATOM      4  C   UNL     1       3.490  -4.616   5.102  0.00  0.00    +0.135 C 
ATOM      5  N   UNL     1       2.747  -3.492   5.700  0.00  0.00    -0.281 N 
ATOM      6  C   UNL     1       1.505  -3.535   5.185  0.00  0.00    +0.310 C 
ATOM      7  O   UNL     1       0.629  -2.741   5.467  0.00  0.00    -0.252 OA
ATOM      8  C   UNL     1       4.680  -4.103   4.289  0.00  0.00    +0.047 C 
ATOM      9  H   UNL     1       3.088  -2.846   6.338  0.00  0.00    +0.152 HD
ENDROOT
BRANCH   4  10
ATOM     10  C   UNL     1       3.949  -5.575   6.170  0.00  0.00    -0.016 A 
ATOM     11  C   UNL     1       3.979  -6.933   5.912  0.00  0.00    +0.006 A 
ATOM     12  C   UNL     1       4.400  -7.813   6.891  0.00  0.00    +0.000 A 
ATOM     13  C   UNL     1       4.792  -7.335   8.128  0.00  0.00    +0.000 A 
ATOM     14  C   UNL     1       4.763  -5.977   8.385  0.00  0.00    +0.000 A 
ATOM     15  C   UNL     1       4.346  -5.097   7.405  0.00  0.00    +0.006 A 
ENDBRANCH   4  10
BRANCH   1  16
ATOM     16  C   UNL     1       0.088  -4.841   3.627  0.00  0.00    +0.173 C 
BRANCH  16  25
ATOM     17  C   UNL     1      -0.018   1.503   0.010  0.00  0.00    +0.044 C 
ATOM     18  C   UNL     1       0.002  -0.004   0.002  0.00  0.00    -0.046 A 
ATOM     19  C   UNL     1       0.006  -0.703  -1.213  0.00  0.00    +0.021 A 
ATOM     20  C   UNL     1       0.025  -2.055  -1.219  0.00  0.00    +0.096 A 
ATOM     21  N   UNL     1       0.040  -2.756  -0.052  0.00  0.00    -0.268 N 
ATOM     22  C   UNL     1       0.037  -2.103   1.149  0.00  0.00    +0.141 A 
ATOM     23  C   UNL     1       0.023  -0.696   1.176  0.00  0.00    +0.050 A 
ATOM     24  N   UNL     1       0.053  -2.781   2.295  0.00  0.00    -0.232 NA
ATOM     25  C   UNL     1       0.071  -4.105   2.312  0.00  0.00    +0.067 A 
ATOM     26  C   UNL     1       0.075  -4.811   1.125  0.00  0.00    +0.095 A 
ATOM     27  C   UNL     1       0.059  -4.106  -0.083  0.00  0.00    +0.259 A 
ATOM     28  O   UNL     1       0.061  -4.701  -1.149  0.00  0.00    -0.267 OA
ENDBRANCH  16  25
ENDBRANCH   1  16
TORSDOF 3
