REMARK  Name = ZINC11999022
REMARK  10 active torsions:
REMARK  status: ('A' for Active; 'I' for Inactive)
REMARK    1  A    between atoms: C_1  and  C_2
REMARK    2  A    between atoms: C_4  and  C_10
REMARK    3  A    between atoms: C_7  and  O_8
REMARK    4  A    between atoms: O_8  and  C_9
REMARK    5  A    between atoms: C_10  and  N_63
REMARK    6  A    between atoms: C_16  and  C_18
REMARK    7  A    between atoms: C_18  and  C_19
REMARK    8  A    between atoms: N_21  and  C_22
REMARK    9  A    between atoms: N_21  and  C_23
REMARK   10  A    between atoms: C_23  and  C_24
REMARK                            x       y       z     vdW  Elec       q    Type
REMARK                         _______ _______ _______ _____ _____    ______ ____
ROOT
ATOM      1  C   UNL     1      -0.030   8.915   4.340  0.00  0.00    -0.058 C 
ATOM      2  C   UNL     1      -0.749   9.005   5.688  0.00  0.00    +0.085 C 
ATOM      3  N   UNL     1      -0.809   7.686   6.311  0.00  0.00    -0.318 N 
ATOM      4  C   UNL     1      -0.628   6.551   5.630  0.00  0.00    +0.200 C 
ATOM      5  O   UNL     1      -0.727   5.496   6.220  0.00  0.00    -0.278 OA
ATOM      6  C   UNL     1      -0.308   6.526   4.162  0.00  0.00    +0.028 C 
ATOM      7  H   UNL     1      -0.990   7.632   7.263  0.00  0.00    +0.149 HD
ATOM      8  N   UNL     1      -0.655   7.827   3.561  0.00  0.00    +0.391 N 
ATOM      9  H   UNL     1      -1.675   7.945   3.579  0.00  0.00    -0.080 HD
ENDROOT
BRANCH   8  10
ATOM     10  C   UNL     1      -0.190   7.877   2.156  0.00  0.00    -0.042 C 
BRANCH  10  14
ATOM     11  C   UNL     1      -0.270  12.691   0.796  0.00  0.00    +0.047 C 
ATOM     12  C   UNL     1      -0.910  11.327   0.805  0.00  0.00    -0.009 A 
ATOM     13  C   UNL     1      -0.286  10.275   1.446  0.00  0.00    +0.008 A 
ATOM     14  C   UNL     1      -0.873   9.023   1.456  0.00  0.00    -0.063 A 
ATOM     15  C   UNL     1      -2.083   8.820   0.818  0.00  0.00    +0.005 A 
ATOM     16  C   UNL     1      -2.714   9.870   0.181  0.00  0.00    +0.046 A 
ATOM     17  C   UNL     1      -2.127  11.127   0.170  0.00  0.00    +0.123 A 
BRANCH  17  18
ATOM     18  O   UNL     1      -2.743  12.161  -0.461  0.00  0.00    -0.495 OA
ATOM     19  C   UNL     1      -3.994  11.882  -1.093  0.00  0.00    +0.277 C 
ENDBRANCH  17  18
ENDBRANCH  10  14
ENDBRANCH   8  10
BRANCH   6  20
ATOM     20  C   UNL     1      -1.130   5.429   3.481  0.00  0.00    +0.090 C 
BRANCH  20  21
ATOM     21  C   UNL     1      -2.597   5.743   3.617  0.00  0.00    +0.215 C 
ATOM     22  O   UNL     1      -2.951   6.754   4.186  0.00  0.00    -0.276 OA
ATOM     23  N   UNL     1      -3.517   4.900   3.107  0.00  0.00    -0.300 N 
ATOM     24  C   UNL     1      -3.090   3.679   2.420  0.00  0.00    +0.132 C 
BRANCH  23  25
ATOM     25  C   UNL     1      -4.944   5.205   3.239  0.00  0.00    +0.143 C 
BRANCH  25  26
ATOM     26  C   UNL     1      -5.396   6.016   2.052  0.00  0.00    -0.022 A 
ATOM     27  C   UNL     1      -5.530   7.368   2.155  0.00  0.00    +0.006 A 
ATOM     28  C   UNL     1      -5.947   8.133   1.068  0.00  0.00    +0.001 A 
ATOM     29  C   UNL     1      -6.233   7.554  -0.131  0.00  0.00    +0.010 A 
ATOM     30  C   UNL     1      -6.107   6.163  -0.275  0.00  0.00    +0.001 A 
ATOM     31  C   UNL     1      -5.682   5.385   0.833  0.00  0.00    -0.010 A 
ATOM     32  C   UNL     1      -5.563   3.994   0.662  0.00  0.00    +0.028 A 
ATOM     33  C   UNL     1      -5.860   3.457  -0.553  0.00  0.00    +0.111 A 
ATOM     34  N   UNL     1      -6.255   4.208  -1.573  0.00  0.00    -0.263 NA
ATOM     35  C   UNL     1      -6.388   5.510  -1.486  0.00  0.00    +0.119 A 
ENDBRANCH  25  26
ENDBRANCH  23  25
ENDBRANCH  20  21
ENDBRANCH   6  20
TORSDOF 7
