REMARK  Name = ZINC02635788
REMARK  11 active torsions:
REMARK  status: ('A' for Active; 'I' for Inactive)
REMARK    1  A    between atoms: C_1  and  C_2
REMARK    2  A    between atoms: C_5  and  C_35
REMARK    3  A    between atoms: C_6  and  N_8
REMARK    4  A    between atoms: C_9  and  C_11
REMARK    5  A    between atoms: C_11  and  C_13
REMARK    6  A    between atoms: C_11  and  S_19
REMARK    7  A    between atoms: S_19  and  C_20
REMARK    8  A    between atoms: C_24  and  C_28
REMARK    9  A    between atoms: C_25  and  C_27
REMARK   10  A    between atoms: N_31  and  C_32
REMARK   11  A    between atoms: C_32  and  C_33
REMARK                            x       y       z     vdW  Elec       q    Type
REMARK                         _______ _______ _______ _____ _____    ______ ____
ROOT
ATOM      1  C   UNL     1      -4.312  -1.782   0.237  0.00  0.00    +0.170 C 
ENDROOT
BRANCH   1   2
ATOM      2  C   UNL     1      -3.756  -2.744  -0.782  0.00  0.00    -0.025 A 
ATOM      3  C   UNL     1      -2.607  -3.460  -0.502  0.00  0.00    +0.005 A 
ATOM      4  C   UNL     1      -2.100  -4.345  -1.435  0.00  0.00    +0.000 A 
ATOM      5  C   UNL     1      -2.736  -4.507  -2.651  0.00  0.00    +0.000 A 
ATOM      6  C   UNL     1      -3.882  -3.788  -2.933  0.00  0.00    +0.000 A 
ATOM      7  C   UNL     1      -4.392  -2.906  -1.999  0.00  0.00    +0.005 A 
ENDBRANCH   1   2
BRANCH   1   9
ATOM      8  N   UNL     1      -5.805  -3.227   1.579  0.00  0.00    -0.284 N 
ATOM      9  C   UNL     1      -4.654  -2.531   1.499  0.00  0.00    +0.235 C 
ATOM     10  O   UNL     1      -3.893  -2.506   2.444  0.00  0.00    -0.274 OA
ATOM     11  H   UNL     1      -6.449  -3.183   0.856  0.00  0.00    +0.155 HD
BRANCH   8  17
ATOM     12  C   UNL     1      -4.150  -5.804   5.425  0.00  0.00    +0.044 C 
ATOM     13  C   UNL     1      -5.286  -5.277   4.587  0.00  0.00    -0.049 A 
ATOM     14  C   UNL     1      -6.593  -5.573   4.931  0.00  0.00    +0.004 A 
ATOM     15  C   UNL     1      -7.638  -5.092   4.164  0.00  0.00    +0.005 A 
ATOM     16  C   UNL     1      -7.380  -4.314   3.052  0.00  0.00    -0.029 A 
ATOM     17  C   UNL     1      -6.069  -4.015   2.705  0.00  0.00    +0.037 A 
ATOM     18  C   UNL     1      -5.021  -4.504   3.474  0.00  0.00    +0.027 A 
ATOM     19  C   UNL     1      -8.520  -3.791   2.216  0.00  0.00    +0.045 C 
ENDBRANCH   8  17
ENDBRANCH   1   9
BRANCH   1  20
ATOM     20  S   UNL     1      -3.076  -0.512   0.604  0.00  0.00    -0.070 S 
BRANCH  20  21
ATOM     21  C   UNL     1      -2.978   0.283  -0.965  0.00  0.00    +0.174 A 
ATOM     22  N   UNL     1      -3.725  -0.149  -1.960  0.00  0.00    -0.216 NA
ATOM     23  C   UNL     1      -3.673   0.430  -3.154  0.00  0.00    +0.117 A 
ATOM     24  C   UNL     1      -2.826   1.524  -3.417  0.00  0.00    +0.075 A 
ATOM     25  C   UNL     1      -2.892   2.036  -4.774  0.00  0.00    -0.026 A 
ATOM     26  C   UNL     1      -3.722   1.457  -5.654  0.00  0.00    -0.008 A 
ATOM     27  S   UNL     1      -4.489   0.157  -4.705  0.00  0.00    -0.073 S 
ATOM     28  C   UNL     1      -3.950   1.818  -7.099  0.00  0.00    +0.052 C 
ATOM     29  C   UNL     1      -2.037   3.206  -5.189  0.00  0.00    +0.045 C 
ATOM     30  C   UNL     1      -2.032   1.974  -2.316  0.00  0.00    +0.263 A 
ATOM     31  O   UNL     1      -1.273   2.919  -2.448  0.00  0.00    -0.267 OA
ATOM     32  N   UNL     1      -2.130   1.339  -1.133  0.00  0.00    -0.283 N 
BRANCH  32  33
ATOM     33  C   UNL     1      -1.314   1.792  -0.004  0.00  0.00    +0.154 C 
BRANCH  33  34
ATOM     34  C   UNL     1      -0.000   1.054  -0.005  0.00  0.00    -0.013 C 
ATOM     35  C   UNL     1       1.126   1.723  -0.013  0.00  0.00    +0.005 C 
ENDBRANCH  33  34
ENDBRANCH  32  33
ENDBRANCH  20  21
ENDBRANCH   1  20
TORSDOF 7
