REMARK  Name = ZINC10040693
REMARK  14 active torsions:
REMARK  status: ('A' for Active; 'I' for Inactive)
REMARK    1  A    between atoms: C_1  and  C_2
REMARK    2  A    between atoms: C_5  and  C_8
REMARK    3  A    between atoms: N_10  and  C_11
REMARK    4  A    between atoms: C_11  and  C_13
REMARK    5  A    between atoms: C_11  and  C_16
REMARK    6  A    between atoms: C_13  and  C_14
REMARK    7  A    between atoms: C_13  and  C_15
REMARK    8  A    between atoms: N_18  and  N_19
REMARK    9  A    between atoms: C_20  and  C_21
REMARK   10  A    between atoms: C_23  and  O_33
REMARK   11  A    between atoms: C_24  and  O_28
REMARK   12  A    between atoms: O_28  and  C_29
REMARK   13  A    between atoms: C_29  and  C_30
REMARK   14  A    between atoms: O_33  and  C_34
REMARK                            x       y       z     vdW  Elec       q    Type
REMARK                         _______ _______ _______ _____ _____    ______ ____
ROOT
ATOM      1  C   UNL     1       1.279  -2.583   8.515  0.00  0.00    +0.253 C 
ATOM      2  O   UNL     1       0.446  -3.284   7.980  0.00  0.00    -0.272 OA
ATOM      3  N   UNL     1       1.678  -1.440   7.923  0.00  0.00    -0.205 N 
ATOM      4  H   UNL     1       2.344  -0.879   8.350  0.00  0.00    +0.177 HD
ENDROOT
BRANCH   3   5
ATOM      5  N   UNL     1       1.130  -1.062   6.690  0.00  0.00    -0.188 NA
ATOM      6  C   UNL     1       1.514   0.039   6.120  0.00  0.00    +0.138 C 
BRANCH   6   7
ATOM      7  C   UNL     1       0.938   0.437   4.822  0.00  0.00    -0.001 A 
ATOM      8  C   UNL     1       1.350   1.622   4.207  0.00  0.00    +0.059 A 
ATOM      9  C   UNL     1       0.807   1.991   2.990  0.00  0.00    +0.163 A 
ATOM     10  C   UNL     1      -0.149   1.182   2.380  0.00  0.00    +0.176 A 
ATOM     11  C   UNL     1      -0.562   0.008   2.993  0.00  0.00    +0.064 A 
ATOM     12  C   UNL     1      -0.021  -0.369   4.205  0.00  0.00    +0.028 A 
ATOM     13 BR   UNL     1      -1.866  -1.082   2.162  0.00  0.00    -0.046 Br
BRANCH   9  14
ATOM     14  O   UNL     1       1.206   3.144   2.389  0.00  0.00    -0.491 OA
ATOM     15  C   UNL     1       2.190   3.924   3.071  0.00  0.00    +0.277 C 
ENDBRANCH   9  14
BRANCH  10  16
ATOM     16  O   UNL     1      -0.682   1.547   1.184  0.00  0.00    -0.478 OA
BRANCH  16  17
ATOM     17  C   UNL     1      -0.013   1.086   0.008  0.00  0.00    +0.324 C 
BRANCH  17  18
ATOM     18  C   UNL     1      -0.742   1.585  -1.213  0.00  0.00    +0.248 C 
ATOM     19  O   UNL     1      -1.736   2.268  -1.088  0.00  0.00    -0.272 OA
ATOM     20  N   UNL     1      -0.288   1.272  -2.443  0.00  0.00    -0.327 N 
ATOM     21  H   UNL     1       0.507   0.726  -2.543  0.00  0.00    +0.145 HD
ATOM     22  H   UNL     1      -0.758   1.594  -3.229  0.00  0.00    +0.145 HD
ENDBRANCH  17  18
ENDBRANCH  16  17
ENDBRANCH  10  16
ENDBRANCH   6   7
ENDBRANCH   3   5
BRANCH   1  23
ATOM     23  C   UNL     1       1.868  -2.990   9.841  0.00  0.00    +0.163 C 
BRANCH  23  26
ATOM     24  C   UNL     1       1.235  -4.576  11.579  0.00  0.00    +0.245 C 
ATOM     25  O   UNL     1       1.690  -3.808  12.404  0.00  0.00    -0.270 OA
ATOM     26  N   UNL     1       1.275  -4.259  10.270  0.00  0.00    -0.300 N 
ATOM     27  H   UNL     1       0.912  -4.872   9.611  0.00  0.00    +0.150 HD
BRANCH  24  32
ATOM     28  C   UNL     1      -1.095  -9.561  13.263  0.00  0.00    +0.044 C 
ATOM     29  C   UNL     1      -0.485  -8.255  12.822  0.00  0.00    -0.050 A 
ATOM     30  C   UNL     1       0.033  -7.384  13.764  0.00  0.00    +0.004 A 
ATOM     31  C   UNL     1       0.593  -6.188  13.367  0.00  0.00    +0.013 A 
ATOM     32  C   UNL     1       0.637  -5.857  12.012  0.00  0.00    +0.037 A 
ATOM     33  C   UNL     1       0.108  -6.738  11.067  0.00  0.00    +0.013 A 
ATOM     34  C   UNL     1      -0.445  -7.933  11.477  0.00  0.00    +0.004 A 
ENDBRANCH  24  32
ENDBRANCH  23  26
BRANCH  23  35
ATOM     35  C   UNL     1       3.382  -3.157   9.697  0.00  0.00    +0.012 C 
ATOM     36  C   UNL     1       3.980  -3.570  11.043  0.00  0.00    +0.009 C 
ATOM     37  C   UNL     1       3.679  -4.236   8.654  0.00  0.00    +0.009 C 
ENDBRANCH  23  35
ENDBRANCH   1  23
TORSDOF 10
