REMARK  Name = ZINC20687615
REMARK  6 active torsions:
REMARK  status: ('A' for Active; 'I' for Inactive)
REMARK    1  A    between atoms: C_5  and  C_7
REMARK    2  A    between atoms: C_7  and  N_8
REMARK    3  A    between atoms: C_9  and  C_11
REMARK    4  A    between atoms: C_11  and  N_12
REMARK    5  A    between atoms: C_15  and  S_23
REMARK    6  A    between atoms: S_23  and  N_26
REMARK                            x       y       z     vdW  Elec       q    Type
REMARK                         _______ _______ _______ _____ _____    ______ ____
ROOT
ATOM      1  N   UNL     1      -1.273   4.836  -3.595  0.00  0.00    -0.261 N 
ATOM      2  C   UNL     1      -1.496   3.578  -3.042  0.00  0.00    +0.052 A 
ATOM      3  C   UNL     1      -0.767   3.183  -1.925  0.00  0.00    +0.053 A 
ATOM      4  C   UNL     1      -0.971   1.936  -1.367  0.00  0.00    +0.107 A 
ATOM      5  C   UNL     1      -1.895   1.065  -1.915  0.00  0.00    +0.030 A 
ATOM      6  C   UNL     1      -2.630   1.447  -3.023  0.00  0.00    +0.018 A 
ATOM      7  C   UNL     1      -2.432   2.697  -3.585  0.00  0.00    +0.030 A 
ATOM      8  S   UNL     1      -3.363   3.196  -4.999  0.00  0.00    -0.114 S 
ATOM      9  C   UNL     1      -3.464   4.999  -4.788  0.00  0.00    +0.170 C 
ATOM     10  C   UNL     1      -2.113   5.514  -4.372  0.00  0.00    +0.230 C 
ATOM     11  O   UNL     1      -1.771   6.609  -4.768  0.00  0.00    -0.274 OA
ENDROOT
BRANCH   4  12
ATOM     12  S   UNL     1      -0.043   1.449   0.049  0.00  0.00    +0.061 S 
ATOM     13  O   UNL     1      -0.027   0.028   0.055  0.00  0.00    -0.153 OA
ATOM     14  O   UNL     1       1.148   2.224   0.040  0.00  0.00    -0.153 OA
BRANCH  12  15
ATOM     15  N   UNL     1      -0.903   1.918   1.384  0.00  0.00    -0.177 NA
ATOM     16  C   UNL     1      -0.660   3.231   1.938  0.00  0.00    +0.109 C 
ATOM     17  C   UNL     1       0.473   3.159   2.983  0.00  0.00    +0.017 C 
ATOM     18  C   UNL     1       0.008   2.466   4.194  0.00  0.00    +0.001 C 
ATOM     19  C   UNL     1      -0.395   1.012   3.970  0.00  0.00    +0.001 C 
ATOM     20  C   UNL     1      -1.828   0.956   3.500  0.00  0.00    +0.017 C 
ATOM     21  C   UNL     1      -1.881   0.977   1.962  0.00  0.00    +0.109 C 
ENDBRANCH  12  15
ENDBRANCH   4  12
BRANCH   1  22
ATOM     22  C   UNL     1       0.009   5.476  -3.290  0.00  0.00    +0.209 C 
BRANCH  22  24
ATOM     23  N   UNL     1       0.902   7.083  -1.635  0.00  0.00    -0.310 N 
ATOM     24  C   UNL     1      -0.154   6.385  -2.099  0.00  0.00    +0.231 C 
ATOM     25  O   UNL     1      -1.234   6.489  -1.558  0.00  0.00    -0.274 OA
ATOM     26  H   UNL     1       1.882   6.989  -2.125  0.00  0.00    +0.149 HD
BRANCH  23  27
ATOM     27  C   UNL     1       0.744   7.967  -0.477  0.00  0.00    +0.141 C 
BRANCH  27  32
ATOM     28  C   UNL     1       4.063   8.739   1.147  0.00  0.00    +0.000 A 
ATOM     29  C   UNL     1       4.483   9.832   0.413  0.00  0.00    +0.001 A 
ATOM     30  C   UNL     1       3.693  10.323  -0.609  0.00  0.00    +0.020 A 
ATOM     31  C   UNL     1       2.482   9.719  -0.898  0.00  0.00    +0.046 A 
ATOM     32  C   UNL     1       2.063   8.625  -0.164  0.00  0.00    -0.012 A 
ATOM     33  C   UNL     1       2.851   8.138   0.862  0.00  0.00    +0.006 A 
ATOM     34 CL   UNL     1       1.489  10.335  -2.182  0.00  0.00    -0.083 Cl
ENDBRANCH  27  32
ENDBRANCH  23  27
ENDBRANCH  22  24
ENDBRANCH   1  22
TORSDOF 6
