REMARK  Name = ZINC62688451
REMARK  7 active torsions:
REMARK  status: ('A' for Active; 'I' for Inactive)
REMARK    1  A    between atoms: C_1  and  C_2
REMARK    2  A    between atoms: C_2  and  C_3
REMARK    3  A    between atoms: C_2  and  C_4
REMARK    4  A    between atoms: C_4  and  C_5
REMARK    5  A    between atoms: C_5  and  C_7
REMARK    6  A    between atoms: C_5  and  N_24
REMARK    7  A    between atoms: C_15  and  C_17
REMARK                            x       y       z     vdW  Elec       q    Type
REMARK                         _______ _______ _______ _____ _____    ______ ____
ROOT
ATOM      1  C   UNL     1      -2.769  -2.581   0.177  0.00  0.00    +0.238 C 
ATOM      2  O   UNL     1      -3.433  -2.953  -0.767  0.00  0.00    -0.274 OA
ATOM      3  N   UNL     1      -3.271  -2.656   1.426  0.00  0.00    -0.283 N 
ATOM      4  C   UNL     1      -2.537  -2.113   2.581  0.00  0.00    +0.127 C 
ATOM      5  C   UNL     1      -2.236  -3.266   3.541  0.00  0.00    +0.123 C 
ATOM      6  N   UNL     1      -3.422  -4.084   3.754  0.00  0.00    -0.312 N 
ATOM      7  C   UNL     1      -4.462  -4.142   2.921  0.00  0.00    +0.238 C 
ATOM      8  O   UNL     1      -5.358  -4.921   3.167  0.00  0.00    -0.273 OA
ATOM      9  C   UNL     1      -4.577  -3.279   1.689  0.00  0.00    +0.192 C 
ATOM     10  H   UNL     1      -3.458  -4.625   4.558  0.00  0.00    +0.149 HD
ENDROOT
BRANCH   9  11
ATOM     11  C   UNL     1      -5.612  -2.206   1.913  0.00  0.00    -0.017 A 
ATOM     12  C   UNL     1      -5.494  -1.347   2.990  0.00  0.00    +0.006 A 
ATOM     13  C   UNL     1      -6.443  -0.363   3.197  0.00  0.00    +0.002 A 
ATOM     14  C   UNL     1      -7.509  -0.238   2.327  0.00  0.00    +0.020 A 
ATOM     15  C   UNL     1      -7.627  -1.097   1.249  0.00  0.00    +0.041 A 
ATOM     16  C   UNL     1      -6.674  -2.078   1.039  0.00  0.00    +0.026 A 
ATOM     17 CL   UNL     1      -8.967  -0.939   0.156  0.00  0.00    -0.084 Cl
ENDBRANCH   9  11
BRANCH   1  18
ATOM     18  C   UNL     1      -1.382  -2.035  -0.045  0.00  0.00    +0.171 C 
BRANCH  18  19
ATOM     19  N   UNL     1      -0.877  -2.497  -1.340  0.00  0.00    -0.222 N 
ATOM     20  C   UNL     1      -1.459  -2.230  -2.523  0.00  0.00    +0.254 C 
ATOM     21  O   UNL     1      -2.471  -1.578  -2.684  0.00  0.00    -0.270 OA
ATOM     22  C   UNL     1      -0.661  -2.862  -3.595  0.00  0.00    +0.049 A 
ATOM     23  C   UNL     1      -0.771  -2.926  -4.974  0.00  0.00    +0.014 A 
ATOM     24  C   UNL     1       0.176  -3.623  -5.708  0.00  0.00    +0.001 A 
ATOM     25  C   UNL     1       1.229  -4.255  -5.072  0.00  0.00    +0.001 A 
ATOM     26  C   UNL     1       1.352  -4.200  -3.693  0.00  0.00    +0.014 A 
ATOM     27  C   UNL     1       0.412  -3.507  -2.947  0.00  0.00    +0.049 A 
ATOM     28  C   UNL     1       0.233  -3.240  -1.504  0.00  0.00    +0.254 C 
ATOM     29  O   UNL     1       0.964  -3.627  -0.615  0.00  0.00    -0.270 OA
ENDBRANCH  18  19
BRANCH  18  30
ATOM     30  C   UNL     1      -1.427  -0.506  -0.031  0.00  0.00    +0.035 C 
BRANCH  30  32
ATOM     31  C   UNL     1      -0.061   1.573  -0.267  0.00  0.00    +0.007 C 
ATOM     32  C   UNL     1      -0.006   0.048  -0.155  0.00  0.00    -0.015 C 
ATOM     33  C   UNL     1       0.804  -0.344   1.082  0.00  0.00    +0.007 C 
ENDBRANCH  30  32
ENDBRANCH  18  30
ENDBRANCH   1  18
TORSDOF 5
