REMARK  Name = ZINC12543541
REMARK  13 active torsions:
REMARK  status: ('A' for Active; 'I' for Inactive)
REMARK    1  A    between atoms: C_1  and  C_2
REMARK    2  A    between atoms: C_2  and  C_3
REMARK    3  A    between atoms: C_3  and  C_4
REMARK    4  A    between atoms: C_4  and  N_5
REMARK    5  A    between atoms: C_6  and  N_36
REMARK    6  A    between atoms: C_7  and  N_14
REMARK    7  A    between atoms: N_14  and  C_15
REMARK    8  A    between atoms: C_15  and  C_16
REMARK    9  A    between atoms: C_22  and  C_24
REMARK   10  A    between atoms: C_24  and  C_25
REMARK   11  A    between atoms: C_25  and  N_26
REMARK   12  A    between atoms: N_26  and  C_27
REMARK   13  A    between atoms: C_32  and  N_33
REMARK                            x       y       z     vdW  Elec       q    Type
REMARK                         _______ _______ _______ _____ _____    ______ ____
ROOT
ATOM      1  N   UNL     1       2.295   3.923   0.303  0.00  0.00    -0.260 N 
ATOM      2  C   UNL     1       2.040   5.243   0.190  0.00  0.00    +0.222 C 
ATOM      3  O   UNL     1       0.952   5.620  -0.192  0.00  0.00    -0.275 OA
ENDROOT
BRANCH   1   6
ATOM      4  N   UNL     1      -0.207   1.294   0.883  0.00  0.00    -0.280 N 
ATOM      5  C   UNL     1       0.799   2.201   1.124  0.00  0.00    +0.127 A 
ATOM      6  C   UNL     1       1.263   2.984   0.087  0.00  0.00    +0.140 A 
ATOM      7  C   UNL     1       0.690   2.831  -1.189  0.00  0.00    +0.277 A 
ATOM      8  O   UNL     1       1.082   3.510  -2.123  0.00  0.00    -0.266 OA
ATOM      9  N   UNL     1      -0.293   1.928  -1.372  0.00  0.00    -0.273 N 
ATOM     10  H   UNL     1      -0.698   1.815  -2.280  0.00  0.00    +0.173 HD
ATOM     11  C   UNL     1      -0.736   1.177  -0.348  0.00  0.00    +0.331 A 
ATOM     12  O   UNL     1      -1.629   0.373  -0.540  0.00  0.00    -0.246 OA
BRANCH   5  13
ATOM     13  N   UNL     1       1.337   2.324   2.383  0.00  0.00    -0.343 N 
ATOM     14  H   UNL     1       1.982   3.025   2.568  0.00  0.00    +0.144 HD
ATOM     15  H   UNL     1       1.071   1.711   3.086  0.00  0.00    +0.144 HD
ENDBRANCH   5  13
BRANCH   4  16
ATOM     16  C   UNL     1      -0.709   0.457   1.974  0.00  0.00    +0.128 C 
BRANCH  16  17
ATOM     17  C   UNL     1      -1.867   1.171   2.674  0.00  0.00    +0.021 C 
BRANCH  17  19
ATOM     18  C   UNL     1      -3.550   1.010   4.514  0.00  0.00    +0.004 C 
ATOM     19  C   UNL     1      -2.392   0.296   3.814  0.00  0.00    -0.002 C 
ENDBRANCH  17  19
ENDBRANCH  16  17
ENDBRANCH   4  16
ENDBRANCH   1   6
BRANCH   1  20
ATOM     20  C   UNL     1       3.642   3.464   0.648  0.00  0.00    +0.149 C 
BRANCH  20  21
ATOM     21  C   UNL     1       4.425   3.208  -0.614  0.00  0.00    -0.030 A 
ATOM     22  C   UNL     1       4.315   1.992  -1.261  0.00  0.00    +0.005 A 
ATOM     23  C   UNL     1       5.029   1.760  -2.422  0.00  0.00    +0.000 A 
ATOM     24  C   UNL     1       5.862   2.740  -2.929  0.00  0.00    +0.000 A 
ATOM     25  C   UNL     1       5.976   3.954  -2.278  0.00  0.00    +0.000 A 
ATOM     26  C   UNL     1       5.258   4.188  -1.121  0.00  0.00    +0.005 A 
ENDBRANCH  20  21
ENDBRANCH   1  20
BRANCH   2  27
ATOM     27  C   UNL     1       3.106   6.249   0.539  0.00  0.00    +0.115 C 
BRANCH  27  28
ATOM     28  C   UNL     1       2.517   7.659   0.479  0.00  0.00    +0.111 C 
BRANCH  28  29
ATOM     29  N   UNL     1       3.554   8.637   0.818  0.00  0.00    -0.342 N 
ATOM     30  H   UNL     1       4.450   8.338   1.034  0.00  0.00    +0.146 HD
BRANCH  29  31
ATOM     31  C   UNL     1       3.251  10.000   0.831  0.00  0.00    +0.058 A 
ATOM     32  C   UNL     1       1.941  10.424   0.645  0.00  0.00    +0.025 A 
ATOM     33  C   UNL     1       1.644  11.773   0.664  0.00  0.00    +0.002 A 
ATOM     34  C   UNL     1       2.650  12.701   0.855  0.00  0.00    +0.002 A 
ATOM     35  C   UNL     1       3.956  12.283   1.034  0.00  0.00    +0.034 A 
ATOM     36  C   UNL     1       4.259  10.936   1.023  0.00  0.00    +0.147 A 
BRANCH  36  37
ATOM     37  N   UNL     1       5.657  10.489   1.214  0.00  0.00    +0.058 N 
ATOM     38  O   UNL     1       6.378  11.067   2.008  0.00  0.00    -0.126 OA
ATOM     39  O   UNL     1       6.087   9.544   0.578  0.00  0.00    -0.126 OA
ENDBRANCH  36  37
ENDBRANCH  29  31
ENDBRANCH  28  29
ENDBRANCH  27  28
ENDBRANCH   2  27
TORSDOF 12
