REMARK  Name = ZINC40126795
REMARK  14 active torsions:
REMARK  status: ('A' for Active; 'I' for Inactive)
REMARK    1  A    between atoms: C_1  and  C_2
REMARK    2  A    between atoms: C_5  and  C_8
REMARK    3  A    between atoms: C_8  and  O_9
REMARK    4  A    between atoms: O_9  and  C_10
REMARK    5  A    between atoms: C_14  and  C_16
REMARK    6  A    between atoms: C_16  and  C_18
REMARK    7  A    between atoms: C_23  and  C_25
REMARK    8  A    between atoms: C_28  and  O_33
REMARK    9  A    between atoms: C_29  and  O_31
REMARK   10  A    between atoms: O_31  and  C_32
REMARK   11  A    between atoms: O_33  and  C_34
REMARK   12  A    between atoms: C_34  and  C_35
REMARK   13  A    between atoms: C_35  and  C_36
REMARK   14  A    between atoms: C_35  and  C_37
REMARK                            x       y       z     vdW  Elec       q    Type
REMARK                         _______ _______ _______ _____ _____    ______ ____
ROOT
ATOM      1  C   UNL     1       4.560 -10.058  -0.029  0.00  0.00    +0.076 C 
ATOM      2  C   UNL     1       5.690 -10.799   0.050  0.00  0.00    +0.249 C 
ATOM      3  C   UNL     1       5.330 -12.232   0.084  0.00  0.00    +0.285 C 
ATOM      4  O   UNL     1       6.124 -13.149   0.153  0.00  0.00    -0.267 OA
ATOM      5  N   UNL     1       3.993 -12.371   0.027  0.00  0.00    -0.298 N 
ATOM      6  C   UNL     1       3.403 -11.029  -0.042  0.00  0.00    +0.142 C 
ATOM      7  O   UNL     1       6.949 -10.306   0.090  0.00  0.00    -0.282 OA
ATOM      8  H   UNL     1       3.506 -13.210   0.034  0.00  0.00    +0.150 HD
ENDROOT
BRANCH   6   9
ATOM      9  C   UNL     1       2.512 -10.790   1.150  0.00  0.00    -0.019 A 
ATOM     10  C   UNL     1       2.924 -11.186   2.409  0.00  0.00    +0.009 A 
ATOM     11  C   UNL     1       2.111 -10.969   3.506  0.00  0.00    +0.050 A 
ATOM     12  C   UNL     1       0.880 -10.353   3.345  0.00  0.00    +0.162 A 
ATOM     13  C   UNL     1       0.466  -9.955   2.078  0.00  0.00    +0.162 A 
ATOM     14  C   UNL     1       1.288 -10.171   0.983  0.00  0.00    +0.055 A 
BRANCH  13  15
ATOM     15  O   UNL     1      -0.742  -9.350   1.914  0.00  0.00    -0.491 OA
ATOM     16  C   UNL     1      -1.048  -8.856   0.609  0.00  0.00    +0.277 C 
ENDBRANCH  13  15
BRANCH  12  17
ATOM     17  O   UNL     1       0.079 -10.139   4.423  0.00  0.00    -0.488 OA
BRANCH  17  18
ATOM     18  C   UNL     1       0.569 -10.575   5.692  0.00  0.00    +0.232 C 
BRANCH  18  19
ATOM     19  C   UNL     1      -0.462 -10.251   6.775  0.00  0.00    +0.020 C 
ATOM     20  C   UNL     1      -1.732 -11.068   6.530  0.00  0.00    +0.010 C 
ATOM     21  C   UNL     1       0.114 -10.603   8.149  0.00  0.00    +0.010 C 
ENDBRANCH  18  19
ENDBRANCH  17  18
ENDBRANCH  12  17
ENDBRANCH   6   9
BRANCH   1  22
ATOM     22  C   UNL     1       4.475  -8.596  -0.084  0.00  0.00    +0.195 C 
ATOM     23  O   UNL     1       4.820  -7.930   0.874  0.00  0.00    -0.287 OA
BRANCH  22  28
ATOM     24  C   UNL     1       3.345  -5.927  -2.479  0.00  0.00    +0.122 A 
ATOM     25  C   UNL     1       3.022  -6.688  -3.595  0.00  0.00    +0.046 A 
ATOM     26  C   UNL     1       3.171  -8.063  -3.568  0.00  0.00    +0.004 A 
ATOM     27  C   UNL     1       3.643  -8.687  -2.431  0.00  0.00    +0.012 A 
ATOM     28  C   UNL     1       3.970  -7.930  -1.304  0.00  0.00    +0.026 A 
ATOM     29  C   UNL     1       3.824  -6.542  -1.335  0.00  0.00    +0.057 A 
BRANCH  24  30
ATOM     30  O   UNL     1       3.195  -4.577  -2.512  0.00  0.00    -0.487 OA
BRANCH  30  31
ATOM     31  C   UNL     1       2.696  -4.008  -3.724  0.00  0.00    +0.264 C 
BRANCH  31  36
ATOM     32  C   UNL     1       2.318   1.730  -3.153  0.00  0.00    +0.044 C 
ATOM     33  C   UNL     1       2.417   0.233  -3.302  0.00  0.00    -0.050 A 
ATOM     34  C   UNL     1       3.582  -0.339  -3.777  0.00  0.00    +0.004 A 
ATOM     35  C   UNL     1       3.672  -1.712  -3.913  0.00  0.00    +0.007 A 
ATOM     36  C   UNL     1       2.597  -2.512  -3.574  0.00  0.00    -0.010 A 
ATOM     37  C   UNL     1       1.433  -1.940  -3.099  0.00  0.00    +0.007 A 
ATOM     38  C   UNL     1       1.344  -0.568  -2.958  0.00  0.00    +0.004 A 
ENDBRANCH  31  36
ENDBRANCH  30  31
ENDBRANCH  24  30
ENDBRANCH  22  28
ENDBRANCH   1  22
TORSDOF 10
