REMARK  Name = ZINC20478199
REMARK  4 active torsions:
REMARK  status: ('A' for Active; 'I' for Inactive)
REMARK    1  A    between atoms: C_3  and  N_8
REMARK    2  A    between atoms: N_8  and  S_9
REMARK    3  A    between atoms: S_9  and  C_12
REMARK    4  A    between atoms: C_17  and  N_18
REMARK                            x       y       z     vdW  Elec       q    Type
REMARK                         _______ _______ _______ _____ _____    ______ ____
ROOT
ATOM      1  S   UNL     1      -2.799   0.827   0.044  0.00  0.00    +0.074 S 
ATOM      2  O   UNL     1      -3.518   1.296  -1.088  0.00  0.00    -0.150 OA
ATOM      3  O   UNL     1      -2.539  -0.553   0.264  0.00  0.00    -0.150 OA
ENDROOT
BRANCH   1   4
ATOM      4  C   UNL     1      -1.234   1.636   0.016  0.00  0.00    +0.129 A 
ATOM      5  C   UNL     1      -0.072   0.899   0.148  0.00  0.00    +0.033 A 
ATOM      6  C   UNL     1       1.156   1.531   0.120  0.00  0.00    +0.040 A 
ATOM      7  C   UNL     1       1.228   2.906  -0.035  0.00  0.00    +0.125 A 
ATOM      8  C   UNL     1       0.068   3.649  -0.161  0.00  0.00    +0.063 A 
ATOM      9  C   UNL     1      -1.167   3.015  -0.132  0.00  0.00    +0.054 A 
ATOM     10  F   UNL     1       2.430   3.521  -0.062  0.00  0.00    -0.205 F 
BRANCH   9  11
ATOM     11  N   UNL     1      -2.340   3.763  -0.259  0.00  0.00    -0.356 N 
ATOM     12  H   UNL     1      -2.287   4.855  -0.376  0.00  0.00    +0.142 HD
ATOM     13  H   UNL     1      -3.318   3.259  -0.241  0.00  0.00    +0.142 HD
ENDBRANCH   9  11
ENDBRANCH   1   4
BRANCH   1  14
ATOM     14  N   UNL     1      -3.609   1.374   1.381  0.00  0.00    -0.216 N 
ATOM     15  H   UNL     1      -4.562   1.910   1.264  0.00  0.00    +0.174 HD
BRANCH  14  18
ATOM     16  C   UNL     1      -2.520   1.971   4.840  0.00  0.00    +0.003 A 
ATOM     17  C   UNL     1      -3.042   2.191   3.579  0.00  0.00    +0.024 A 
ATOM     18  C   UNL     1      -3.082   1.155   2.655  0.00  0.00    +0.049 A 
ATOM     19  C   UNL     1      -2.603  -0.102   3.004  0.00  0.00    +0.038 A 
ATOM     20  C   UNL     1      -2.078  -0.314   4.264  0.00  0.00    +0.015 A 
ATOM     21  C   UNL     1      -2.039   0.721   5.182  0.00  0.00    +0.014 A 
ATOM     22  I   UNL     1      -1.348  -2.207   4.788  0.00  0.00    -0.044 I 
ENDBRANCH  14  18
ENDBRANCH   1  14
TORSDOF 4
