REMARK  Name = ZINC03239809
REMARK  4 active torsions:
REMARK  status: ('A' for Active; 'I' for Inactive)
REMARK    1  A    between atoms: C_7  and  C_16
REMARK    2  A    between atoms: C_9  and  C_11
REMARK    3  A    between atoms: N_18  and  N_19
REMARK    4  A    between atoms: C_20  and  C_21
REMARK                            x       y       z     vdW  Elec       q    Type
REMARK                         _______ _______ _______ _____ _____    ______ ____
ROOT
ATOM      1  C   UNL     1      -0.017   1.360  -0.035  0.00  0.00    +0.001 A 
ATOM      2  C   UNL     1       1.170   2.089  -0.042  0.00  0.00    +0.002 A 
ATOM      3  C   UNL     1       2.379   1.464  -0.043  0.00  0.00    +0.028 A 
ATOM      4  C   UNL     1       2.438   0.059  -0.036  0.00  0.00    +0.072 A 
ATOM      5  C   UNL     1       1.227  -0.679  -0.029  0.00  0.00    +0.013 A 
ATOM      6  C   UNL     1       0.002  -0.004  -0.029  0.00  0.00    +0.011 A 
ATOM      7  C   UNL     1       1.294  -2.141  -0.022  0.00  0.00    +0.050 A 
ATOM      8  C   UNL     1       2.554  -2.721  -0.022  0.00  0.00    +0.042 A 
ATOM      9  C   UNL     1       3.693  -1.898  -0.030  0.00  0.00    +0.079 A 
ATOM     10  N   UNL     1       3.609  -0.581  -0.036  0.00  0.00    -0.246 NA
ENDROOT
BRANCH   9  11
ATOM     11  C   UNL     1       5.027  -2.527  -0.031  0.00  0.00    +0.038 A 
ATOM     12  C   UNL     1       6.263  -1.932  -0.032  0.00  0.00    +0.017 A 
ATOM     13  C   UNL     1       7.382  -2.732  -0.032  0.00  0.00    +0.008 A 
ATOM     14  C   UNL     1       7.230  -4.083  -0.032  0.00  0.00    +0.046 A 
ATOM     15  S   UNL     1       5.454  -4.261  -0.023  0.00  0.00    -0.095 S 
ENDBRANCH   9  11
BRANCH   7  16
ATOM     16  C   UNL     1       0.068  -2.966  -0.013  0.00  0.00    +0.264 C 
ATOM     17  O   UNL     1      -1.021  -2.436   0.092  0.00  0.00    -0.268 OA
ATOM     18  N   UNL     1       0.158  -4.307  -0.123  0.00  0.00    -0.203 N 
ATOM     19  H   UNL     1       1.026  -4.730  -0.207  0.00  0.00    +0.178 HD
BRANCH  18  20
ATOM     20  N   UNL     1      -1.005  -5.089  -0.115  0.00  0.00    -0.186 NA
ATOM     21  C   UNL     1      -0.919  -6.383  -0.220  0.00  0.00    +0.156 C 
BRANCH  21  22
ATOM     22  C   UNL     1      -2.135  -7.202  -0.212  0.00  0.00    +0.059 A 
ATOM     23  C   UNL     1      -3.428  -6.738  -0.106  0.00  0.00    +0.028 A 
ATOM     24  C   UNL     1      -4.273  -7.856  -0.141  0.00  0.00    +0.019 A 
ATOM     25  C   UNL     1      -3.498  -8.957  -0.265  0.00  0.00    +0.083 A 
ATOM     26  N   UNL     1      -2.193  -8.571  -0.315  0.00  0.00    -0.360 N 
ATOM     27  H   UNL     1      -1.431  -9.165  -0.406  0.00  0.00    +0.165 HD
ENDBRANCH  21  22
ENDBRANCH  18  20
ENDBRANCH   7  16
TORSDOF 4
