REMARK  Name = ZINC15969146
REMARK  7 active torsions:
REMARK  status: ('A' for Active; 'I' for Inactive)
REMARK    1  A    between atoms: C_1  and  C_2
REMARK    2  A    between atoms: C_16  and  C_19
REMARK    3  A    between atoms: C_19  and  C_20
REMARK    4  A    between atoms: C_23  and  O_26
REMARK    5  A    between atoms: N_29  and  C_32
REMARK    6  A    between atoms: C_32  and  C_33
REMARK    7  A    between atoms: C_33  and  C_34
REMARK                            x       y       z     vdW  Elec       q    Type
REMARK                         _______ _______ _______ _____ _____    ______ ____
ROOT
ATOM      1  C   UNL     1      -0.018   1.503   0.010  0.00  0.00    +0.046 C 
ATOM      2  C   UNL     1       0.002  -0.004   0.002  0.00  0.00    -0.028 A 
ATOM      3  C   UNL     1       0.006  -0.685  -1.198  0.00  0.00    +0.025 A 
ATOM      4  C   UNL     1       0.024  -2.068  -1.216  0.00  0.00    +0.042 A 
ATOM      5  C   UNL     1       0.039  -2.772  -0.023  0.00  0.00    +0.027 A 
ATOM      6  C   UNL     1       0.037  -2.096   1.176  0.00  0.00    +0.005 A 
ATOM      7  C   UNL     1       0.023  -0.704   1.205  0.00  0.00    +0.042 A 
ATOM      8  N   UNL     1       0.028  -0.250   2.526  0.00  0.00    -0.283 N 
ATOM      9  C   UNL     1       0.050  -1.264   3.413  0.00  0.00    +0.243 C 
ATOM     10  O   UNL     1       0.058  -1.169   4.622  0.00  0.00    -0.273 OA
ATOM     11  C   UNL     1       0.052  -2.537   2.612  0.00  0.00    +0.136 C 
ATOM     12  C   UNL     1      -1.157  -3.422   2.941  0.00  0.00    +0.122 C 
ATOM     13  C   UNL     1      -0.613  -4.875   2.847  0.00  0.00    +0.107 C 
ATOM     14  C   UNL     1       0.869  -4.720   2.447  0.00  0.00    +0.072 C 
ATOM     15  N   UNL     1       1.243  -3.352   2.914  0.00  0.00    -0.295 NA
ATOM     16  C   UNL     1      -0.711  -5.377   4.270  0.00  0.00    +0.227 C 
ATOM     17  O   UNL     1      -0.379  -6.480   4.648  0.00  0.00    -0.275 OA
ATOM     18  N   UNL     1      -1.221  -4.415   5.047  0.00  0.00    -0.241 N 
ATOM     19  C   UNL     1      -1.520  -3.264   4.401  0.00  0.00    +0.228 C 
ATOM     20  O   UNL     1      -1.996  -2.267   4.900  0.00  0.00    -0.275 OA
ATOM     21 CL   UNL     1       0.026  -2.919  -2.729  0.00  0.00    -0.084 Cl
ATOM     22  H   UNL     1       0.017   0.687   2.777  0.00  0.00    +0.155 HD
ATOM     23  H   UNL     1       2.051  -3.012   2.414  0.00  0.00    +0.124 HD
ENDROOT
BRANCH  14  24
ATOM     24  C   UNL     1       1.726  -5.766   3.162  0.00  0.00    +0.054 C 
BRANCH  24  25
ATOM     25  C   UNL     1       3.146  -5.676   2.665  0.00  0.00    -0.046 A 
ATOM     26  C   UNL     1       3.544  -6.426   1.573  0.00  0.00    +0.007 A 
ATOM     27  C   UNL     1       4.845  -6.346   1.116  0.00  0.00    +0.045 A 
ATOM     28  C   UNL     1       5.753  -5.513   1.753  0.00  0.00    +0.117 A 
ATOM     29  C   UNL     1       5.351  -4.762   2.848  0.00  0.00    +0.045 A 
ATOM     30  C   UNL     1       4.048  -4.841   3.298  0.00  0.00    +0.007 A 
BRANCH  28  31
ATOM     31  O   UNL     1       7.034  -5.433   1.306  0.00  0.00    -0.507 OA
ATOM     32  H   UNL     1       7.175  -4.748   0.638  0.00  0.00    +0.292 HD
ENDBRANCH  28  31
ENDBRANCH  24  25
ENDBRANCH  14  24
BRANCH  18  33
ATOM     33  C   UNL     1      -1.446  -4.592   6.483  0.00  0.00    +0.121 C 
BRANCH  33  34
ATOM     34  C   UNL     1      -0.195  -4.166   7.252  0.00  0.00    +0.054 C 
BRANCH  34  35
ATOM     35  C   UNL     1      -0.426  -4.348   8.730  0.00  0.00    -0.046 A 
ATOM     36  C   UNL     1      -0.963  -3.317   9.478  0.00  0.00    +0.004 A 
ATOM     37  C   UNL     1      -1.175  -3.485  10.834  0.00  0.00    +0.000 A 
ATOM     38  C   UNL     1      -0.852  -4.684  11.441  0.00  0.00    +0.000 A 
ATOM     39  C   UNL     1      -0.316  -5.715  10.693  0.00  0.00    +0.000 A 
ATOM     40  C   UNL     1      -0.108  -5.549   9.336  0.00  0.00    +0.004 A 
ENDBRANCH  34  35
ENDBRANCH  33  34
ENDBRANCH  18  33
TORSDOF 6
