REMARK  Name = ZINC34580539
REMARK  8 active torsions:
REMARK  status: ('A' for Active; 'I' for Inactive)
REMARK    1  A    between atoms: C_4  and  C_7
REMARK    2  A    between atoms: C_7  and  N_8
REMARK    3  A    between atoms: C_13  and  C_16
REMARK    4  A    between atoms: C_16  and  O_17
REMARK    5  A    between atoms: O_17  and  C_18
REMARK    6  A    between atoms: C_18  and  C_19
REMARK    7  A    between atoms: C_18  and  C_25
REMARK    8  A    between atoms: C_18  and  C_31
REMARK                            x       y       z     vdW  Elec       q    Type
REMARK                         _______ _______ _______ _____ _____    ______ ____
ROOT
ATOM      1  C   UNL     1       8.615  -4.057   4.199  0.00  0.00    +0.144 C 
ENDROOT
BRANCH   1   2
ATOM      2  C   UNL     1       8.694  -5.361   3.447  0.00  0.00    -0.007 A 
ATOM      3  C   UNL     1       9.905  -5.797   2.945  0.00  0.00    +0.007 A 
ATOM      4  C   UNL     1       9.978  -6.992   2.255  0.00  0.00    +0.000 A 
ATOM      5  C   UNL     1       8.838  -7.752   2.067  0.00  0.00    +0.000 A 
ATOM      6  C   UNL     1       7.627  -7.316   2.570  0.00  0.00    +0.000 A 
ATOM      7  C   UNL     1       7.555  -6.123   3.264  0.00  0.00    +0.007 A 
ENDBRANCH   1   2
BRANCH   1   8
ATOM      8  C   UNL     1       9.601  -3.079   3.614  0.00  0.00    -0.007 A 
ATOM      9  C   UNL     1      10.371  -2.292   4.449  0.00  0.00    +0.007 A 
ATOM     10  C   UNL     1      11.276  -1.395   3.913  0.00  0.00    +0.000 A 
ATOM     11  C   UNL     1      11.411  -1.286   2.542  0.00  0.00    +0.000 A 
ATOM     12  C   UNL     1      10.641  -2.074   1.707  0.00  0.00    +0.000 A 
ATOM     13  C   UNL     1       9.740  -2.974   2.243  0.00  0.00    +0.007 A 
ENDBRANCH   1   8
BRANCH   1  14
ATOM     14  C   UNL     1       8.943  -4.294   5.651  0.00  0.00    -0.007 A 
ATOM     15  C   UNL     1       9.813  -5.307   6.006  0.00  0.00    +0.007 A 
ATOM     16  C   UNL     1      10.114  -5.525   7.337  0.00  0.00    +0.000 A 
ATOM     17  C   UNL     1       9.545  -4.729   8.314  0.00  0.00    +0.000 A 
ATOM     18  C   UNL     1       8.674  -3.716   7.958  0.00  0.00    +0.000 A 
ATOM     19  C   UNL     1       8.377  -3.495   6.627  0.00  0.00    +0.007 A 
ENDBRANCH   1  14
BRANCH   1  20
ATOM     20  O   UNL     1       7.293  -3.524   4.090  0.00  0.00    -0.359 OA
BRANCH  20  21
ATOM     21  C   UNL     1       6.881  -3.261   2.747  0.00  0.00    +0.171 C 
BRANCH  21  27
ATOM     22  N   UNL     1       3.670  -1.831   1.319  0.00  0.00    +0.383 N 
ATOM     23  C   UNL     1       3.805  -0.460   1.826  0.00  0.00    -0.071 C 
ATOM     24  C   UNL     1       4.199  -0.500   3.307  0.00  0.00    +0.056 C 
ATOM     25  C   UNL     1       5.448  -1.348   3.442  0.00  0.00    +0.135 C 
ATOM     26  O   UNL     1       6.399  -0.962   4.077  0.00  0.00    -0.297 OA
ATOM     27  C   UNL     1       5.460  -2.696   2.751  0.00  0.00    +0.064 C 
ATOM     28  C   UNL     1       4.976  -2.499   1.310  0.00  0.00    -0.065 C 
ATOM     29  H   UNL     1       3.035  -2.344   1.913  0.00  0.00    -0.081 HD
BRANCH  22  30
ATOM     30  C   UNL     1       3.133  -1.792  -0.048  0.00  0.00    -0.043 C 
BRANCH  30  34
ATOM     31  C   UNL     1      -0.816  -0.164   0.015  0.00  0.00    +0.000 A 
ATOM     32  C   UNL     1       0.275   0.672  -0.141  0.00  0.00    +0.000 A 
ATOM     33  C   UNL     1       1.552   0.145  -0.161  0.00  0.00    +0.002 A 
ATOM     34  C   UNL     1       1.740  -1.218  -0.025  0.00  0.00    -0.064 A 
ATOM     35  C   UNL     1       0.650  -2.053   0.132  0.00  0.00    +0.002 A 
ATOM     36  C   UNL     1      -0.628  -1.526   0.150  0.00  0.00    +0.000 A 
ENDBRANCH  30  34
ENDBRANCH  22  30
ENDBRANCH  21  27
ENDBRANCH  20  21
ENDBRANCH   1  20
TORSDOF 8
