REMARK  Name = ZINC12403865
REMARK  6 active torsions:
REMARK  status: ('A' for Active; 'I' for Inactive)
REMARK    1  A    between atoms: C_1  and  C_2
REMARK    2  A    between atoms: C_5  and  C_20
REMARK    3  A    between atoms: N_9  and  N_10
REMARK    4  A    between atoms: C_11  and  C_13
REMARK    5  A    between atoms: C_16  and  O_19
REMARK    6  A    between atoms: C_20  and  C_22
REMARK                            x       y       z     vdW  Elec       q    Type
REMARK                         _______ _______ _______ _____ _____    ______ ____
ROOT
ATOM      1  N   UNL     1      -0.344   1.221   2.455  0.00  0.00    -0.203 N 
ATOM      2  C   UNL     1      -0.368   1.876   3.633  0.00  0.00    +0.263 C 
ATOM      3  O   UNL     1      -0.076   1.293   4.659  0.00  0.00    -0.268 OA
ATOM      4  H   UNL     1      -0.577   1.686   1.637  0.00  0.00    +0.178 HD
ENDROOT
BRANCH   1  12
ATOM      5  C   UNL     1       0.527   1.520   0.077  0.00  0.00    +0.045 C 
ATOM      6  C   UNL     1       0.293   0.033   0.020  0.00  0.00    -0.032 C 
ATOM      7  C   UNL     1       0.215  -0.575  -1.154  0.00  0.00    -0.021 C 
ATOM      8  C   UNL     1      -0.006  -2.051  -1.303  0.00  0.00    +0.035 C 
ATOM      9  C   UNL     1      -0.651  -2.642  -0.050  0.00  0.00    +0.024 C 
ATOM     10  C   UNL     1       0.182  -2.243   1.177  0.00  0.00    +0.065 C 
ATOM     11  C   UNL     1       0.158  -0.732   1.269  0.00  0.00    +0.062 C 
ATOM     12  N   UNL     1       0.018  -0.132   2.414  0.00  0.00    -0.184 NA
BRANCH   9  13
ATOM     13  C   UNL     1      -0.694  -4.144  -0.166  0.00  0.00    -0.076 C 
ATOM     14  C   UNL     1      -1.845  -4.770  -0.135  0.00  0.00    +0.007 C 
ATOM     15  C   UNL     1       0.585  -4.925  -0.319  0.00  0.00    +0.039 C 
ENDBRANCH   9  13
ENDBRANCH   1  12
BRANCH   2  16
ATOM     16  C   UNL     1      -0.750   3.301   3.677  0.00  0.00    +0.039 A 
ATOM     17  C   UNL     1      -1.091   3.971   2.499  0.00  0.00    +0.016 A 
ATOM     18  C   UNL     1      -1.447   5.301   2.544  0.00  0.00    +0.046 A 
ATOM     19  C   UNL     1      -1.466   5.976   3.759  0.00  0.00    +0.117 A 
ATOM     20  C   UNL     1      -1.126   5.313   4.933  0.00  0.00    +0.046 A 
ATOM     21  C   UNL     1      -0.775   3.982   4.897  0.00  0.00    +0.016 A 
BRANCH  19  22
ATOM     22  O   UNL     1      -1.816   7.287   3.799  0.00  0.00    -0.507 OA
ATOM     23  H   UNL     1      -2.763   7.437   3.925  0.00  0.00    +0.292 HD
ENDBRANCH  19  22
ENDBRANCH   2  16
TORSDOF 4
