REMARK  Name = ZINC15024034
REMARK  7 active torsions:
REMARK  status: ('A' for Active; 'I' for Inactive)
REMARK    1  A    between atoms: C_1  and  C_2
REMARK    2  A    between atoms: C_5  and  C_8
REMARK    3  A    between atoms: C_25  and  C_31
REMARK    4  A    between atoms: C_27  and  C_29
REMARK    5  A    between atoms: C_27  and  C_30
REMARK    6  A    between atoms: C_31  and  O_33
REMARK    7  A    between atoms: O_33  and  C_34
REMARK                            x       y       z     vdW  Elec       q    Type
REMARK                         _______ _______ _______ _____ _____    ______ ____
ROOT
ATOM      1  C   UNL     1      -4.901   3.691   0.448  0.00  0.00    +0.086 C 
ATOM      2  C   UNL     1      -4.528   4.705  -0.596  0.00  0.00    -0.005 A 
ATOM      3  C   UNL     1      -5.330   4.866  -1.737  0.00  0.00    +0.006 A 
ATOM      4  C   UNL     1      -6.492   4.094  -1.927  0.00  0.00    +0.012 A 
ATOM      5  C   UNL     1      -7.228   4.305  -3.058  0.00  0.00    +0.020 A 
ATOM      6  C   UNL     1      -6.819   5.263  -3.984  0.00  0.00    +0.111 A 
ATOM      7  N   UNL     1      -5.736   5.978  -3.805  0.00  0.00    -0.255 NA
ATOM      8  C   UNL     1      -4.971   5.822  -2.720  0.00  0.00    +0.071 A 
ATOM      9  C   UNL     1      -3.809   6.593  -2.538  0.00  0.00    +0.030 A 
ATOM     10  C   UNL     1      -3.050   6.422  -1.424  0.00  0.00    +0.025 A 
ATOM     11  C   UNL     1      -3.402   5.483  -0.446  0.00  0.00    +0.036 A 
ATOM     12  N   UNL     1      -2.613   5.338   0.696  0.00  0.00    -0.317 N 
ATOM     13  C   UNL     1      -3.133   4.777   1.827  0.00  0.00    +0.016 C 
ATOM     14  C   UNL     1      -4.223   3.981   1.763  0.00  0.00    +0.025 C 
ATOM     15  C   UNL     1      -4.760   3.396   2.922  0.00  0.00    +0.176 C 
ATOM     16  O   UNL     1      -5.744   2.688   2.832  0.00  0.00    -0.291 OA
ATOM     17  C   UNL     1      -4.140   3.630   4.273  0.00  0.00    +0.174 C 
ATOM     18  C   UNL     1      -2.641   3.889   4.095  0.00  0.00    -0.010 C 
ATOM     19  C   UNL     1      -2.463   5.076   3.146  0.00  0.00    +0.058 C 
ATOM     20  C   UNL     1      -2.011   4.216   5.450  0.00  0.00    +0.012 C 
ATOM     21  C   UNL     1      -1.971   2.648   3.502  0.00  0.00    +0.012 C 
ATOM     22  H   UNL     1      -1.691   5.638   0.686  0.00  0.00    +0.152 HD
ENDROOT
BRANCH   1  27
ATOM     23  C   UNL     1      -3.330  -1.560  -1.383  0.00  0.00    +0.044 C 
ATOM     24  C   UNL     1      -3.739  -0.191  -0.903  0.00  0.00    -0.050 A 
ATOM     25  C   UNL     1      -5.067   0.077  -0.629  0.00  0.00    +0.003 A 
ATOM     26  C   UNL     1      -5.443   1.332  -0.188  0.00  0.00    +0.005 A 
ATOM     27  C   UNL     1      -4.491   2.321  -0.027  0.00  0.00    -0.035 A 
ATOM     28  C   UNL     1      -3.162   2.052  -0.296  0.00  0.00    +0.005 A 
ATOM     29  C   UNL     1      -2.786   0.796  -0.736  0.00  0.00    +0.003 A 
ENDBRANCH   1  27
BRANCH  17  30
ATOM     30  C   UNL     1      -4.785   4.826   4.923  0.00  0.00    +0.318 C 
ATOM     31  O   UNL     1      -5.176   5.746   4.244  0.00  0.00    -0.250 OA
BRANCH  30  32
ATOM     32  O   UNL     1      -4.927   4.870   6.257  0.00  0.00    -0.467 OA
ATOM     33  C   UNL     1      -5.557   6.053   6.815  0.00  0.00    +0.280 C 
ENDBRANCH  30  32
ENDBRANCH  17  30
TORSDOF 3
