REMARK  Name = ZINC60367724
REMARK  5 active torsions:
REMARK  status: ('A' for Active; 'I' for Inactive)
REMARK    1  A    between atoms: C_4  and  N_20
REMARK    2  A    between atoms: C_5  and  N_7
REMARK    3  A    between atoms: C_8  and  C_10
REMARK    4  A    between atoms: C_10  and  C_11
REMARK    5  A    between atoms: N_20  and  C_21
REMARK                            x       y       z     vdW  Elec       q    Type
REMARK                         _______ _______ _______ _____ _____    ______ ____
ROOT
ATOM      1  C   UNL     1      -0.033   1.336  -0.325  0.00  0.00    +0.002 A 
ATOM      2  C   UNL     1       1.149   2.050  -0.399  0.00  0.00    +0.002 A 
ATOM      3  C   UNL     1       2.363   1.398  -0.287  0.00  0.00    +0.025 A 
ATOM      4  C   UNL     1       2.397   0.024  -0.099  0.00  0.00    +0.049 A 
ATOM      5  C   UNL     1       1.205  -0.696  -0.024  0.00  0.00    +0.054 A 
ATOM      6  C   UNL     1      -0.008  -0.033  -0.137  0.00  0.00    +0.025 A 
ENDROOT
BRANCH   5   7
ATOM      7  N   UNL     1       1.232  -2.084   0.166  0.00  0.00    -0.284 N 
ATOM      8  C   UNL     1       0.290  -2.861  -0.404  0.00  0.00    +0.223 C 
ATOM      9  O   UNL     1      -0.521  -2.373  -1.164  0.00  0.00    -0.275 OA
ATOM     10  H   UNL     1       1.930  -2.486   0.707  0.00  0.00    +0.155 HD
BRANCH   8  11
ATOM     11  C   UNL     1       0.243  -4.336  -0.099  0.00  0.00    +0.150 C 
BRANCH  11  12
ATOM     12  C   UNL     1      -0.895  -4.970  -0.857  0.00  0.00    +0.043 A 
ATOM     13  C   UNL     1      -2.183  -5.016  -0.453  0.00  0.00    +0.114 A 
ATOM     14  N   UNL     1      -2.888  -5.674  -1.423  0.00  0.00    -0.308 N 
ATOM     15  C   UNL     1      -4.207  -6.004  -1.543  0.00  0.00    +0.092 A 
ATOM     16  C   UNL     1      -4.652  -6.671  -2.629  0.00  0.00    +0.018 A 
ATOM     17  C   UNL     1      -3.761  -7.035  -3.652  0.00  0.00    +0.005 A 
ATOM     18  C   UNL     1      -2.444  -6.713  -3.545  0.00  0.00    +0.045 A 
ATOM     19  C   UNL     1      -1.995  -6.016  -2.405  0.00  0.00    +0.115 A 
ATOM     20  N   UNL     1      -0.798  -5.575  -2.043  0.00  0.00    -0.343 N 
ATOM     21  H   UNL     1       0.018  -5.678  -2.557  0.00  0.00    +0.167 HD
ENDBRANCH  11  12
ENDBRANCH   8  11
ENDBRANCH   5   7
BRANCH   4  22
ATOM     22  N   UNL     1       3.624  -0.638   0.014  0.00  0.00    -0.337 N 
ATOM     23  H   UNL     1       3.646  -1.598   0.154  0.00  0.00    +0.147 HD
BRANCH  22  24
ATOM     24  C   UNL     1       4.876   0.117  -0.078  0.00  0.00    +0.033 C 
ATOM     25  C   UNL     1       4.925   1.161   1.039  0.00  0.00    +0.029 C 
ATOM     26  C   UNL     1       6.232   1.951   0.942  0.00  0.00    -0.008 C 
ATOM     27  C   UNL     1       7.418   0.994   1.085  0.00  0.00    +0.007 C 
ATOM     28  C   UNL     1       7.368  -0.050  -0.032  0.00  0.00    -0.008 C 
ATOM     29  C   UNL     1       6.061  -0.839   0.065  0.00  0.00    +0.029 C 
ATOM     30  C   UNL     1       7.440   0.652  -1.390  0.00  0.00    +0.007 C 
ATOM     31  C   UNL     1       6.255   1.609  -1.533  0.00  0.00    -0.008 C 
ATOM     32  C   UNL     1       6.304   2.653  -0.415  0.00  0.00    +0.007 C 
ATOM     33  C   UNL     1       4.948   0.820  -1.436  0.00  0.00    +0.029 C 
ENDBRANCH  22  24
ENDBRANCH   4  22
TORSDOF 5
