REMARK  Name = ZINC19848842
REMARK  7 active torsions:
REMARK  status: ('A' for Active; 'I' for Inactive)
REMARK    1  A    between atoms: C_1  and  C_2
REMARK    2  A    between atoms: C_3  and  C_29
REMARK    3  A    between atoms: C_4  and  C_20
REMARK    4  A    between atoms: C_10  and  C_15
REMARK    5  A    between atoms: C_29  and  O_31
REMARK    6  A    between atoms: O_31  and  C_32
REMARK    7  A    between atoms: C_32  and  C_33
REMARK                            x       y       z     vdW  Elec       q    Type
REMARK                         _______ _______ _______ _____ _____    ______ ____
ROOT
ATOM      1  C   UNL     1      -0.461   0.514  -4.700  0.00  0.00    +0.061 C 
ATOM      2  C   UNL     1      -0.952   1.296  -3.509  0.00  0.00    +0.016 C 
ATOM      3  C   UNL     1      -1.594   2.462  -3.695  0.00  0.00    +0.065 C 
ATOM      4  C   UNL     1      -2.104   3.264  -2.534  0.00  0.00    +0.092 C 
ATOM      5  C   UNL     1      -1.443   2.836  -1.248  0.00  0.00    +0.024 C 
ATOM      6  C   UNL     1      -0.803   1.650  -1.164  0.00  0.00    +0.016 C 
ATOM      7  N   UNL     1      -0.740   0.816  -2.247  0.00  0.00    -0.321 N 
ATOM      8  C   UNL     1      -0.139   1.215   0.119  0.00  0.00    +0.060 C 
ATOM      9  C   UNL     1      -0.895   1.803   1.313  0.00  0.00    +0.039 C 
ATOM     10  C   UNL     1      -0.903   3.329   1.180  0.00  0.00    +0.088 C 
ATOM     11  C   UNL     1      -1.516   3.701  -0.142  0.00  0.00    +0.162 C 
ATOM     12  O   UNL     1      -2.084   4.769  -0.257  0.00  0.00    -0.292 OA
ATOM     13  H   UNL     1      -0.517  -0.251  -2.095  0.00  0.00    +0.152 HD
ENDROOT
BRANCH   4  14
ATOM     14  C   UNL     1      -3.594   3.068  -2.413  0.00  0.00    -0.032 A 
ATOM     15  C   UNL     1      -4.106   1.807  -2.172  0.00  0.00    +0.008 A 
ATOM     16  C   UNL     1      -5.472   1.623  -2.060  0.00  0.00    +0.050 A 
ATOM     17  C   UNL     1      -6.330   2.702  -2.191  0.00  0.00    +0.166 A 
ATOM     18  C   UNL     1      -5.814   3.972  -2.434  0.00  0.00    +0.167 A 
ATOM     19  C   UNL     1      -4.444   4.151  -2.539  0.00  0.00    +0.054 A 
ATOM     20  O   UNL     1      -6.851   4.856  -2.521  0.00  0.00    -0.453 OA
ATOM     21  C   UNL     1      -8.025   4.050  -2.735  0.00  0.00    +0.466 C 
ATOM     22  O   UNL     1      -7.691   2.789  -2.125  0.00  0.00    -0.453 OA
ENDBRANCH   4  14
BRANCH   9  23
ATOM     23  C   UNL     1      -0.203   1.410   2.593  0.00  0.00    -0.006 A 
ATOM     24  C   UNL     1      -0.688   0.703   3.643  0.00  0.00    +0.011 A 
ATOM     25  C   UNL     1       0.138   0.456   4.724  0.00  0.00    +0.008 A 
ATOM     26  C   UNL     1       1.405   0.938   4.706  0.00  0.00    +0.045 A 
ATOM     27  S   UNL     1       1.465   1.762   3.124  0.00  0.00    -0.101 S 
ENDBRANCH   9  23
BRANCH   3  28
ATOM     28  C   UNL     1      -1.794   2.942  -5.011  0.00  0.00    +0.338 C 
ATOM     29  O   UNL     1      -1.296   2.357  -5.954  0.00  0.00    -0.245 OA
BRANCH  28  30
ATOM     30  O   UNL     1      -2.537   4.049  -5.219  0.00  0.00    -0.457 OA
BRANCH  30  31
ATOM     31  C   UNL     1      -2.697   4.478  -6.573  0.00  0.00    +0.268 C 
BRANCH  31  32
ATOM     32  C   UNL     1      -3.550   5.719  -6.610  0.00  0.00    -0.010 A 
ATOM     33  C   UNL     1      -4.923   5.611  -6.731  0.00  0.00    +0.007 A 
ATOM     34  C   UNL     1      -5.707   6.750  -6.759  0.00  0.00    +0.000 A 
ATOM     35  C   UNL     1      -5.116   7.997  -6.678  0.00  0.00    +0.000 A 
ATOM     36  C   UNL     1      -3.743   8.105  -6.563  0.00  0.00    +0.000 A 
ATOM     37  C   UNL     1      -2.960   6.966  -6.529  0.00  0.00    +0.007 A 
ENDBRANCH  31  32
ENDBRANCH  30  31
ENDBRANCH  28  30
ENDBRANCH   3  28
TORSDOF 6
