REMARK  Name = ZINC13003463
REMARK  11 active torsions:
REMARK  status: ('A' for Active; 'I' for Inactive)
REMARK    1  A    between atoms: C_1  and  C_2
REMARK    2  A    between atoms: C_6  and  C_19
REMARK    3  A    between atoms: N_8  and  C_9
REMARK    4  A    between atoms: C_14  and  C_15
REMARK    5  A    between atoms: N_21  and  C_22
REMARK    6  A    between atoms: C_22  and  C_23
REMARK    7  A    between atoms: C_23  and  C_25
REMARK    8  A    between atoms: C_23  and  N_58
REMARK    9  A    between atoms: C_25  and  C_26
REMARK   10  A    between atoms: C_32  and  N_58
REMARK   11  A    between atoms: C_33  and  N_58
REMARK                            x       y       z     vdW  Elec       q    Type
REMARK                         _______ _______ _______ _____ _____    ______ ____
ROOT
ATOM      1  C   UNL     1      -6.283  -3.382   8.234  0.00  0.00    +0.066 C 
ATOM      2  C   UNL     1      -6.202  -2.601   6.947  0.00  0.00    +0.044 A 
ATOM      3  C   UNL     1      -7.055  -2.889   5.936  0.00  0.00    +0.076 A 
ATOM      4  C   UNL     1      -6.950  -2.127   4.743  0.00  0.00    +0.213 A 
ATOM      5  O   UNL     1      -7.689  -2.329   3.792  0.00  0.00    -0.285 OA
ATOM      6  C   UNL     1      -5.909  -1.089   4.699  0.00  0.00    +0.192 A 
ATOM      7  N   UNL     1      -5.145  -0.912   5.756  0.00  0.00    -0.158 NA
ATOM      8  N   UNL     1      -5.276  -1.619   6.817  0.00  0.00    -0.236 N 
ENDROOT
BRANCH   8   9
ATOM      9  C   UNL     1      -4.421  -1.365   7.895  0.00  0.00    +0.077 A 
ATOM     10  C   UNL     1      -4.948  -1.053   9.142  0.00  0.00    +0.028 A 
ATOM     11  C   UNL     1      -4.101  -0.808  10.205  0.00  0.00    +0.002 A 
ATOM     12  C   UNL     1      -2.731  -0.862  10.027  0.00  0.00    +0.001 A 
ATOM     13  C   UNL     1      -2.204  -1.167   8.785  0.00  0.00    +0.014 A 
ATOM     14  C   UNL     1      -3.045  -1.419   7.719  0.00  0.00    +0.080 A 
BRANCH  14  15
ATOM     15  C   UNL     1      -2.469  -1.751   6.367  0.00  0.00    +0.419 C 
ATOM     16  F   UNL     1      -1.077  -1.849   6.463  0.00  0.00    -0.166 F 
ATOM     17  F   UNL     1      -2.993  -2.971   5.924  0.00  0.00    -0.166 F 
ATOM     18  F   UNL     1      -2.804  -0.743   5.457  0.00  0.00    -0.166 F 
ENDBRANCH  14  15
ENDBRANCH   8   9
BRANCH   6  19
ATOM     19  C   UNL     1      -5.729  -0.255   3.493  0.00  0.00    +0.268 C 
ATOM     20  O   UNL     1      -6.480  -0.386   2.546  0.00  0.00    -0.268 OA
ATOM     21  N   UNL     1      -4.732   0.650   3.442  0.00  0.00    -0.311 N 
ATOM     22  H   UNL     1      -4.181   0.809   4.225  0.00  0.00    +0.149 HD
BRANCH  21  23
ATOM     23  C   UNL     1      -4.481   1.395   2.206  0.00  0.00    +0.089 C 
BRANCH  23  24
ATOM     24  C   UNL     1      -3.231   2.260   2.377  0.00  0.00    -0.048 C 
BRANCH  24  27
ATOM     25  C   UNL     1      -2.475   1.900   0.105  0.00  0.00    -0.096 C 
ATOM     26  C   UNL     1      -4.027   3.692   0.594  0.00  0.00    -0.096 C 
ATOM     27  N   UNL     1      -2.876   2.916   1.100  0.00  0.00    +0.379 N 
ATOM     28  H   UNL     1      -2.088   3.554   1.261  0.00  0.00    -0.082 HD
ENDBRANCH  24  27
BRANCH  24  29
ATOM     29  C   UNL     1      -3.496   3.338   3.430  0.00  0.00    +0.021 C 
BRANCH  29  30
ATOM     30  C   UNL     1      -2.229   4.112   3.687  0.00  0.00    -0.049 A 
ATOM     31  C   UNL     1      -1.943   5.239   2.940  0.00  0.00    +0.003 A 
ATOM     32  C   UNL     1      -0.784   5.952   3.179  0.00  0.00    +0.000 A 
ATOM     33  C   UNL     1       0.093   5.535   4.163  0.00  0.00    +0.000 A 
ATOM     34  C   UNL     1      -0.189   4.404   4.907  0.00  0.00    +0.000 A 
ATOM     35  C   UNL     1      -1.349   3.691   4.667  0.00  0.00    +0.003 A 
ENDBRANCH  29  30
ENDBRANCH  24  29
ENDBRANCH  23  24
ENDBRANCH  21  23
ENDBRANCH   6  19
TORSDOF 8
