REMARK  Name = ZINC08735419
REMARK  9 active torsions:
REMARK  status: ('A' for Active; 'I' for Inactive)
REMARK    1  A    between atoms: C_1  and  C_2
REMARK    2  A    between atoms: C_5  and  C_7
REMARK    3  A    between atoms: C_10  and  C_13
REMARK    4  A    between atoms: C_18  and  C_20
REMARK    5  A    between atoms: C_20  and  N_21
REMARK    6  A    between atoms: C_24  and  C_28
REMARK    7  A    between atoms: C_24  and  C_29
REMARK    8  A    between atoms: C_32  and  O_35
REMARK    9  A    between atoms: O_35  and  C_36
REMARK                            x       y       z     vdW  Elec       q    Type
REMARK                         _______ _______ _______ _____ _____    ______ ____
ROOT
ATOM      1  C   UNL     1       2.905   5.869   1.175  0.00  0.00    +0.104 C 
ATOM      2  N   UNL     1       3.181   5.710  -0.076  0.00  0.00    -0.178 NA
ATOM      3  N   UNL     1       2.098   5.298  -0.849  0.00  0.00    -0.183 N 
ATOM      4  C   UNL     1       0.918   5.160   0.020  0.00  0.00    +0.144 C 
ATOM      5  C   UNL     1       1.447   5.548   1.415  0.00  0.00    +0.090 C 
ATOM      6  C   UNL     1       2.126   5.062  -2.176  0.00  0.00    +0.253 C 
ATOM      7  O   UNL     1       1.119   4.704  -2.750  0.00  0.00    -0.272 OA
ENDROOT
BRANCH   1  12
ATOM      8  C   UNL     1       4.806   7.159   5.627  0.00  0.00    +0.086 C 
ATOM      9  C   UNL     1       4.698   6.862   4.153  0.00  0.00    +0.103 A 
ATOM     10  C   UNL     1       5.704   6.951   3.258  0.00  0.00    +0.045 A 
ATOM     11  C   UNL     1       5.176   6.589   2.005  0.00  0.00    +0.051 A 
ATOM     12  C   UNL     1       3.858   6.296   2.205  0.00  0.00    +0.151 A 
ATOM     13  O   UNL     1       3.584   6.473   3.513  0.00  0.00    -0.459 OA
ENDBRANCH   1  12
BRANCH   4  14
ATOM     14  C   UNL     1       0.421   3.738   0.017  0.00  0.00    +0.013 A 
ATOM     15  C   UNL     1      -0.855   3.279   0.027  0.00  0.00    +0.013 A 
ATOM     16  C   UNL     1      -1.077   1.915   0.017  0.00  0.00    +0.008 A 
ATOM     17  C   UNL     1      -0.013   1.076   0.008  0.00  0.00    +0.045 A 
ATOM     18  S   UNL     1       1.359   2.219   0.001  0.00  0.00    -0.100 S 
ENDBRANCH   4  14
BRANCH   6  19
ATOM     19  C   UNL     1       3.408   5.243  -2.946  0.00  0.00    +0.215 C 
BRANCH  19  20
ATOM     20  N   UNL     1       3.179   4.927  -4.358  0.00  0.00    -0.215 N 
ATOM     21  C   UNL     1       2.792   5.828  -5.282  0.00  0.00    +0.251 C 
ATOM     22  O   UNL     1       2.577   7.008  -5.109  0.00  0.00    -0.272 OA
ATOM     23  C   UNL     1       2.683   5.059  -6.584  0.00  0.00    +0.135 C 
ATOM     24  N   UNL     1       3.055   3.684  -6.206  0.00  0.00    -0.281 N 
ATOM     25  C   UNL     1       3.332   3.709  -4.890  0.00  0.00    +0.310 C 
ATOM     26  O   UNL     1       3.678   2.732  -4.255  0.00  0.00    -0.252 OA
ATOM     27  C   UNL     1       1.250   5.105  -7.118  0.00  0.00    +0.047 C 
ATOM     28  H   UNL     1       3.096   2.913  -6.793  0.00  0.00    +0.152 HD
BRANCH  23  29
ATOM     29  C   UNL     1       3.646   5.607  -7.606  0.00  0.00    -0.015 A 
ATOM     30  C   UNL     1       3.991   6.946  -7.581  0.00  0.00    +0.010 A 
ATOM     31  C   UNL     1       4.877   7.449  -8.513  0.00  0.00    +0.046 A 
ATOM     32  C   UNL     1       5.412   6.613  -9.483  0.00  0.00    +0.120 A 
ATOM     33  C   UNL     1       5.059   5.271  -9.509  0.00  0.00    +0.046 A 
ATOM     34  C   UNL     1       4.177   4.771  -8.571  0.00  0.00    +0.010 A 
BRANCH  32  35
ATOM     35  O   UNL     1       6.279   7.107 -10.405  0.00  0.00    -0.495 OA
ATOM     36  C   UNL     1       6.596   8.498 -10.317  0.00  0.00    +0.277 C 
ENDBRANCH  32  35
ENDBRANCH  23  29
ENDBRANCH  19  20
ENDBRANCH   6  19
TORSDOF 6
