REMARK  Name = ZINC34734883
REMARK  10 active torsions:
REMARK  status: ('A' for Active; 'I' for Inactive)
REMARK    1  A    between atoms: C_1  and  C_2
REMARK    2  A    between atoms: C_5  and  C_9
REMARK    3  A    between atoms: C_6  and  C_8
REMARK    4  A    between atoms: C_9  and  N_10
REMARK    5  A    between atoms: C_25  and  C_27
REMARK    6  A    between atoms: C_25  and  C_28
REMARK    7  A    between atoms: N_31  and  C_32
REMARK    8  A    between atoms: C_32  and  C_33
REMARK    9  A    between atoms: C_33  and  C_34
REMARK   10  A    between atoms: C_33  and  C_35
REMARK                            x       y       z     vdW  Elec       q    Type
REMARK                         _______ _______ _______ _____ _____    ______ ____
ROOT
ATOM      1  N   UNL     1      -2.883  -3.892   1.119  0.00  0.00    +0.384 N 
ATOM      2  C   UNL     1      -4.274  -4.274   1.395  0.00  0.00    -0.059 C 
ATOM      3  C   UNL     1      -4.404  -5.800   1.337  0.00  0.00    +0.089 C 
ATOM      4  N   UNL     1      -3.894  -6.263   0.037  0.00  0.00    -0.304 N 
ATOM      5  C   UNL     1      -2.568  -5.793  -0.394  0.00  0.00    +0.089 C 
ATOM      6  C   UNL     1      -2.524  -4.268  -0.254  0.00  0.00    -0.059 C 
ATOM      7  C   UNL     1      -4.633  -7.109  -0.751  0.00  0.00    +0.202 A 
ATOM      8  N   UNL     1      -5.551  -6.613  -1.554  0.00  0.00    -0.208 NA
ATOM      9  C   UNL     1      -6.281  -7.409  -2.327  0.00  0.00    +0.118 A 
ATOM     10  C   UNL     1      -6.116  -8.805  -2.330  0.00  0.00    +0.076 A 
ATOM     11  C   UNL     1      -6.993  -9.546  -3.233  0.00  0.00    -0.018 A 
ATOM     12  C   UNL     1      -7.868  -8.827  -3.970  0.00  0.00    +0.021 A 
ATOM     13  S   UNL     1      -7.579  -7.142  -3.509  0.00  0.00    -0.071 S 
ATOM     14  C   UNL     1      -8.855  -9.372  -4.955  0.00  0.00    +0.203 C 
ATOM     15  O   UNL     1      -8.505 -10.740  -5.220  0.00  0.00    -0.368 OA
ATOM     16  C   UNL     1      -8.269 -11.508  -4.037  0.00  0.00    +0.068 C 
ATOM     17  C   UNL     1      -6.962 -11.066  -3.373  0.00  0.00    +0.071 C 
ATOM     18  C   UNL     1      -9.429 -11.304  -3.060  0.00  0.00    +0.041 C 
ATOM     19  C   UNL     1      -8.175 -12.990  -4.406  0.00  0.00    +0.041 C 
ATOM     20  C   UNL     1      -5.110  -9.314  -1.449  0.00  0.00    +0.264 A 
ATOM     21  O   UNL     1      -4.895 -10.512  -1.384  0.00  0.00    -0.267 OA
ATOM     22  N   UNL     1      -4.403  -8.452  -0.695  0.00  0.00    -0.280 N 
ATOM     23  H   UNL     1      -2.272  -4.367   1.767  0.00  0.00    -0.081 HD
ENDROOT
BRANCH   1  24
ATOM     24  C   UNL     1      -2.735  -2.440   1.282  0.00  0.00    -0.043 C 
BRANCH  24  29
ATOM     25  C   UNL     1      -3.690  -1.018   6.801  0.00  0.00    +0.044 C 
ATOM     26  C   UNL     1      -3.441  -1.388   5.362  0.00  0.00    -0.050 A 
ATOM     27  C   UNL     1      -4.438  -1.214   4.420  0.00  0.00    +0.003 A 
ATOM     28  C   UNL     1      -4.210  -1.554   3.100  0.00  0.00    +0.002 A 
ATOM     29  C   UNL     1      -2.983  -2.068   2.721  0.00  0.00    -0.061 A 
ATOM     30  C   UNL     1      -1.986  -2.242   3.662  0.00  0.00    -0.049 A 
ATOM     31  C   UNL     1      -2.213  -1.897   4.982  0.00  0.00    +0.007 A 
ATOM     32  C   UNL     1      -0.650  -2.803   3.249  0.00  0.00    +0.044 C 
ENDBRANCH  24  29
ENDBRANCH   1  24
BRANCH  22  33
ATOM     33  C   UNL     1      -3.368  -8.967   0.205  0.00  0.00    +0.131 C 
BRANCH  33  34
ATOM     34  C   UNL     1      -3.955  -9.145   1.607  0.00  0.00    +0.003 C 
ATOM     35  C   UNL     1      -5.037 -10.226   1.573  0.00  0.00    +0.009 C 
ATOM     36  C   UNL     1      -2.846  -9.564   2.575  0.00  0.00    +0.009 C 
ENDBRANCH  33  34
ENDBRANCH  22  33
TORSDOF 4
