REMARK  Name = ZINC39293722
REMARK  12 active torsions:
REMARK  status: ('A' for Active; 'I' for Inactive)
REMARK    1  A    between atoms: C_1  and  C_2
REMARK    2  A    between atoms: C_3  and  C_36
REMARK    3  A    between atoms: C_4  and  O_32
REMARK    4  A    between atoms: C_5  and  C_31
REMARK    5  A    between atoms: C_9  and  C_12
REMARK    6  A    between atoms: C_9  and  C_13
REMARK    7  A    between atoms: C_13  and  O_14
REMARK    8  A    between atoms: O_14  and  C_15
REMARK    9  A    between atoms: C_19  and  C_21
REMARK   10  A    between atoms: C_22  and  C_23
REMARK   11  A    between atoms: O_32  and  C_33
REMARK   12  A    between atoms: C_33  and  C_35
REMARK                            x       y       z     vdW  Elec       q    Type
REMARK                         _______ _______ _______ _____ _____    ______ ____
ROOT
ATOM      1  C   UNL     1      -0.018   1.503   0.010  0.00  0.00    +0.048 C 
ATOM      2  C   UNL     1       0.002  -0.004   0.002  0.00  0.00    -0.002 A 
ATOM      3  C   UNL     1       0.006  -0.690  -1.199  0.00  0.00    -0.001 A 
ATOM      4  C   UNL     1       0.028  -2.078  -1.217  0.00  0.00    +0.138 A 
ATOM      5  C   UNL     1       0.039  -2.790  -0.027  0.00  0.00    +0.003 A 
ATOM      6  C   UNL     1       0.022  -2.105   1.182  0.00  0.00    +0.023 A 
ATOM      7  C   UNL     1       0.023  -0.702   1.195  0.00  0.00    +0.133 A 
ATOM      8  O   UNL     1       0.061  -0.056   2.389  0.00  0.00    -0.478 OA
ATOM      9  C   UNL     1      -0.604  -0.673   3.490  0.00  0.00    +0.160 C 
ATOM     10  C   UNL     1      -0.247  -2.133   3.578  0.00  0.00    +0.024 C 
ATOM     11  C   UNL     1       0.027  -2.820   2.476  0.00  0.00    +0.011 C 
ATOM     12  C   UNL     1      -2.117  -0.535   3.307  0.00  0.00    +0.064 C 
ATOM     13  C   UNL     1       0.068  -4.296  -0.045  0.00  0.00    +0.048 C 
ATOM     14  C   UNL     1      -0.015   0.075  -2.498  0.00  0.00    +0.048 C 
ENDROOT
BRANCH   9  15
ATOM     15  C   UNL     1      -0.189   0.026   4.786  0.00  0.00    +0.281 C 
BRANCH  15  16
ATOM     16  O   UNL     1      -0.654   1.377   4.769  0.00  0.00    -0.488 OA
BRANCH  16  17
ATOM     17  C   UNL     1      -0.367   2.143   5.854  0.00  0.00    +0.121 A 
ATOM     18  C   UNL     1       0.354   1.605   6.912  0.00  0.00    +0.045 A 
ATOM     19  C   UNL     1       0.650   2.379   8.018  0.00  0.00    +0.004 A 
ATOM     20  C   UNL     1       0.230   3.693   8.078  0.00  0.00    +0.008 A 
ATOM     21  C   UNL     1      -0.495   4.242   7.020  0.00  0.00    -0.022 A 
ATOM     22  C   UNL     1      -0.788   3.461   5.902  0.00  0.00    +0.053 A 
BRANCH  21  23
ATOM     23  C   UNL     1      -0.946   5.649   7.081  0.00  0.00    +0.005 C 
ATOM     24  C   UNL     1      -0.662   6.390   8.143  0.00  0.00    -0.003 C 
BRANCH  24  25
ATOM     25  C   UNL     1      -1.123   7.824   8.205  0.00  0.00    +0.164 C 
ATOM     26  C   UNL     1      -2.020   8.066   9.410  0.00  0.00    +0.237 C 
ATOM     27  O   UNL     1      -1.628   7.925  10.549  0.00  0.00    -0.274 OA
ATOM     28  N   UNL     1      -3.257   8.441   9.130  0.00  0.00    -0.246 N 
ATOM     29  C   UNL     1      -3.716   8.604   7.875  0.00  0.00    +0.279 C 
ATOM     30  O   UNL     1      -4.829   8.944   7.523  0.00  0.00    -0.263 OA
ATOM     31  S   UNL     1      -2.307   8.207   6.848  0.00  0.00    -0.050 S 
ATOM     32  H   UNL     1      -3.865   8.606   9.867  0.00  0.00    +0.158 HD
ENDBRANCH  24  25
ENDBRANCH  21  23
ENDBRANCH  16  17
ENDBRANCH  15  16
ENDBRANCH   9  15
BRANCH   4  33
ATOM     33  O   UNL     1       0.039  -2.741  -2.404  0.00  0.00    -0.425 OA
BRANCH  33  34
ATOM     34  C   UNL     1       1.229  -3.030  -2.954  0.00  0.00    +0.309 C 
ATOM     35  O   UNL     1       2.248  -2.701  -2.395  0.00  0.00    -0.251 OA
ATOM     36  C   UNL     1       1.294  -3.763  -4.269  0.00  0.00    +0.136 C 
ENDBRANCH  33  34
ENDBRANCH   4  33
TORSDOF 7
