REMARK  Name = ZINC21312860
REMARK  8 active torsions:
REMARK  status: ('A' for Active; 'I' for Inactive)
REMARK    1  A    between atoms: C_1  and  O_2
REMARK    2  A    between atoms: O_2  and  C_3
REMARK    3  A    between atoms: C_6  and  O_35
REMARK    4  A    between atoms: C_7  and  C_9
REMARK    5  A    between atoms: N_14  and  C_15
REMARK    6  A    between atoms: C_15  and  C_16
REMARK    7  A    between atoms: C_29  and  C_31
REMARK    8  A    between atoms: O_35  and  C_36
REMARK                            x       y       z     vdW  Elec       q    Type
REMARK                         _______ _______ _______ _____ _____    ______ ____
ROOT
ATOM      1  C   UNL     1       4.330   1.872   0.976  0.00  0.00    +0.204 C 
ATOM      2  O   UNL     1       3.724   2.541   1.786  0.00  0.00    -0.277 OA
ATOM      3  N   UNL     1       5.649   2.073   0.788  0.00  0.00    -0.259 N 
ATOM      4  C   UNL     1       6.365   1.304  -0.139  0.00  0.00    +0.058 A 
ATOM      5  C   UNL     1       6.659  -0.021   0.114  0.00  0.00    +0.025 A 
ATOM      6  C   UNL     1       7.393  -0.753  -0.801  0.00  0.00    +0.002 A 
ATOM      7  C   UNL     1       7.835  -0.163  -1.971  0.00  0.00    +0.002 A 
ATOM      8  C   UNL     1       7.534   1.159  -2.242  0.00  0.00    +0.025 A 
ATOM      9  C   UNL     1       6.788   1.894  -1.336  0.00  0.00    +0.055 A 
ATOM     10  N   UNL     1       6.441   3.225  -1.600  0.00  0.00    -0.284 N 
ATOM     11  C   UNL     1       6.639   4.184  -0.668  0.00  0.00    +0.219 C 
ATOM     12  O   UNL     1       6.264   5.317  -0.882  0.00  0.00    -0.275 OA
ATOM     13  C   UNL     1       7.322   3.856   0.633  0.00  0.00    +0.128 C 
ATOM     14  C   UNL     1       6.365   3.095   1.553  0.00  0.00    +0.194 C 
ATOM     15  H   UNL     1       6.004   3.497  -2.572  0.00  0.00    +0.155 HD
ENDROOT
BRANCH  14  16
ATOM     16  C   UNL     1       7.162   2.425   2.674  0.00  0.00    +0.409 C 
ATOM     17  F   UNL     1       8.081   1.527   2.121  0.00  0.00    -0.169 F 
ATOM     18  F   UNL     1       7.847   3.401   3.406  0.00  0.00    -0.169 F 
ATOM     19  F   UNL     1       6.287   1.736   3.521  0.00  0.00    -0.169 F 
ENDBRANCH  14  16
BRANCH   1  20
ATOM     20  C   UNL     1       3.608   0.815   0.180  0.00  0.00    +0.020 C 
BRANCH  20  25
ATOM     21  C   UNL     1       1.498  -0.385  -0.014  0.00  0.00    -0.033 C 
ATOM     22  C   UNL     1       0.002  -0.004   0.002  0.00  0.00    -0.012 C 
ATOM     23  C   UNL     1      -0.019   1.538   0.011  0.00  0.00    -0.020 C 
ATOM     24  C   UNL     1       1.466   1.960  -0.001  0.00  0.00    -0.077 C 
ATOM     25  N   UNL     1       2.191   0.794   0.567  0.00  0.00    +0.390 N 
ATOM     26  H   UNL     1       2.191   0.788   1.667  0.00  0.00    -0.080 HD
BRANCH  21  31
ATOM     27  C   UNL     1       2.328  -2.597   2.935  0.00  0.00    +0.121 A 
ATOM     28  C   UNL     1       2.178  -3.862   2.384  0.00  0.00    +0.049 A 
ATOM     29  C   UNL     1       1.809  -3.999   1.060  0.00  0.00    +0.049 A 
ATOM     30  C   UNL     1       1.583  -2.873   0.283  0.00  0.00    +0.122 A 
ATOM     31  C   UNL     1       1.738  -1.609   0.832  0.00  0.00    -0.016 A 
ATOM     32  C   UNL     1       2.108  -1.471   2.156  0.00  0.00    +0.051 A 
BRANCH  27  34
ATOM     33  C   UNL     1       2.902  -3.665   4.981  0.00  0.00    +0.277 C 
ATOM     34  O   UNL     1       2.692  -2.462   4.238  0.00  0.00    -0.495 OA
ENDBRANCH  27  34
BRANCH  30  35
ATOM     35  O   UNL     1       1.213  -3.008  -1.019  0.00  0.00    -0.495 OA
ATOM     36  C   UNL     1       1.072  -4.339  -1.518  0.00  0.00    +0.277 C 
ENDBRANCH  30  35
ENDBRANCH  21  31
ENDBRANCH  20  25
ENDBRANCH   1  20
TORSDOF 6
