REMARK  Name = ZINC22063254
REMARK  12 active torsions:
REMARK  status: ('A' for Active; 'I' for Inactive)
REMARK    1  A    between atoms: C_1  and  C_2
REMARK    2  A    between atoms: C_2  and  C_4
REMARK    3  A    between atoms: C_2  and  N_14
REMARK    4  A    between atoms: C_7  and  S_10
REMARK    5  A    between atoms: S_10  and  N_13
REMARK    6  A    between atoms: N_14  and  C_15
REMARK    7  A    between atoms: N_14  and  C_16
REMARK    8  A    between atoms: C_16  and  C_17
REMARK    9  A    between atoms: N_19  and  C_20
REMARK   10  A    between atoms: C_20  and  C_21
REMARK   11  A    between atoms: C_26  and  O_27
REMARK   12  A    between atoms: O_27  and  C_28
REMARK                            x       y       z     vdW  Elec       q    Type
REMARK                         _______ _______ _______ _____ _____    ______ ____
ROOT
ATOM      1  N   UNL     1      -0.643   1.688  -1.151  0.00  0.00    +0.388 N 
ATOM      2  C   UNL     1      -1.985   1.109  -1.002  0.00  0.00    -0.095 C 
ATOM      3  H   UNL     1      -0.741   2.783  -1.119  0.00  0.00    -0.081 HD
ENDROOT
BRANCH   1   5
ATOM      4  C   UNL     1      -0.077  -0.196  -2.610  0.00  0.00    -0.008 C 
ATOM      5  C   UNL     1      -0.054   1.325  -2.447  0.00  0.00    -0.041 C 
BRANCH   5   6
ATOM      6  C   UNL     1      -0.852   1.961  -3.557  0.00  0.00    -0.061 A 
ATOM      7  C   UNL     1      -1.001   1.305  -4.764  0.00  0.00    +0.004 A 
ATOM      8  C   UNL     1      -1.737   1.886  -5.780  0.00  0.00    +0.029 A 
ATOM      9  C   UNL     1      -2.315   3.127  -5.592  0.00  0.00    +0.105 A 
ATOM     10  C   UNL     1      -2.163   3.785  -4.386  0.00  0.00    +0.029 A 
ATOM     11  C   UNL     1      -1.431   3.202  -3.368  0.00  0.00    +0.004 A 
BRANCH   9  12
ATOM     12  S   UNL     1      -3.247   3.870  -6.889  0.00  0.00    +0.056 S 
ATOM     13  O   UNL     1      -3.698   2.812  -7.724  0.00  0.00    -0.153 OA
ATOM     14  O   UNL     1      -4.141   4.788  -6.273  0.00  0.00    -0.153 OA
BRANCH  12  15
ATOM     15  N   UNL     1      -2.193   4.771  -7.795  0.00  0.00    -0.204 NA
ATOM     16  H   UNL     1      -2.739   5.254  -8.619  0.00  0.00    +0.144 HD
ATOM     17  H   UNL     1      -1.411   4.116  -8.207  0.00  0.00    +0.144 HD
ENDBRANCH  12  15
ENDBRANCH   9  12
ENDBRANCH   5   6
ENDBRANCH   1   5
BRANCH   1  18
ATOM     18  C   UNL     1       0.232   1.280  -0.043  0.00  0.00    +0.019 C 
BRANCH  18  19
ATOM     19  C   UNL     1      -0.276   1.878   1.243  0.00  0.00    +0.197 C 
ATOM     20  O   UNL     1      -1.268   2.575   1.238  0.00  0.00    -0.278 OA
ATOM     21  N   UNL     1       0.374   1.639   2.400  0.00  0.00    -0.313 N 
ATOM     22  H   UNL     1       1.274   1.007   2.405  0.00  0.00    +0.149 HD
BRANCH  21  23
ATOM     23  C   UNL     1      -0.120   2.220   3.651  0.00  0.00    +0.143 C 
BRANCH  23  24
ATOM     24  C   UNL     1       0.778   1.802   4.787  0.00  0.00    +0.012 A 
ATOM     25  C   UNL     1       0.399   0.770   5.623  0.00  0.00    +0.009 A 
ATOM     26  C   UNL     1       1.224   0.383   6.663  0.00  0.00    +0.001 A 
ATOM     27  C   UNL     1       2.425   1.035   6.875  0.00  0.00    +0.004 A 
ATOM     28  C   UNL     1       2.806   2.071   6.045  0.00  0.00    +0.046 A 
ATOM     29  C   UNL     1       1.982   2.458   4.998  0.00  0.00    +0.135 A 
BRANCH  29  30
ATOM     30  O   UNL     1       2.354   3.477   4.180  0.00  0.00    -0.405 OA
BRANCH  30  31
ATOM     31  C   UNL     1       3.607   4.106   4.457  0.00  0.00    +0.575 C 
ATOM     32  F   UNL     1       4.633   3.160   4.369  0.00  0.00    -0.133 F 
ATOM     33  F   UNL     1       3.832   5.127   3.526  0.00  0.00    -0.133 F 
ATOM     34  F   UNL     1       3.582   4.649   5.746  0.00  0.00    -0.133 F 
ENDBRANCH  30  31
ENDBRANCH  29  30
ENDBRANCH  23  24
ENDBRANCH  21  23
ENDBRANCH  18  19
ENDBRANCH   1  18
TORSDOF 10
