REMARK  Name = ZINC38596917
REMARK  6 active torsions:
REMARK  status: ('A' for Active; 'I' for Inactive)
REMARK    1  A    between atoms: C_1  and  O_2
REMARK    2  A    between atoms: O_2  and  C_3
REMARK    3  A    between atoms: C_3  and  C_5
REMARK    4  A    between atoms: C_7  and  N_16
REMARK    5  A    between atoms: C_17  and  C_19
REMARK    6  A    between atoms: C_19  and  N_20
REMARK                            x       y       z     vdW  Elec       q    Type
REMARK                         _______ _______ _______ _____ _____    ______ ____
ROOT
ATOM      1  C   UNL     1      -0.282  -3.535  -2.799  0.00  0.00    +0.234 C 
ATOM      2  C   UNL     1      -0.766  -2.612  -1.702  0.00  0.00    +0.053 C 
ATOM      3  C   UNL     1       0.353  -1.920  -1.273  0.00  0.00    +0.019 A 
ATOM      4  C   UNL     1       0.539  -0.926  -0.281  0.00  0.00    +0.026 A 
ATOM      5  C   UNL     1       1.776  -0.411  -0.070  0.00  0.00    +0.019 A 
ATOM      6  C   UNL     1       2.884  -0.837  -0.810  0.00  0.00    +0.017 A 
ATOM      7  C   UNL     1       2.779  -1.783  -1.774  0.00  0.00    +0.027 A 
ATOM      8  C   UNL     1       1.518  -2.370  -2.055  0.00  0.00    +0.045 A 
ATOM      9  N   UNL     1       1.159  -3.292  -2.927  0.00  0.00    -0.367 N 
ATOM     10 BR   UNL     1       2.009   0.914   1.258  0.00  0.00    -0.050 Br
ATOM     11  H   UNL     1       1.751  -3.738  -3.553  0.00  0.00    +0.161 HD
ENDROOT
BRANCH   2  12
ATOM     12  N   UNL     1      -2.040  -2.488  -1.235  0.00  0.00    -0.285 N 
ATOM     13  C   UNL     1      -3.048  -3.141  -1.845  0.00  0.00    +0.234 C 
ATOM     14  O   UNL     1      -2.811  -3.921  -2.743  0.00  0.00    -0.274 OA
ATOM     15  H   UNL     1      -2.220  -1.930  -0.462  0.00  0.00    +0.155 HD
BRANCH  13  16
ATOM     16  C   UNL     1      -4.472  -2.902  -1.413  0.00  0.00    +0.201 C 
BRANCH  16  17
ATOM     17  N   UNL     1      -5.374  -3.723  -2.224  0.00  0.00    -0.321 N 
ATOM     18  C   UNL     1      -5.926  -3.205  -3.483  0.00  0.00    +0.106 C 
ATOM     19  C   UNL     1      -7.420  -3.552  -3.517  0.00  0.00    +0.024 C 
ATOM     20  C   UNL     1      -7.574  -5.073  -3.528  0.00  0.00    +0.038 C 
ATOM     21  C   UNL     1      -6.773  -5.692  -2.413  0.00  0.00    -0.026 A 
ATOM     22  C   UNL     1      -5.718  -5.016  -1.816  0.00  0.00    +0.033 A 
ATOM     23  C   UNL     1      -4.992  -5.620  -0.795  0.00  0.00    +0.023 A 
ATOM     24  C   UNL     1      -5.318  -6.894  -0.375  0.00  0.00    +0.002 A 
ATOM     25  C   UNL     1      -6.367  -7.569  -0.971  0.00  0.00    +0.000 A 
ATOM     26  C   UNL     1      -7.099  -6.967  -1.982  0.00  0.00    +0.005 A 
ENDBRANCH  16  17
ENDBRANCH  13  16
ENDBRANCH   2  12
BRANCH   1  27
ATOM     27  C   UNL     1      -0.533  -4.971  -2.417  0.00  0.00    +0.335 C 
ATOM     28  O   UNL     1       0.166  -5.508  -1.591  0.00  0.00    -0.248 OA
BRANCH  27  30
ATOM     29  C   UNL     1      -1.715  -7.011  -2.585  0.00  0.00    +0.280 C 
ATOM     30  O   UNL     1      -1.534  -5.654  -2.995  0.00  0.00    -0.466 OA
ENDBRANCH  27  30
ENDBRANCH   1  27
TORSDOF 5
