REMARK  Name = ZINC02776953
REMARK  9 active torsions:
REMARK  status: ('A' for Active; 'I' for Inactive)
REMARK    1  A    between atoms: C_1  and  C_2
REMARK    2  A    between atoms: C_4  and  C_8
REMARK    3  A    between atoms: N_5  and  C_7
REMARK    4  A    between atoms: N_10  and  N_11
REMARK    5  A    between atoms: C_12  and  C_30
REMARK    6  A    between atoms: C_22  and  C_26
REMARK    7  A    between atoms: C_26  and  C_27
REMARK    8  A    between atoms: C_26  and  C_28
REMARK    9  A    between atoms: C_26  and  C_29
REMARK                            x       y       z     vdW  Elec       q    Type
REMARK                         _______ _______ _______ _____ _____    ______ ____
ROOT
ATOM      1  N   UNL     1       2.363   1.284   0.107  0.00  0.00    -0.209 N 
ATOM      2  C   UNL     1       3.139   1.165  -1.001  0.00  0.00    +0.129 A 
ATOM      3  N   UNL     1       4.298   0.565  -0.954  0.00  0.00    -0.225 NA
ATOM      4  C   UNL     1       4.755   0.050   0.184  0.00  0.00    +0.116 A 
ATOM      5  C   UNL     1       4.025   0.123   1.381  0.00  0.00    +0.077 A 
ATOM      6  C   UNL     1       2.761   0.794   1.296  0.00  0.00    +0.280 A 
ATOM      7  O   UNL     1       2.055   0.913   2.282  0.00  0.00    -0.265 OA
ATOM      8  C   UNL     1       4.652  -0.487   2.552  0.00  0.00    -0.023 A 
ATOM      9  C   UNL     1       5.862  -1.057   2.372  0.00  0.00    -0.004 A 
ATOM     10  S   UNL     1       6.231  -0.817   0.654  0.00  0.00    -0.073 S 
ATOM     11  C   UNL     1       6.706  -1.743   3.402  0.00  0.00    +0.046 C 
ATOM     12  C   UNL     1       5.829  -2.035   4.629  0.00  0.00    -0.000 C 
ATOM     13  C   UNL     1       5.050  -0.767   4.989  0.00  0.00    +0.009 C 
ATOM     14  C   UNL     1       3.987  -0.490   3.926  0.00  0.00    +0.037 C 
ATOM     15  C   UNL     1       2.654   1.736  -2.309  0.00  0.00    +0.088 C 
ENDROOT
BRANCH   1  18
ATOM     16  C   UNL     1      -0.015   1.219   0.017  0.00  0.00    +0.282 C 
ATOM     17  O   UNL     1       0.030   0.003   0.010  0.00  0.00    -0.267 OA
ATOM     18  N   UNL     1       1.127   1.935   0.012  0.00  0.00    -0.213 N 
ATOM     19  H   UNL     1       1.092   2.902  -0.058  0.00  0.00    +0.176 HD
BRANCH  16  23
ATOM     20  C   UNL     1      -4.439   3.298  -1.337  0.00  0.00    +0.069 C 
ATOM     21  C   UNL     1      -3.247   2.818  -0.548  0.00  0.00    +0.079 A 
ATOM     22  C   UNL     1      -2.137   2.142  -1.064  0.00  0.00    +0.094 A 
ATOM     23  C   UNL     1      -1.314   1.906   0.025  0.00  0.00    +0.143 A 
ATOM     24  N   UNL     1      -1.951   2.446   1.108  0.00  0.00    -0.261 N 
ATOM     25  N   UNL     1      -3.066   2.965   0.739  0.00  0.00    -0.175 NA
ATOM     26  C   UNL     1      -1.439   2.434   2.481  0.00  0.00    +0.173 C 
ATOM     27 CL   UNL     1      -1.853   1.692  -2.716  0.00  0.00    -0.079 Cl
ENDBRANCH  16  23
ENDBRANCH   1  18
BRANCH  12  28
ATOM     28  C   UNL     1       6.715  -2.445   5.807  0.00  0.00    -0.035 C 
ATOM     29  C   UNL     1       7.686  -1.309   6.135  0.00  0.00    +0.011 C 
ATOM     30  C   UNL     1       5.839  -2.736   7.027  0.00  0.00    +0.011 C 
ATOM     31  C   UNL     1       7.507  -3.701   5.436  0.00  0.00    +0.011 C 
ENDBRANCH  12  28
TORSDOF 3
