REMARK  Name = ZINC34761371
REMARK  12 active torsions:
REMARK  status: ('A' for Active; 'I' for Inactive)
REMARK    1  A    between atoms: C_1  and  C_2
REMARK    2  A    between atoms: C_2  and  C_3
REMARK    3  A    between atoms: C_3  and  C_4
REMARK    4  A    between atoms: C_4  and  S_5
REMARK    5  A    between atoms: S_5  and  C_6
REMARK    6  A    between atoms: C_10  and  C_16
REMARK    7  A    between atoms: C_11  and  C_15
REMARK    8  A    between atoms: C_16  and  C_17
REMARK    9  A    between atoms: N_21  and  C_24
REMARK   10  A    between atoms: C_24  and  C_25
REMARK   11  A    between atoms: C_28  and  C_32
REMARK   12  A    between atoms: C_30  and  C_31
REMARK                            x       y       z     vdW  Elec       q    Type
REMARK                         _______ _______ _______ _____ _____    ______ ____
ROOT
ATOM      1  C   UNL     1       2.391  -5.623   1.147  0.00  0.00    +0.191 A 
ATOM      2  N   UNL     1       2.947  -6.316   2.134  0.00  0.00    -0.206 NA
ATOM      3  C   UNL     1       2.312  -6.554   3.269  0.00  0.00    +0.134 A 
ATOM      4  C   UNL     1       0.992  -6.056   3.447  0.00  0.00    +0.051 A 
ATOM      5  C   UNL     1       0.098  -6.182   4.587  0.00  0.00    -0.025 A 
ATOM      6  C   UNL     1      -1.119  -5.622   4.529  0.00  0.00    -0.007 A 
ATOM      7  S   UNL     1      -1.156  -4.871   2.913  0.00  0.00    -0.073 S 
ATOM      8  C   UNL     1       0.464  -5.329   2.358  0.00  0.00    +0.115 A 
ATOM      9  N   UNL     1       1.165  -5.130   1.258  0.00  0.00    -0.215 NA
ATOM     10  C   UNL     1      -2.198  -5.627   5.581  0.00  0.00    +0.052 C 
ATOM     11  N   UNL     1       2.926  -7.280   4.274  0.00  0.00    -0.318 N 
ATOM     12  C   UNL     1       2.832  -8.747   4.312  0.00  0.00    +0.088 C 
ATOM     13  C   UNL     1       4.244  -9.321   4.472  0.00  0.00    -0.059 C 
ATOM     14  N   UNL     1       4.883  -8.724   5.651  0.00  0.00    +0.384 N 
ATOM     15  C   UNL     1       5.064  -7.281   5.446  0.00  0.00    -0.059 C 
ATOM     16  C   UNL     1       3.697  -6.607   5.331  0.00  0.00    +0.088 C 
ATOM     17  H   UNL     1       4.301  -8.877   6.461  0.00  0.00    -0.081 HD
ENDROOT
BRANCH   5  18
ATOM     18  C   UNL     1       0.535  -6.933   5.818  0.00  0.00    +0.033 C 
ATOM     19  C   UNL     1       1.081  -5.946   6.851  0.00  0.00    +0.009 C 
ENDBRANCH   5  18
BRANCH   1  20
ATOM     20  S   UNL     1       3.302  -5.348  -0.336  0.00  0.00    -0.086 S 
BRANCH  20  21
ATOM     21  C   UNL     1       2.174  -4.374  -1.370  0.00  0.00    +0.077 C 
BRANCH  21  22
ATOM     22  C   UNL     1       2.849  -4.061  -2.707  0.00  0.00    +0.011 C 
BRANCH  22  24
ATOM     23  C   UNL     1       2.573  -2.927  -4.916  0.00  0.00    +0.004 C 
ATOM     24  C   UNL     1       1.898  -3.240  -3.579  0.00  0.00    -0.003 C 
ENDBRANCH  22  24
ENDBRANCH  21  22
ENDBRANCH  20  21
ENDBRANCH   1  20
BRANCH  14  25
ATOM     25  C   UNL     1       6.192  -9.353   5.867  0.00  0.00    -0.043 C 
BRANCH  25  26
ATOM     26  C   UNL     1       6.796  -8.831   7.145  0.00  0.00    -0.061 A 
ATOM     27  C   UNL     1       7.755  -7.835   7.100  0.00  0.00    +0.002 A 
ATOM     28  C   UNL     1       8.308  -7.356   8.273  0.00  0.00    +0.003 A 
ATOM     29  C   UNL     1       7.904  -7.871   9.490  0.00  0.00    -0.050 A 
ATOM     30  C   UNL     1       6.945  -8.865   9.535  0.00  0.00    +0.007 A 
ATOM     31  C   UNL     1       6.388  -9.342   8.363  0.00  0.00    -0.049 A 
ATOM     32  C   UNL     1       5.338 -10.423   8.412  0.00  0.00    +0.044 C 
ATOM     33  C   UNL     1       8.508  -7.349  10.768  0.00  0.00    +0.044 C 
ENDBRANCH  25  26
ENDBRANCH  14  25
TORSDOF 7
