REMARK  Name = ZINC01816182
REMARK  8 active torsions:
REMARK  status: ('A' for Active; 'I' for Inactive)
REMARK    1  A    between atoms: N_9  and  C_19
REMARK    2  A    between atoms: C_10  and  C_12
REMARK    3  A    between atoms: C_19  and  C_20
REMARK    4  A    between atoms: C_20  and  O_21
REMARK    5  A    between atoms: O_21  and  C_22
REMARK    6  A    between atoms: C_22  and  C_23
REMARK    7  A    between atoms: C_23  and  O_24
REMARK    8  A    between atoms: O_24  and  C_25
REMARK                            x       y       z     vdW  Elec       q    Type
REMARK                         _______ _______ _______ _____ _____    ______ ____
ROOT
ATOM      1  C   UNL     1       0.231   1.371  -0.061  0.00  0.00    +0.001 A 
ATOM      2  C   UNL     1       1.450   2.035  -0.009  0.00  0.00    +0.002 A 
ATOM      3  C   UNL     1       2.627   1.343   0.017  0.00  0.00    +0.028 A 
ATOM      4  C   UNL     1       2.613  -0.055  -0.007  0.00  0.00    +0.079 A 
ATOM      5  C   UNL     1       1.373  -0.732  -0.059  0.00  0.00    +0.065 A 
ATOM      6  C   UNL     1       0.184  -0.006  -0.086  0.00  0.00    +0.015 A 
ATOM      7  C   UNL     1       1.385  -2.202  -0.084  0.00  0.00    +0.262 A 
ATOM      8  O   UNL     1       0.351  -2.842  -0.129  0.00  0.00    -0.267 OA
ATOM      9  N   UNL     1       2.591  -2.817  -0.054  0.00  0.00    -0.290 N 
ATOM     10  C   UNL     1       3.743  -2.081  -0.004  0.00  0.00    +0.144 A 
ATOM     11  N   UNL     1       3.753  -0.772   0.018  0.00  0.00    -0.229 NA
ENDROOT
BRANCH  10  12
ATOM     12  C   UNL     1       5.035  -2.796   0.026  0.00  0.00    +0.018 A 
ATOM     13  C   UNL     1       6.017  -2.511  -0.925  0.00  0.00    +0.013 A 
ATOM     14  C   UNL     1       7.221  -3.182  -0.891  0.00  0.00    +0.021 A 
ATOM     15  C   UNL     1       7.458  -4.136   0.084  0.00  0.00    +0.041 A 
ATOM     16  C   UNL     1       6.489  -4.423   1.031  0.00  0.00    +0.021 A 
ATOM     17  C   UNL     1       5.282  -3.755   1.010  0.00  0.00    +0.013 A 
ATOM     18 CL   UNL     1       8.977  -4.977   0.120  0.00  0.00    -0.084 Cl
ENDBRANCH  10  12
BRANCH   9  19
ATOM     19  C   UNL     1       2.663  -4.280  -0.076  0.00  0.00    +0.155 C 
BRANCH  19  20
ATOM     20  C   UNL     1       2.574  -4.774  -1.522  0.00  0.00    +0.181 C 
BRANCH  20  21
ATOM     21  O   UNL     1       3.733  -4.349  -2.242  0.00  0.00    -0.375 OA
BRANCH  21  22
ATOM     22  C   UNL     1       3.772  -4.801  -3.597  0.00  0.00    +0.201 C 
BRANCH  22  23
ATOM     23  C   UNL     1       5.115  -4.417  -4.223  0.00  0.00    +0.257 C 
BRANCH  23  24
ATOM     24  O   UNL     1       6.163  -5.154  -3.591  0.00  0.00    -0.489 OA
BRANCH  24  25
ATOM     25  C   UNL     1       7.436  -4.863  -3.969  0.00  0.00    +0.135 A 
ATOM     26  C   UNL     1       7.679  -3.811  -4.839  0.00  0.00    +0.048 A 
ATOM     27  C   UNL     1       8.974  -3.516  -5.221  0.00  0.00    +0.023 A 
ATOM     28  C   UNL     1      10.028  -4.270  -4.736  0.00  0.00    +0.042 A 
ATOM     29  C   UNL     1       9.789  -5.320  -3.868  0.00  0.00    +0.039 A 
ATOM     30  C   UNL     1       8.495  -5.615  -3.479  0.00  0.00    +0.061 A 
ATOM     31 BR   UNL     1       8.168  -7.046  -2.287  0.00  0.00    -0.046 Br
ATOM     32 CL   UNL     1      11.654  -3.898  -5.218  0.00  0.00    -0.084 Cl
ENDBRANCH  24  25
ENDBRANCH  23  24
ENDBRANCH  22  23
ENDBRANCH  21  22
ENDBRANCH  20  21
ENDBRANCH  19  20
ENDBRANCH   9  19
TORSDOF 8
