REMARK  Name = ZINC64480052
REMARK  10 active torsions:
REMARK  status: ('A' for Active; 'I' for Inactive)
REMARK    1  A    between atoms: C_1  and  C_2
REMARK    2  A    between atoms: C_2  and  C_4
REMARK    3  A    between atoms: C_2  and  N_20
REMARK    4  A    between atoms: N_6  and  C_7
REMARK    5  A    between atoms: C_7  and  C_8
REMARK    6  A    between atoms: C_8  and  C_9
REMARK    7  A    between atoms: C_12  and  O_18
REMARK    8  A    between atoms: O_18  and  C_19
REMARK    9  A    between atoms: C_21  and  C_23
REMARK   10  A    between atoms: C_23  and  C_24
REMARK                            x       y       z     vdW  Elec       q    Type
REMARK                         _______ _______ _______ _____ _____    ______ ____
ROOT
ATOM      1  C   UNL     1      -0.019   1.526   0.010  0.00  0.00    +0.038 C 
ATOM      2  C   UNL     1       0.002  -0.004   0.002  0.00  0.00    +0.156 C 
ENDROOT
BRANCH   2   3
ATOM      3  C   UNL     1       0.707  -0.490  -1.238  0.00  0.00    +0.233 C 
ATOM      4  O   UNL     1       0.120  -1.191  -2.034  0.00  0.00    -0.274 OA
ATOM      5  N   UNL     1       1.991  -0.146  -1.462  0.00  0.00    -0.313 N 
ATOM      6  H   UNL     1       2.461   0.415  -0.825  0.00  0.00    +0.149 HD
BRANCH   5   7
ATOM      7  C   UNL     1       2.677  -0.618  -2.667  0.00  0.00    +0.108 C 
BRANCH   7   8
ATOM      8  C   UNL     1       4.112  -0.089  -2.678  0.00  0.00    +0.052 C 
BRANCH   8   9
ATOM      9  C   UNL     1       4.818  -0.575  -3.918  0.00  0.00    -0.040 C 
ATOM     10  C   UNL     1       4.953   0.088  -5.088  0.00  0.00    +0.002 A 
ATOM     11  C   UNL     1       4.502   1.408  -5.543  0.00  0.00    +0.055 A 
ATOM     12  C   UNL     1       4.792   1.815  -6.802  0.00  0.00    +0.121 A 
ATOM     13  C   UNL     1       5.516   1.013  -7.702  0.00  0.00    +0.047 A 
ATOM     14  C   UNL     1       5.973  -0.215  -7.376  0.00  0.00    +0.029 A 
ATOM     15  C   UNL     1       5.716  -0.755  -6.037  0.00  0.00    +0.043 A 
ATOM     16  N   UNL     1       6.039  -1.893  -5.476  0.00  0.00    -0.380 N 
ATOM     17  C   UNL     1       5.523  -1.900  -4.102  0.00  0.00    +0.144 C 
ATOM     18  H   UNL     1       6.539  -2.611  -5.896  0.00  0.00    +0.160 HD
BRANCH  12  19
ATOM     19  O   UNL     1       4.368   3.040  -7.210  0.00  0.00    -0.495 OA
ATOM     20  C   UNL     1       4.695   3.429  -8.545  0.00  0.00    +0.277 C 
ENDBRANCH  12  19
ENDBRANCH   8   9
ENDBRANCH   7   8
ENDBRANCH   5   7
ENDBRANCH   2   3
BRANCH   2  21
ATOM     21  N   UNL     1      -1.372  -0.511   0.012  0.00  0.00    -0.304 N 
ATOM     22  C   UNL     1      -2.029  -0.655   1.181  0.00  0.00    +0.220 C 
ATOM     23  O   UNL     1      -1.481  -0.365   2.224  0.00  0.00    -0.275 OA
ATOM     24  H   UNL     1      -1.810  -0.743  -0.822  0.00  0.00    +0.149 HD
BRANCH  22  25
ATOM     25  C   UNL     1      -3.442  -1.177   1.191  0.00  0.00    +0.153 C 
BRANCH  25  26
ATOM     26  C   UNL     1      -3.943  -1.242   2.611  0.00  0.00    +0.078 A 
ATOM     27  C   UNL     1      -5.296  -1.725   2.888  0.00  0.00    +0.011 A 
ATOM     28  C   UNL     1      -6.155  -2.136   1.867  0.00  0.00    +0.010 A 
ATOM     29  C   UNL     1      -7.410  -2.580   2.177  0.00  0.00    +0.001 A 
ATOM     30  C   UNL     1      -7.845  -2.628   3.495  0.00  0.00    +0.001 A 
ATOM     31  C   UNL     1      -7.019  -2.229   4.524  0.00  0.00    +0.014 A 
ATOM     32  C   UNL     1      -5.734  -1.774   4.231  0.00  0.00    +0.050 A 
ATOM     33  C   UNL     1      -4.806  -1.336   5.281  0.00  0.00    +0.272 A 
ATOM     34  N   UNL     1      -3.578  -0.906   4.924  0.00  0.00    -0.242 N 
ATOM     35  N   UNL     1      -3.171  -0.874   3.590  0.00  0.00    -0.175 NA
ATOM     36  O   UNL     1      -5.139  -1.359   6.453  0.00  0.00    -0.266 OA
ATOM     37  H   UNL     1      -2.961  -0.616   5.613  0.00  0.00    +0.192 HD
ENDBRANCH  25  26
ENDBRANCH  22  25
ENDBRANCH   2  21
TORSDOF 8
