REMARK  Name = ZINC10251817
REMARK  5 active torsions:
REMARK  status: ('A' for Active; 'I' for Inactive)
REMARK    1  A    between atoms: C_3  and  N_15
REMARK    2  A    between atoms: C_6  and  C_7
REMARK    3  A    between atoms: N_15  and  S_16
REMARK    4  A    between atoms: S_16  and  C_19
REMARK    5  A    between atoms: C_21  and  C_26
REMARK                            x       y       z     vdW  Elec       q    Type
REMARK                         _______ _______ _______ _____ _____    ______ ____
ROOT
ATOM      1  N   UNL     1       0.045   4.476   5.292  0.00  0.00    -0.216 N 
ATOM      2  H   UNL     1       0.773   5.096   5.128  0.00  0.00    +0.174 HD
ENDROOT
BRANCH   1   5
ATOM      3  C   UNL     1      -2.586   6.431   6.951  0.00  0.00    +0.012 A 
ATOM      4  C   UNL     1      -1.339   5.952   6.606  0.00  0.00    +0.025 A 
ATOM      5  C   UNL     1      -1.218   4.959   5.641  0.00  0.00    +0.048 A 
ATOM      6  C   UNL     1      -2.352   4.449   5.019  0.00  0.00    +0.025 A 
ATOM      7  C   UNL     1      -3.601   4.920   5.367  0.00  0.00    +0.012 A 
ATOM      8  C   UNL     1      -3.725   5.917   6.333  0.00  0.00    +0.002 A 
BRANCH   8   9
ATOM      9  C   UNL     1      -5.066   6.430   6.703  0.00  0.00    +0.090 A 
ATOM     10  C   UNL     1      -6.245   6.021   6.184  0.00  0.00    +0.116 A 
ATOM     11  N   UNL     1      -7.255   6.756   6.806  0.00  0.00    -0.324 N 
ATOM     12  C   UNL     1      -6.619   7.580   7.678  0.00  0.00    +0.170 A 
ATOM     13  N   UNL     1      -5.327   7.388   7.625  0.00  0.00    -0.222 NA
ATOM     14  S   UNL     1      -7.877   8.537   8.492  0.00  0.00    -0.086 S 
ATOM     15  C   UNL     1      -9.357   7.845   7.665  0.00  0.00    +0.099 C 
ATOM     16  C   UNL     1      -8.713   6.818   6.720  0.00  0.00    +0.135 C 
ENDBRANCH   8   9
ENDBRANCH   1   5
BRANCH   1  17
ATOM     17  S   UNL     1       0.301   2.845   5.159  0.00  0.00    +0.074 S 
ATOM     18  O   UNL     1       1.688   2.671   4.904  0.00  0.00    -0.150 OA
ATOM     19  O   UNL     1      -0.703   2.347   4.285  0.00  0.00    -0.150 OA
BRANCH  17  20
ATOM     20  C   UNL     1      -0.013   2.138   6.742  0.00  0.00    +0.127 A 
ATOM     21  C   UNL     1      -1.064   1.256   6.909  0.00  0.00    +0.042 A 
ATOM     22  C   UNL     1      -1.310   0.700   8.150  0.00  0.00    +0.057 A 
ATOM     23  C   UNL     1      -0.508   1.030   9.227  0.00  0.00    +0.014 A 
ATOM     24  C   UNL     1       0.546   1.907   9.060  0.00  0.00    +0.022 A 
ATOM     25  C   UNL     1       0.793   2.464   7.817  0.00  0.00    +0.068 A 
ATOM     26 CL   UNL     1       2.114   3.571   7.608  0.00  0.00    -0.082 Cl
BRANCH  22  27
ATOM     27  C   UNL     1      -2.457  -0.261   8.332  0.00  0.00    +0.417 C 
ATOM     28  F   UNL     1      -2.012  -1.567   8.095  0.00  0.00    -0.166 F 
ATOM     29  F   UNL     1      -3.478   0.055   7.429  0.00  0.00    -0.166 F 
ATOM     30  F   UNL     1      -2.944  -0.164   9.639  0.00  0.00    -0.166 F 
ENDBRANCH  22  27
ENDBRANCH  17  20
ENDBRANCH   1  17
TORSDOF 5
