REMARK  Name = ZINC39769760
REMARK  7 active torsions:
REMARK  status: ('A' for Active; 'I' for Inactive)
REMARK    1  A    between atoms: C_1  and  N_2
REMARK    2  A    between atoms: N_2  and  C_22
REMARK    3  A    between atoms: C_3  and  C_5
REMARK    4  A    between atoms: C_5  and  S_6
REMARK    5  A    between atoms: S_6  and  C_7
REMARK    6  A    between atoms: C_11  and  C_13
REMARK    7  A    between atoms: C_22  and  C_29
REMARK                            x       y       z     vdW  Elec       q    Type
REMARK                         _______ _______ _______ _____ _____    ______ ____
ROOT
ATOM      1  C   UNL     1      -0.066   1.459   0.015  0.00  0.00    +0.133 C 
ATOM      2  N   UNL     1       0.002  -0.004   0.002  0.00  0.00    -0.287 N 
ATOM      3  C   UNL     1       0.168  -0.681   1.155  0.00  0.00    +0.226 C 
ATOM      4  O   UNL     1       0.225  -1.893   1.144  0.00  0.00    -0.275 OA
ENDROOT
BRANCH   2   5
ATOM      5  C   UNL     1      -0.111  -0.731  -1.265  0.00  0.00    +0.122 C 
ATOM      6  C   UNL     1       1.089  -1.671  -1.427  0.00  0.00    +0.038 C 
ATOM      7  C   UNL     1       2.369  -0.844  -1.551  0.00  0.00    +0.003 C 
ATOM      8  C   UNL     1       2.315   0.009  -2.820  0.00  0.00    +0.008 C 
ATOM      9  C   UNL     1       1.162   1.012  -2.710  0.00  0.00    +0.077 C 
ATOM     10  C   UNL     1      -0.111   0.250  -2.416  0.00  0.00    +0.161 C 
ATOM     11  O   UNL     1      -1.103   0.421  -3.083  0.00  0.00    -0.295 OA
BRANCH   5  12
ATOM     12  C   UNL     1      -1.389  -1.528  -1.279  0.00  0.00    +0.002 A 
ATOM     13  C   UNL     1      -2.243  -1.485  -0.192  0.00  0.00    +0.007 A 
ATOM     14  C   UNL     1      -3.416  -2.216  -0.205  0.00  0.00    +0.000 A 
ATOM     15  C   UNL     1      -3.736  -2.992  -1.304  0.00  0.00    +0.001 A 
ATOM     16  C   UNL     1      -2.883  -3.036  -2.390  0.00  0.00    +0.020 A 
ATOM     17  C   UNL     1      -1.712  -2.300  -2.381  0.00  0.00    +0.047 A 
ATOM     18 CL   UNL     1      -0.643  -2.350  -3.748  0.00  0.00    -0.083 Cl
ENDBRANCH   5  12
ENDBRANCH   2   5
BRANCH   3  19
ATOM     19  C   UNL     1       0.284   0.067   2.458  0.00  0.00    +0.170 C 
BRANCH  19  20
ATOM     20  S   UNL     1       0.499  -1.116   3.817  0.00  0.00    -0.087 S 
BRANCH  20  21
ATOM     21  C   UNL     1       0.621  -0.070   5.294  0.00  0.00    +0.339 C 
ATOM     22  N   UNL     1      -0.586   0.763   5.436  0.00  0.00    -0.219 N 
ATOM     23  N   UNL     1      -0.137   2.090   5.368  0.00  0.00    -0.145 NA
ATOM     24  C   UNL     1       1.159   2.118   5.207  0.00  0.00    +0.238 C 
ATOM     25  O   UNL     1       1.694   0.871   5.154  0.00  0.00    -0.443 OA
ATOM     26  H   UNL     1      -1.500   0.458   5.551  0.00  0.00    +0.173 HD
BRANCH  24  27
ATOM     27  C   UNL     1       1.910   3.297   5.104  0.00  0.00    +0.043 C 
ATOM     28  C   UNL     1       1.435   4.608   5.156  0.00  0.00    +0.008 A 
ATOM     29  C   UNL     1       0.140   5.147   5.318  0.00  0.00    +0.010 A 
ATOM     30  C   UNL     1      -0.032   6.494   5.332  0.00  0.00    +0.001 A 
ATOM     31  C   UNL     1       1.046   7.370   5.189  0.00  0.00    +0.002 A 
ATOM     32  C   UNL     1       2.315   6.923   5.030  0.00  0.00    +0.026 A 
ATOM     33  C   UNL     1       2.574   5.528   5.005  0.00  0.00    +0.043 A 
ATOM     34  N   UNL     1       3.697   4.851   4.866  0.00  0.00    -0.380 N 
ATOM     35  C   UNL     1       3.407   3.415   4.917  0.00  0.00    +0.154 C 
ATOM     36  H   UNL     1       4.577   5.242   4.751  0.00  0.00    +0.160 HD
ENDBRANCH  24  27
ENDBRANCH  20  21
ENDBRANCH  19  20
ENDBRANCH   3  19
TORSDOF 6
