REMARK  Name = ZINC03012321
REMARK  11 active torsions:
REMARK  status: ('A' for Active; 'I' for Inactive)
REMARK    1  A    between atoms: C_1  and  C_2
REMARK    2  A    between atoms: C_2  and  C_3
REMARK    3  A    between atoms: C_2  and  C_4
REMARK    4  A    between atoms: C_2  and  C_5
REMARK    5  A    between atoms: C_5  and  C_6
REMARK    6  A    between atoms: C_6  and  C_7
REMARK    7  A    between atoms: C_6  and  C_8
REMARK    8  A    between atoms: C_6  and  N_9
REMARK    9  A    between atoms: C_10  and  C_12
REMARK   10  A    between atoms: C_17  and  C_32
REMARK   11  A    between atoms: C_20  and  C_23
REMARK                            x       y       z     vdW  Elec       q    Type
REMARK                         _______ _______ _______ _____ _____    ______ ____
ROOT
ATOM      1  C   UNL     1       5.345  -0.473  -4.241  0.00  0.00    +0.149 A 
ATOM      2  C   UNL     1       6.717  -0.232  -4.477  0.00  0.00    +0.078 A 
ATOM      3  C   UNL     1       6.997  -0.658  -5.724  0.00  0.00    +0.119 A 
ATOM      4  N   UNL     1       5.848  -1.153  -6.273  0.00  0.00    -0.238 N 
ATOM      5  N   UNL     1       4.833  -1.031  -5.324  0.00  0.00    -0.164 NA
ATOM      6  C   UNL     1       5.765  -1.704  -7.628  0.00  0.00    +0.215 C 
ATOM      7  C   UNL     1       6.964  -1.203  -8.441  0.00  0.00    +0.063 C 
ATOM      8  C   UNL     1       8.261  -1.438  -7.658  0.00  0.00    +0.104 C 
ATOM      9  N   UNL     1       8.211  -0.640  -6.417  0.00  0.00    -0.322 N 
ATOM     10  H   UNL     1       8.976  -0.134  -6.101  0.00  0.00    +0.148 HD
ENDROOT
BRANCH   8  11
ATOM     11  C   UNL     1       8.389  -2.901  -7.320  0.00  0.00    -0.024 A 
ATOM     12  C   UNL     1       7.685  -3.426  -6.253  0.00  0.00    +0.009 A 
ATOM     13  C   UNL     1       7.800  -4.768  -5.939  0.00  0.00    +0.050 A 
ATOM     14  C   UNL     1       8.621  -5.589  -6.694  0.00  0.00    +0.166 A 
ATOM     15  C   UNL     1       9.331  -5.059  -7.769  0.00  0.00    +0.167 A 
ATOM     16  C   UNL     1       9.207  -3.715  -8.081  0.00  0.00    +0.055 A 
ATOM     17  O   UNL     1      10.059  -6.059  -8.345  0.00  0.00    -0.453 OA
ATOM     18  C   UNL     1      10.107  -7.114  -7.367  0.00  0.00    +0.466 C 
ATOM     19  O   UNL     1       8.905  -6.921  -6.597  0.00  0.00    -0.453 OA
ENDBRANCH   8  11
BRANCH   1  21
ATOM     20  N   UNL     1       3.297  -0.447  -2.900  0.00  0.00    -0.305 N 
ATOM     21  C   UNL     1       4.611  -0.160  -2.998  0.00  0.00    +0.265 C 
ATOM     22  O   UNL     1       5.191   0.356  -2.063  0.00  0.00    -0.268 OA
ATOM     23  H   UNL     1       2.834  -0.859  -3.647  0.00  0.00    +0.150 HD
BRANCH  20  24
ATOM     24  C   UNL     1       2.570  -0.137  -1.667  0.00  0.00    +0.030 C 
ATOM     25  C   UNL     1       2.773   1.337  -1.312  0.00  0.00    +0.031 C 
ATOM     26  C   UNL     1       3.097  -1.014  -0.530  0.00  0.00    +0.031 C 
BRANCH  24  27
ATOM     27  C   UNL     1       1.078  -0.411  -1.873  0.00  0.00    +0.031 C 
BRANCH  27  29
ATOM     28  C   UNL     1       1.013  -0.865  -4.329  0.00  0.00    +0.010 C 
ATOM     29  C   UNL     1       0.642   0.136  -3.233  0.00  0.00    -0.036 C 
ATOM     30  C   UNL     1       1.348   1.467  -3.498  0.00  0.00    +0.010 C 
ATOM     31  C   UNL     1      -0.873   0.353  -3.233  0.00  0.00    +0.010 C 
ENDBRANCH  27  29
ENDBRANCH  24  27
ENDBRANCH  20  24
ENDBRANCH   1  21
BRANCH   6  32
ATOM     32  C   UNL     1       4.465  -1.243  -8.291  0.00  0.00    +0.412 C 
ATOM     33  F   UNL     1       4.444   0.154  -8.354  0.00  0.00    -0.168 F 
ATOM     34  F   UNL     1       4.389  -1.770  -9.584  0.00  0.00    -0.168 F 
ATOM     35  F   UNL     1       3.374  -1.692  -7.539  0.00  0.00    -0.168 F 
ENDBRANCH   6  32
TORSDOF 6
