REMARK  Name = ZINC00830700
REMARK  7 active torsions:
REMARK  status: ('A' for Active; 'I' for Inactive)
REMARK    1  A    between atoms: C_1  and  C_2
REMARK    2  A    between atoms: C_5  and  N_8
REMARK    3  A    between atoms: C_9  and  O_36
REMARK    4  A    between atoms: C_10  and  C_14
REMARK    5  A    between atoms: C_11  and  C_13
REMARK    6  A    between atoms: N_18  and  C_30
REMARK    7  A    between atoms: N_21  and  C_24
REMARK                            x       y       z     vdW  Elec       q    Type
REMARK                         _______ _______ _______ _____ _____    ______ ____
ROOT
ATOM      1  C   UNL     1       1.815   0.843  -1.277  0.00  0.00    +0.033 C 
ATOM      2  C   UNL     1       0.881   1.724  -0.750  0.00  0.00    +0.101 C 
ATOM      3  C   UNL     1      -0.427   1.255  -0.261  0.00  0.00    +0.262 C 
ATOM      4  O   UNL     1      -0.725   0.076  -0.305  0.00  0.00    -0.269 OA
ATOM      5  N   UNL     1      -1.288   2.169   0.233  0.00  0.00    -0.217 N 
ATOM      6  C   UNL     1      -0.970   3.470   0.294  0.00  0.00    +0.158 C 
ATOM      7  S   UNL     1      -2.122   4.557   0.944  0.00  0.00    -0.017 S 
ATOM      8  N   UNL     1       0.200   3.965  -0.132  0.00  0.00    -0.217 N 
ATOM      9  C   UNL     1       1.155   3.168  -0.655  0.00  0.00    +0.262 C 
ATOM     10  O   UNL     1       2.213   3.630  -1.039  0.00  0.00    -0.269 OA
ENDROOT
BRANCH   1  13
ATOM     11  N   UNL     1       5.110   2.188  -1.690  0.00  0.00    -0.200 N 
ATOM     12  C   UNL     1       4.075   1.875  -0.886  0.00  0.00    +0.223 A 
ATOM     13  C   UNL     1       3.076   1.318  -1.694  0.00  0.00    +0.060 A 
ATOM     14  C   UNL     1       3.603   1.335  -3.060  0.00  0.00    +0.071 A 
ATOM     15  N   UNL     1       4.797   1.853  -3.009  0.00  0.00    -0.168 NA
ATOM     16  C   UNL     1       2.895   0.843  -4.296  0.00  0.00    +0.068 C 
BRANCH  11  21
ATOM     17  C   UNL     1       9.987   4.533   0.021  0.00  0.00    +0.044 C 
ATOM     18  C   UNL     1       8.692   3.910  -0.433  0.00  0.00    -0.050 A 
ATOM     19  C   UNL     1       8.692   2.998  -1.472  0.00  0.00    +0.005 A 
ATOM     20  C   UNL     1       7.507   2.426  -1.891  0.00  0.00    +0.028 A 
ATOM     21  C   UNL     1       6.314   2.767  -1.267  0.00  0.00    +0.069 A 
ATOM     22  C   UNL     1       6.317   3.688  -0.228  0.00  0.00    +0.028 A 
ATOM     23  C   UNL     1       7.506   4.253   0.190  0.00  0.00    +0.005 A 
ENDBRANCH  11  21
BRANCH  12  24
ATOM     24  O   UNL     1       4.015   2.060   0.452  0.00  0.00    -0.492 OA
ATOM     25  H   UNL     1       4.409   1.342   0.967  0.00  0.00    +0.294 HD
ENDBRANCH  12  24
ENDBRANCH   1  13
BRANCH   8  26
ATOM     26  C   UNL     1       0.438   5.343  -0.032  0.00  0.00    +0.043 A 
ATOM     27  C   UNL     1      -0.054   6.206  -1.002  0.00  0.00    +0.024 A 
ATOM     28  C   UNL     1       0.177   7.563  -0.898  0.00  0.00    +0.002 A 
ATOM     29  C   UNL     1       0.907   8.062   0.166  0.00  0.00    +0.000 A 
ATOM     30  C   UNL     1       1.403   7.204   1.130  0.00  0.00    +0.002 A 
ATOM     31  C   UNL     1       1.170   5.846   1.034  0.00  0.00    +0.024 A 
ENDBRANCH   8  26
BRANCH   5  32
ATOM     32  C   UNL     1      -2.540   1.748   0.699  0.00  0.00    +0.043 A 
ATOM     33  C   UNL     1      -2.666   1.222   1.978  0.00  0.00    +0.024 A 
ATOM     34  C   UNL     1      -3.903   0.812   2.436  0.00  0.00    +0.002 A 
ATOM     35  C   UNL     1      -5.014   0.916   1.618  0.00  0.00    +0.000 A 
ATOM     36  C   UNL     1      -4.891   1.435   0.343  0.00  0.00    +0.002 A 
ATOM     37  C   UNL     1      -3.657   1.852  -0.119  0.00  0.00    +0.024 A 
ENDBRANCH   5  32
TORSDOF 5
