REMARK  Name = ZINC39928248
REMARK  18 active torsions:
REMARK  status: ('A' for Active; 'I' for Inactive)
REMARK    1  A    between atoms: C_1  and  C_2
REMARK    2  A    between atoms: C_2  and  O_3
REMARK    3  A    between atoms: O_3  and  C_4
REMARK    4  A    between atoms: C_6  and  C_16
REMARK    5  A    between atoms: C_8  and  O_13
REMARK    6  A    between atoms: C_9  and  O_10
REMARK    7  A    between atoms: O_10  and  C_11
REMARK    8  A    between atoms: C_11  and  C_12
REMARK    9  A    between atoms: O_13  and  C_14
REMARK   10  A    between atoms: C_14  and  C_15
REMARK   11  A    between atoms: N_18  and  C_19
REMARK   12  A    between atoms: N_18  and  C_34
REMARK   13  A    between atoms: C_19  and  C_20
REMARK   14  A    between atoms: C_26  and  O_32
REMARK   15  A    between atoms: O_32  and  C_33
REMARK   16  A    between atoms: C_34  and  C_35
REMARK   17  A    between atoms: C_34  and  C_36
REMARK   18  A    between atoms: C_34  and  C_37
REMARK                            x       y       z     vdW  Elec       q    Type
REMARK                         _______ _______ _______ _____ _____    ______ ____
ROOT
ATOM      1  C   UNL     1      -1.889  -4.539   1.234  0.00  0.00    +0.247 C 
ATOM      2  O   UNL     1      -1.745  -3.698   2.100  0.00  0.00    -0.270 OA
ATOM      3  N   UNL     1      -1.129  -5.652   1.244  0.00  0.00    -0.291 N 
ENDROOT
BRANCH   1   6
ATOM      4  C   UNL     1      -4.438  -2.910  -0.993  0.00  0.00    +0.166 A 
ATOM      5  C   UNL     1      -3.497  -3.092   0.002  0.00  0.00    +0.062 A 
ATOM      6  C   UNL     1      -2.895  -4.342   0.172  0.00  0.00    +0.044 A 
ATOM      7  C   UNL     1      -3.248  -5.404  -0.664  0.00  0.00    +0.062 A 
ATOM      8  C   UNL     1      -4.190  -5.216  -1.658  0.00  0.00    +0.166 A 
ATOM      9  C   UNL     1      -4.792  -3.971  -1.822  0.00  0.00    +0.204 A 
BRANCH   4  10
ATOM     10  O   UNL     1      -5.024  -1.694  -1.160  0.00  0.00    -0.488 OA
BRANCH  10  12
ATOM     11  C   UNL     1      -5.377   0.633  -0.612  0.00  0.00    +0.048 C 
ATOM     12  C   UNL     1      -4.615  -0.650  -0.274  0.00  0.00    +0.226 C 
ENDBRANCH  10  12
ENDBRANCH   4  10
BRANCH   9  13
ATOM     13  O   UNL     1      -5.721  -3.791  -2.796  0.00  0.00    -0.485 OA
BRANCH  13  14
ATOM     14  C   UNL     1      -5.246  -3.374  -4.078  0.00  0.00    +0.226 C 
ATOM     15  C   UNL     1      -6.429  -3.224  -5.037  0.00  0.00    +0.048 C 
ENDBRANCH  13  14
ENDBRANCH   9  13
BRANCH   8  16
ATOM     16  O   UNL     1      -4.533  -6.250  -2.473  0.00  0.00    -0.488 OA
BRANCH  16  17
ATOM     17  C   UNL     1      -4.102  -7.555  -2.081  0.00  0.00    +0.226 C 
ATOM     18  C   UNL     1      -4.704  -8.596  -3.028  0.00  0.00    +0.048 C 
ENDBRANCH  16  17
ENDBRANCH   8  16
ENDBRANCH   1   6
BRANCH   3  19
ATOM     19  C   UNL     1      -1.174  -6.580   0.111  0.00  0.00    +0.029 C 
ATOM     20  C   UNL     1      -1.390  -5.794  -1.184  0.00  0.00    +0.031 C 
ATOM     21  C   UNL     1       0.147  -7.347   0.027  0.00  0.00    +0.031 C 
ATOM     22  C   UNL     1      -2.326  -7.567   0.306  0.00  0.00    +0.031 C 
ENDBRANCH   3  19
BRANCH   3  23
ATOM     23  C   UNL     1      -0.257  -5.934   2.387  0.00  0.00    +0.125 C 
BRANCH  23  24
ATOM     24  C   UNL     1      -1.113  -6.196   3.628  0.00  0.00    +0.116 C 
ATOM     25  C   UNL     1      -0.190  -6.235   4.830  0.00  0.00    -0.003 C 
ATOM     26  C   UNL     1      -0.188  -7.371   5.580  0.00  0.00    -0.007 A 
ATOM     27  C   UNL     1       0.676  -7.488   6.757  0.00  0.00    +0.013 A 
ATOM     28  C   UNL     1       0.651  -8.633   7.480  0.00  0.00    +0.046 A 
ATOM     29  C   UNL     1      -0.183  -9.703   7.122  0.00  0.00    +0.122 A 
ATOM     30  C   UNL     1      -1.017  -9.651   6.027  0.00  0.00    +0.069 A 
ATOM     31  C   UNL     1      -1.057  -8.506   5.220  0.00  0.00    +0.044 A 
ATOM     32  N   UNL     1      -1.869  -8.467   4.160  0.00  0.00    -0.284 N 
ATOM     33  C   UNL     1      -1.958  -7.421   3.359  0.00  0.00    +0.226 C 
ATOM     34  O   UNL     1      -2.716  -7.443   2.408  0.00  0.00    -0.275 OA
ATOM     35  H   UNL     1      -2.419  -9.243   3.970  0.00  0.00    +0.155 HD
BRANCH  29  36
ATOM     36  O   UNL     1      -0.169 -10.825   7.880  0.00  0.00    -0.495 OA
ATOM     37  C   UNL     1       0.710 -10.835   9.007  0.00  0.00    +0.277 C 
ENDBRANCH  29  36
ENDBRANCH  23  24
ENDBRANCH   3  23
TORSDOF 11
