REMARK  Name = ZINC65006668
REMARK  4 active torsions:
REMARK  status: ('A' for Active; 'I' for Inactive)
REMARK    1  A    between atoms: C_9  and  C_12
REMARK    2  A    between atoms: N_14  and  C_15
REMARK    3  A    between atoms: C_15  and  C_16
REMARK    4  A    between atoms: C_18  and  C_21
REMARK                            x       y       z     vdW  Elec       q    Type
REMARK                         _______ _______ _______ _____ _____    ______ ____
ROOT
ATOM      1  C   UNL     1       6.001   0.842  -0.053  0.00  0.00    +0.262 C 
ATOM      2  O   UNL     1       6.657  -0.182  -0.065  0.00  0.00    -0.269 OA
ATOM      3  N   UNL     1       6.621   2.039  -0.052  0.00  0.00    -0.301 N 
ATOM      4  H   UNL     1       6.098   2.856  -0.043  0.00  0.00    +0.150 HD
ENDROOT
BRANCH   1  13
ATOM      5  C   UNL     1      -0.017   1.385   0.010  0.00  0.00    +0.017 A 
ATOM      6  C   UNL     1       1.157   2.105   0.002  0.00  0.00    +0.027 A 
ATOM      7  C   UNL     1       2.379   1.436  -0.013  0.00  0.00    +0.049 A 
ATOM      8  C   UNL     1       2.394   0.028  -0.021  0.00  0.00    +0.020 A 
ATOM      9  C   UNL     1       1.188  -0.682  -0.013  0.00  0.00    +0.026 A 
ATOM     10  C   UNL     1       0.002  -0.004   0.002  0.00  0.00    +0.019 A 
ATOM     11 BR   UNL     1      -1.627  -0.964   0.013  0.00  0.00    -0.050 Br
ATOM     12  C   UNL     1       3.799  -0.370  -0.037  0.00  0.00    +0.078 A 
ATOM     13  C   UNL     1       4.534   0.775  -0.038  0.00  0.00    +0.121 A 
ATOM     14  N   UNL     1       3.685   1.865  -0.024  0.00  0.00    -0.349 N 
ATOM     15  H   UNL     1       3.967   2.793  -0.022  0.00  0.00    +0.166 HD
ATOM     16 CL   UNL     1       4.413  -1.994  -0.051  0.00  0.00    -0.081 Cl
ENDBRANCH   1  13
BRANCH   3  17
ATOM     17  C   UNL     1       8.085   2.106  -0.067  0.00  0.00    +0.203 C 
BRANCH  17  18
ATOM     18  C   UNL     1       8.522   3.548  -0.064  0.00  0.00    +0.245 A 
ATOM     19  N   UNL     1       8.759   4.272   0.995  0.00  0.00    -0.194 NA
ATOM     20  C   UNL     1       9.127   5.507   0.633  0.00  0.00    +0.175 A 
ATOM     21  N   UNL     1       9.128   5.583  -0.667  0.00  0.00    -0.061 NA
ATOM     22  O   UNL     1       8.739   4.305  -1.147  0.00  0.00    -0.336 OA
BRANCH  20  23
ATOM     23  C   UNL     1       9.482   6.627   1.577  0.00  0.00    +0.060 C 
ATOM     24  C   UNL     1      10.070   7.902   0.970  0.00  0.00    +0.012 C 
ATOM     25  C   UNL     1       8.638   7.902   1.509  0.00  0.00    +0.012 C 
ENDBRANCH  20  23
ENDBRANCH  17  18
ENDBRANCH   3  17
TORSDOF 4
