REMARK  Name = ZINC43867196
REMARK  11 active torsions:
REMARK  status: ('A' for Active; 'I' for Inactive)
REMARK    1  A    between atoms: C_1  and  C_2
REMARK    2  A    between atoms: C_2  and  C_4
REMARK    3  A    between atoms: C_8  and  C_37
REMARK    4  A    between atoms: C_17  and  C_36
REMARK    5  A    between atoms: N_21  and  O_22
REMARK    6  A    between atoms: C_23  and  C_34
REMARK    7  A    between atoms: C_23  and  C_35
REMARK    8  A    between atoms: C_28  and  C_33
REMARK    9  A    between atoms: C_29  and  C_32
REMARK   10  A    between atoms: C_37  and  O_39
REMARK   11  A    between atoms: O_39  and  C_40
REMARK                            x       y       z     vdW  Elec       q    Type
REMARK                         _______ _______ _______ _____ _____    ______ ____
ROOT
ATOM      1  C   UNL     1       0.075  -0.511  -0.745  0.00  0.00    +0.019 C 
ATOM      2  C   UNL     1       1.387  -0.207  -1.513  0.00  0.00    +0.009 C 
ATOM      3  C   UNL     1       0.977   0.063  -2.988  0.00  0.00    +0.019 C 
ATOM      4  C   UNL     1      -0.467   0.577  -2.845  0.00  0.00    +0.071 C 
ATOM      5  C   UNL     1      -1.018  -0.420  -1.801  0.00  0.00    +0.017 C 
ATOM      6  C   UNL     1      -2.416  -0.036  -1.400  0.00  0.00    +0.000 C 
ATOM      7  C   UNL     1      -2.976  -0.995  -0.346  0.00  0.00    +0.005 C 
ATOM      8  C   UNL     1      -4.350  -0.505   0.093  0.00  0.00    +0.005 C 
ATOM      9  C   UNL     1      -5.329  -0.408  -1.072  0.00  0.00    +0.002 C 
ATOM     10  C   UNL     1      -6.117  -1.701  -1.235  0.00  0.00    -0.025 C 
ATOM     11  C   UNL     1      -5.214  -2.895  -0.947  0.00  0.00    +0.013 C 
ATOM     12  C   UNL     1      -5.994  -4.213  -1.013  0.00  0.00    +0.055 C 
ATOM     13  C   UNL     1      -6.582  -4.281  -2.404  0.00  0.00    +0.063 C 
ATOM     14  N   UNL     1      -6.299  -5.245  -3.195  0.00  0.00    -0.096 NA
ATOM     15  C   UNL     1      -7.505  -3.163  -2.829  0.00  0.00    +0.010 C 
ATOM     16  C   UNL     1      -6.919  -1.791  -2.515  0.00  0.00    +0.007 C 
ATOM     17  C   UNL     1      -6.227  -1.214  -3.736  0.00  0.00    +0.005 C 
ATOM     18  C   UNL     1      -5.672   0.178  -3.496  0.00  0.00    +0.008 C 
ATOM     19  C   UNL     1      -4.754   0.280  -2.283  0.00  0.00    -0.023 C 
ATOM     20  C   UNL     1      -3.321  -0.093  -2.642  0.00  0.00    -0.023 C 
ATOM     21  C   UNL     1      -2.771   0.829  -3.735  0.00  0.00    +0.008 C 
ATOM     22  C   UNL     1      -1.319   0.472  -4.095  0.00  0.00    +0.019 C 
ATOM     23  C   UNL     1      -3.274  -1.507  -3.233  0.00  0.00    +0.012 C 
ATOM     24  C   UNL     1      -4.755   1.801  -1.918  0.00  0.00    +0.012 C 
ATOM     25  C   UNL     1      -8.863  -3.338  -2.132  0.00  0.00    +0.017 C 
ATOM     26  C   UNL     1      -7.757  -3.327  -4.338  0.00  0.00    +0.017 C 
ATOM     27  C   UNL     1      -7.158  -1.656  -0.067  0.00  0.00    +0.012 C 
ENDROOT
BRANCH   1  29
ATOM     28  C   UNL     1      -0.914   0.037   1.601  0.00  0.00    +0.039 C 
ATOM     29  C   UNL     1      -0.103   0.445   0.398  0.00  0.00    -0.076 C 
ATOM     30  C   UNL     1       0.445   1.633   0.350  0.00  0.00    +0.007 C 
ENDBRANCH   1  29
BRANCH  14  31
ATOM     31  O   UNL     1      -5.421  -6.273  -2.773  0.00  0.00    -0.409 OA
ATOM     32  H   UNL     1      -5.268  -6.957  -3.439  0.00  0.00    +0.328 HD
ENDBRANCH  14  31
BRANCH   4  33
ATOM     33  C   UNL     1      -0.439   2.002  -2.362  0.00  0.00    +0.313 C 
ATOM     34  O   UNL     1      -1.206   2.363  -1.501  0.00  0.00    -0.250 OA
BRANCH  33  35
ATOM     35  O   UNL     1       0.438   2.872  -2.887  0.00  0.00    -0.468 OA
ATOM     36  C   UNL     1       0.408   4.208  -2.381  0.00  0.00    +0.280 C 
ENDBRANCH  33  35
ENDBRANCH   4  33
TORSDOF 4
