REMARK  Name = ZINC36369655
REMARK  12 active torsions:
REMARK  status: ('A' for Active; 'I' for Inactive)
REMARK    1  A    between atoms: C_1  and  C_2
REMARK    2  A    between atoms: N_9  and  C_10
REMARK    3  A    between atoms: C_15  and  O_16
REMARK    4  A    between atoms: O_16  and  C_17
REMARK    5  A    between atoms: N_18  and  C_39
REMARK    6  A    between atoms: N_21  and  C_24
REMARK    7  A    between atoms: C_24  and  C_25
REMARK    8  A    between atoms: C_25  and  C_27
REMARK    9  A    between atoms: C_25  and  C_28
REMARK   10  A    between atoms: C_28  and  N_29
REMARK   11  A    between atoms: C_30  and  C_38
REMARK   12  A    between atoms: C_35  and  C_37
REMARK                            x       y       z     vdW  Elec       q    Type
REMARK                         _______ _______ _______ _____ _____    ______ ____
ROOT
ATOM      1  C   UNL     1      -0.965  -1.183   2.836  0.00  0.00    +0.065 C 
ATOM      2  C   UNL     1      -1.047  -2.560   2.229  0.00  0.00    +0.041 A 
ATOM      3  C   UNL     1      -0.645  -2.899   1.008  0.00  0.00    +0.116 A 
ATOM      4  N   UNL     1      -0.889  -4.249   0.827  0.00  0.00    -0.277 N 
ATOM      5  C   UNL     1      -0.788  -5.311  -0.059  0.00  0.00    +0.157 A 
ATOM      6  C   UNL     1      -1.307  -6.424   0.602  0.00  0.00    +0.170 A 
ATOM      7  N   UNL     1      -1.691  -6.027   1.812  0.00  0.00    -0.193 NA
ATOM      8  C   UNL     1      -1.449  -4.733   1.961  0.00  0.00    +0.223 A 
ATOM      9  N   UNL     1      -1.548  -3.691   2.848  0.00  0.00    -0.279 N 
ATOM     10  N   UNL     1      -1.330  -7.642  -0.060  0.00  0.00    -0.279 N 
ATOM     11  C   UNL     1      -0.856  -7.735  -1.317  0.00  0.00    +0.333 A 
ATOM     12  O   UNL     1      -0.883  -8.811  -1.883  0.00  0.00    -0.246 OA
ATOM     13  N   UNL     1      -0.354  -6.668  -1.962  0.00  0.00    -0.259 N 
ATOM     14  C   UNL     1      -0.305  -5.457  -1.370  0.00  0.00    +0.283 A 
ATOM     15  O   UNL     1       0.153  -4.498  -1.967  0.00  0.00    -0.265 OA
ATOM     16  C   UNL     1      -1.870  -8.829   0.608  0.00  0.00    +0.155 C 
ENDROOT
BRANCH   9  17
ATOM     17  C   UNL     1      -2.068  -3.760   4.148  0.00  0.00    +0.091 A 
ATOM     18  C   UNL     1      -3.421  -3.547   4.369  0.00  0.00    +0.030 A 
ATOM     19  C   UNL     1      -3.930  -3.615   5.652  0.00  0.00    +0.002 A 
ATOM     20  C   UNL     1      -3.095  -3.894   6.717  0.00  0.00    +0.004 A 
ATOM     21  C   UNL     1      -1.745  -4.107   6.505  0.00  0.00    +0.048 A 
ATOM     22  C   UNL     1      -1.227  -4.047   5.222  0.00  0.00    +0.144 A 
BRANCH  22  23
ATOM     23  O   UNL     1       0.098  -4.262   5.011  0.00  0.00    -0.493 OA
ATOM     24  C   UNL     1       0.899  -4.552   6.158  0.00  0.00    +0.277 C 
ENDBRANCH  22  23
ENDBRANCH   9  17
BRANCH  13  25
ATOM     25  C   UNL     1       0.149  -6.823  -3.329  0.00  0.00    +0.131 C 
BRANCH  25  26
ATOM     26  C   UNL     1      -0.988  -6.572  -4.322  0.00  0.00    -0.011 C 
ATOM     27  C   UNL     1      -1.441  -5.114  -4.220  0.00  0.00    +0.007 C 
BRANCH  26  28
ATOM     28  C   UNL     1      -0.495  -6.855  -5.743  0.00  0.00    -0.073 C 
BRANCH  28  29
ATOM     29  N   UNL     1      -1.632  -6.814  -6.672  0.00  0.00    +0.383 N 
ATOM     30  C   UNL     1      -2.777  -7.509  -6.073  0.00  0.00    -0.071 C 
ATOM     31  C   UNL     1      -3.938  -7.540  -7.070  0.00  0.00    -0.016 C 
ATOM     32  C   UNL     1      -4.338  -6.104  -7.423  0.00  0.00    -0.003 C 
ATOM     33  C   UNL     1      -3.117  -5.366  -7.977  0.00  0.00    -0.016 C 
ATOM     34  C   UNL     1      -1.986  -5.416  -6.947  0.00  0.00    -0.071 C 
ATOM     35  C   UNL     1      -0.763  -4.679  -7.497  0.00  0.00    -0.013 C 
ATOM     36  C   UNL     1      -2.374  -8.942  -5.718  0.00  0.00    -0.013 C 
ATOM     37  H   UNL     1      -1.377  -7.271  -7.535  0.00  0.00    -0.081 HD
ENDBRANCH  28  29
ENDBRANCH  26  28
ENDBRANCH  25  26
ENDBRANCH  13  25
TORSDOF 6
