REMARK  Name = ZINC06177556
REMARK  9 active torsions:
REMARK  status: ('A' for Active; 'I' for Inactive)
REMARK    1  A    between atoms: C_1  and  C_2
REMARK    2  A    between atoms: C_3  and  C_9
REMARK    3  A    between atoms: C_4  and  O_8
REMARK    4  A    between atoms: C_9  and  C_10
REMARK    5  A    between atoms: C_9  and  C_27
REMARK    6  A    between atoms: N_12  and  C_19
REMARK    7  A    between atoms: C_19  and  C_20
REMARK    8  A    between atoms: C_28  and  C_34
REMARK    9  A    between atoms: C_32  and  O_33
REMARK                            x       y       z     vdW  Elec       q    Type
REMARK                         _______ _______ _______ _____ _____    ______ ____
ROOT
ATOM      1  C   UNL     1      -0.011  -0.350  -2.548  0.00  0.00    +0.095 C 
ENDROOT
BRANCH   1   2
ATOM      2  C   UNL     1      -1.056  -1.032  -3.392  0.00  0.00    -0.010 A 
ATOM      3  C   UNL     1      -1.225  -2.356  -3.538  0.00  0.00    +0.091 A 
ATOM      4  N   UNL     1      -2.274  -2.602  -4.382  0.00  0.00    -0.342 N 
ATOM      5  C   UNL     1      -2.820  -1.413  -4.809  0.00  0.00    +0.050 A 
ATOM      6  C   UNL     1      -2.085  -0.377  -4.203  0.00  0.00    +0.004 A 
ATOM      7  C   UNL     1      -2.421   0.954  -4.452  0.00  0.00    +0.010 A 
ATOM      8  C   UNL     1      -3.467   1.246  -5.283  0.00  0.00    +0.001 A 
ATOM      9  C   UNL     1      -4.198   0.228  -5.880  0.00  0.00    +0.002 A 
ATOM     10  C   UNL     1      -3.877  -1.093  -5.655  0.00  0.00    +0.026 A 
BRANCH   4  11
ATOM     11  C   UNL     1      -2.746  -3.933  -4.772  0.00  0.00    +0.158 C 
BRANCH  11  12
ATOM     12  C   UNL     1      -2.110  -4.329  -6.079  0.00  0.00    -0.009 A 
ATOM     13  C   UNL     1      -2.775  -4.100  -7.269  0.00  0.00    +0.007 A 
ATOM     14  C   UNL     1      -2.192  -4.463  -8.469  0.00  0.00    +0.000 A 
ATOM     15  C   UNL     1      -0.942  -5.054  -8.479  0.00  0.00    +0.001 A 
ATOM     16  C   UNL     1      -0.276  -5.283  -7.290  0.00  0.00    +0.020 A 
ATOM     17  C   UNL     1      -0.857  -4.915  -6.090  0.00  0.00    +0.046 A 
ATOM     18 CL   UNL     1      -0.017  -5.197  -4.597  0.00  0.00    -0.083 Cl
ENDBRANCH  11  12
ENDBRANCH   4  11
ENDBRANCH   1   2
BRANCH   1  21
ATOM     19  C   UNL     1      -0.894   1.637  -0.243  0.00  0.00    +0.068 C 
ATOM     20  C   UNL     1      -0.611   0.166  -0.082  0.00  0.00    +0.068 A 
ATOM     21  C   UNL     1      -0.221  -0.710  -1.099  0.00  0.00    +0.048 A 
ATOM     22  C   UNL     1      -0.066  -1.944  -0.550  0.00  0.00    +0.213 A 
ATOM     23  N   UNL     1      -0.349  -1.844   0.767  0.00  0.00    -0.247 N 
ATOM     24  H   UNL     1      -0.323  -2.567   1.413  0.00  0.00    +0.192 HD
ATOM     25  N   UNL     1      -0.682  -0.510   1.036  0.00  0.00    -0.176 NA
BRANCH  22  26
ATOM     26  O   UNL     1       0.306  -3.072  -1.207  0.00  0.00    -0.492 OA
ATOM     27  H   UNL     1       1.254  -3.259  -1.163  0.00  0.00    +0.294 HD
ENDBRANCH  22  26
ENDBRANCH   1  21
BRANCH   1  28
ATOM     28  C   UNL     1       1.360  -0.801  -2.983  0.00  0.00    +0.048 A 
ATOM     29  C   UNL     1       2.482  -0.780  -2.229  0.00  0.00    +0.041 A 
ATOM     30  N   UNL     1       3.494  -1.264  -2.979  0.00  0.00    -0.278 N 
ATOM     31  N   UNL     1       2.979  -1.595  -4.239  0.00  0.00    -0.136 NA
ATOM     32  H   UNL     1       4.416  -1.365  -2.696  0.00  0.00    +0.189 HD
ATOM     33  C   UNL     1       1.696  -1.323  -4.241  0.00  0.00    +0.236 A 
ATOM     34  C   UNL     1       2.585  -0.301  -0.804  0.00  0.00    +0.065 C 
BRANCH  33  35
ATOM     35  O   UNL     1       0.842  -1.510  -5.283  0.00  0.00    -0.491 OA
ATOM     36  H   UNL     1       0.828  -0.780  -5.916  0.00  0.00    +0.294 HD
ENDBRANCH  33  35
ENDBRANCH   1  28
TORSDOF 7
