REMARK  Name = ZINC56226779
REMARK  9 active torsions:
REMARK  status: ('A' for Active; 'I' for Inactive)
REMARK    1  A    between atoms: C_1  and  C_2
REMARK    2  A    between atoms: C_4  and  N_19
REMARK    3  A    between atoms: C_6  and  C_7
REMARK    4  A    between atoms: N_9  and  C_10
REMARK    5  A    between atoms: N_9  and  C_11
REMARK    6  A    between atoms: C_20  and  C_22
REMARK    7  A    between atoms: C_22  and  C_23
REMARK    8  A    between atoms: C_22  and  C_24
REMARK    9  A    between atoms: C_22  and  C_25
REMARK                            x       y       z     vdW  Elec       q    Type
REMARK                         _______ _______ _______ _____ _____    ______ ____
ROOT
ATOM      1  C   UNL     1       0.429   1.220  -0.150  0.00  0.00    +0.045 C 
ATOM      2  C   UNL     1       0.630  -0.267  -0.007  0.00  0.00    -0.029 A 
ATOM      3  C   UNL     1       0.952  -1.062  -1.076  0.00  0.00    +0.035 A 
ATOM      4  C   UNL     1       1.119  -2.412  -0.867  0.00  0.00    +0.073 A 
ATOM      5  S   UNL     1       0.841  -2.608   0.779  0.00  0.00    -0.069 S 
ATOM      6  C   UNL     1       0.506  -0.912   1.216  0.00  0.00    +0.079 A 
ENDROOT
BRANCH   6   7
ATOM      7  C   UNL     1       0.183  -0.348   2.524  0.00  0.00    +0.258 C 
ATOM      8  O   UNL     1       0.123   0.860   2.668  0.00  0.00    -0.269 OA
ATOM      9  N   UNL     1      -0.050  -1.164   3.571  0.00  0.00    -0.270 N 
ATOM     10  C   UNL     1       0.036  -2.617   3.401  0.00  0.00    +0.138 C 
BRANCH   9  11
ATOM     11  C   UNL     1      -0.373  -0.624   4.821  0.00  0.00    +0.039 A 
ATOM     12  C   UNL     1      -0.282   0.746   5.031  0.00  0.00    +0.026 A 
ATOM     13  C   UNL     1      -0.602   1.278   6.264  0.00  0.00    +0.043 A 
ATOM     14  C   UNL     1      -1.013   0.448   7.293  0.00  0.00    +0.159 A 
ATOM     15  C   UNL     1      -1.105  -0.920   7.087  0.00  0.00    +0.160 A 
ATOM     16  C   UNL     1      -0.791  -1.456   5.851  0.00  0.00    +0.064 A 
ATOM     17  F   UNL     1      -1.506  -1.729   8.091  0.00  0.00    -0.202 F 
ATOM     18  F   UNL     1      -1.324   0.971   8.499  0.00  0.00    -0.202 F 
ENDBRANCH   9  11
ENDBRANCH   6   7
BRANCH   4  19
ATOM     19  N   UNL     1       1.442  -3.388  -1.801  0.00  0.00    -0.280 N 
ATOM     20  C   UNL     1       1.567  -4.673  -1.417  0.00  0.00    +0.223 C 
ATOM     21  O   UNL     1       1.397  -4.978  -0.255  0.00  0.00    -0.275 OA
ATOM     22  H   UNL     1       1.578  -3.144  -2.730  0.00  0.00    +0.155 HD
BRANCH  20  23
ATOM     23  C   UNL     1       1.919  -5.732  -2.430  0.00  0.00    +0.039 C 
ATOM     24  C   UNL     1       1.998  -7.094  -1.738  0.00  0.00    +0.020 C 
ATOM     25  C   UNL     1       0.843  -5.774  -3.517  0.00  0.00    +0.020 C 
ATOM     26  C   UNL     1       3.271  -5.402  -3.064  0.00  0.00    +0.020 C 
ENDBRANCH  20  23
ENDBRANCH   4  19
TORSDOF 4
