REMARK  Name = ZINC08742217
REMARK  8 active torsions:
REMARK  status: ('A' for Active; 'I' for Inactive)
REMARK    1  A    between atoms: C_1  and  C_2
REMARK    2  A    between atoms: C_3  and  C_28
REMARK    3  A    between atoms: C_4  and  C_21
REMARK    4  A    between atoms: C_10  and  C_15
REMARK    5  A    between atoms: C_28  and  O_30
REMARK    6  A    between atoms: O_30  and  C_31
REMARK    7  A    between atoms: C_31  and  C_32
REMARK    8  A    between atoms: C_31  and  C_33
REMARK                            x       y       z     vdW  Elec       q    Type
REMARK                         _______ _______ _______ _____ _____    ______ ____
ROOT
ATOM      1  C   UNL     1      -2.664   7.381   2.558  0.00  0.00    +0.061 C 
ATOM      2  C   UNL     1      -2.019   6.923   1.276  0.00  0.00    +0.031 C 
ATOM      3  C   UNL     1      -0.753   6.471   1.289  0.00  0.00    +0.154 C 
ATOM      4  C   UNL     1      -0.080   6.001   0.035  0.00  0.00    +0.073 C 
ATOM      5  C   UNL     1      -0.810   6.493  -1.190  0.00  0.00    +0.025 C 
ATOM      6  C   UNL     1      -2.078   6.949  -1.101  0.00  0.00    +0.049 C 
ATOM      7  N   UNL     1      -2.725   6.968   0.106  0.00  0.00    -0.260 NA
ATOM      8  C   UNL     1      -2.814   7.444  -2.320  0.00  0.00    +0.064 C 
ATOM      9  C   UNL     1      -2.317   6.700  -3.560  0.00  0.00    +0.032 C 
ATOM     10  C   UNL     1      -0.806   6.922  -3.689  0.00  0.00    +0.088 C 
ATOM     11  C   UNL     1      -0.135   6.464  -2.423  0.00  0.00    +0.162 C 
ATOM     12  O   UNL     1       1.011   6.062  -2.467  0.00  0.00    -0.292 OA
ENDROOT
BRANCH   4  13
ATOM     13  C   UNL     1      -0.061   4.495   0.027  0.00  0.00    -0.039 A 
ATOM     14  C   UNL     1       1.145   3.819   0.013  0.00  0.00    +0.006 A 
ATOM     15  C   UNL     1       1.164   2.437   0.006  0.00  0.00    +0.020 A 
ATOM     16  C   UNL     1      -0.025   1.730   0.014  0.00  0.00    +0.041 A 
ATOM     17  C   UNL     1      -1.232   2.406   0.023  0.00  0.00    +0.020 A 
ATOM     18  C   UNL     1      -1.249   3.788   0.036  0.00  0.00    +0.006 A 
ATOM     19 CL   UNL     1      -0.003  -0.006   0.005  0.00  0.00    -0.084 Cl
ENDBRANCH   4  13
BRANCH   9  20
ATOM     20  C   UNL     1      -3.014   7.234  -4.785  0.00  0.00    -0.044 A 
ATOM     21  C   UNL     1      -2.907   8.573  -5.112  0.00  0.00    +0.004 A 
ATOM     22  C   UNL     1      -3.542   9.062  -6.238  0.00  0.00    +0.000 A 
ATOM     23  C   UNL     1      -4.292   8.215  -7.032  0.00  0.00    +0.000 A 
ATOM     24  C   UNL     1      -4.403   6.877  -6.702  0.00  0.00    +0.000 A 
ATOM     25  C   UNL     1      -3.764   6.387  -5.578  0.00  0.00    +0.004 A 
ENDBRANCH   9  20
BRANCH   3  26
ATOM     26  C   UNL     1      -0.040   6.442   2.511  0.00  0.00    +0.317 C 
ATOM     27  O   UNL     1      -0.573   6.824   3.536  0.00  0.00    -0.250 OA
BRANCH  26  28
ATOM     28  O   UNL     1       1.231   5.990   2.539  0.00  0.00    -0.461 OA
BRANCH  28  29
ATOM     29  C   UNL     1       1.891   5.988   3.807  0.00  0.00    +0.170 C 
ATOM     30  C   UNL     1       1.645   4.650   4.507  0.00  0.00    +0.052 C 
ATOM     31  C   UNL     1       3.393   6.188   3.600  0.00  0.00    +0.052 C 
ENDBRANCH  28  29
ENDBRANCH  26  28
ENDBRANCH   3  26
TORSDOF 5
