REMARK  Name = ZINC15034838
REMARK  7 active torsions:
REMARK  status: ('A' for Active; 'I' for Inactive)
REMARK    1  A    between atoms: C_3  and  O_26
REMARK    2  A    between atoms: C_4  and  C_8
REMARK    3  A    between atoms: N_12  and  C_16
REMARK    4  A    between atoms: C_16  and  C_18
REMARK    5  A    between atoms: C_16  and  C_23
REMARK    6  A    between atoms: C_18  and  C_19
REMARK    7  A    between atoms: C_19  and  C_20
REMARK                            x       y       z     vdW  Elec       q    Type
REMARK                         _______ _______ _______ _____ _____    ______ ____
ROOT
ATOM      1  C   UNL     1       3.688  -0.686  -0.038  0.00  0.00    +0.032 C 
ATOM      2  C   UNL     1       3.711  -2.040   0.057  0.00  0.00    +0.077 C 
ATOM      3  C   UNL     1       4.863  -2.957   0.166  0.00  0.00    +0.259 C 
ATOM      4  O   UNL     1       6.008  -2.545   0.184  0.00  0.00    -0.269 OA
ATOM      5  N   UNL     1       4.588  -4.248   0.245  0.00  0.00    -0.241 N 
ATOM      6  C   UNL     1       3.318  -4.700   0.226  0.00  0.00    +0.121 C 
ATOM      7  S   UNL     1       2.763  -6.317   0.316  0.00  0.00    -0.027 S 
ATOM      8  S   UNL     1       2.353  -3.203   0.091  0.00  0.00    -0.061 S 
ENDROOT
BRANCH   1  12
ATOM      9  C   UNL     1       0.027   1.327  -0.778  0.00  0.00    +0.019 A 
ATOM     10  C   UNL     1       1.102   2.030  -0.267  0.00  0.00    +0.047 A 
ATOM     11  C   UNL     1       2.302   1.383  -0.021  0.00  0.00    +0.124 A 
ATOM     12  C   UNL     1       2.421   0.011  -0.294  0.00  0.00    +0.019 A 
ATOM     13  C   UNL     1       1.325  -0.689  -0.811  0.00  0.00    +0.026 A 
ATOM     14  C   UNL     1       0.139  -0.027  -1.049  0.00  0.00    +0.019 A 
ATOM     15 BR   UNL     1      -1.343  -0.972  -1.748  0.00  0.00    -0.050 Br
BRANCH  11  16
ATOM     16  O   UNL     1       3.358   2.073   0.480  0.00  0.00    -0.506 OA
ATOM     17  H   UNL     1       3.396   2.087   1.446  0.00  0.00    +0.292 HD
ENDBRANCH  11  16
ENDBRANCH   1  12
BRANCH   5  18
ATOM     18  C   UNL     1       5.688  -5.209   0.355  0.00  0.00    +0.196 C 
BRANCH  18  19
ATOM     19  C   UNL     1       5.549  -5.987   1.638  0.00  0.00    +0.376 C 
ATOM     20  O   UNL     1       4.529  -5.894   2.300  0.00  0.00    -0.244 OA
ATOM     21  O   UNL     1       6.456  -6.710   2.014  0.00  0.00    -0.244 OA
ENDBRANCH  18  19
BRANCH  18  22
ATOM     22  C   UNL     1       5.645  -6.172  -0.833  0.00  0.00    +0.046 C 
BRANCH  22  23
ATOM     23  C   UNL     1       5.911  -5.398  -2.126  0.00  0.00    +0.127 C 
BRANCH  23  24
ATOM     24  C   UNL     1       5.869  -6.347  -3.296  0.00  0.00    +0.356 C 
ATOM     25  O   UNL     1       5.647  -7.532  -3.113  0.00  0.00    -0.246 OA
ATOM     26  O   UNL     1       6.057  -5.930  -4.426  0.00  0.00    -0.246 OA
ENDBRANCH  23  24
ENDBRANCH  22  23
ENDBRANCH  18  22
ENDBRANCH   5  18
TORSDOF 7
