REMARK  Name = ZINC15672630
REMARK  13 active torsions:
REMARK  status: ('A' for Active; 'I' for Inactive)
REMARK    1  A    between atoms: C_1  and  C_2
REMARK    2  A    between atoms: C_2  and  C_3
REMARK    3  A    between atoms: C_3  and  C_4
REMARK    4  A    between atoms: C_3  and  C_6
REMARK    5  A    between atoms: C_4  and  C_5
REMARK    6  A    between atoms: N_8  and  C_9
REMARK    7  A    between atoms: C_9  and  C_10
REMARK    8  A    between atoms: C_18  and  C_20
REMARK    9  A    between atoms: C_22  and  C_27
REMARK   10  A    between atoms: C_24  and  C_26
REMARK   11  A    between atoms: C_30  and  N_33
REMARK   12  A    between atoms: N_33  and  C_34
REMARK   13  A    between atoms: N_33  and  C_35
REMARK                            x       y       z     vdW  Elec       q    Type
REMARK                         _______ _______ _______ _____ _____    ______ ____
ROOT
ATOM      1  C   UNL     1      -5.832   1.338  -0.343  0.00  0.00    -0.051 C 
ATOM      2  C   UNL     1      -6.059   2.682   0.354  0.00  0.00    -0.010 C 
ATOM      3  C   UNL     1      -6.700   3.659  -0.644  0.00  0.00    -0.007 C 
ATOM      4  C   UNL     1      -8.025   3.059  -1.132  0.00  0.00    -0.015 C 
ATOM      5  C   UNL     1      -7.742   1.701  -1.787  0.00  0.00    -0.078 C 
ATOM      6  C   UNL     1      -5.541   2.436  -2.483  0.00  0.00    -0.068 C 
ATOM      7  C   UNL     1      -5.760   3.811  -1.846  0.00  0.00    +0.024 C 
ATOM      8  N   UNL     1      -6.295   1.399  -1.746  0.00  0.00    +0.383 N 
ATOM      9  H   UNL     1      -6.132   0.488  -2.191  0.00  0.00    -0.081 HD
ENDROOT
BRANCH   7  10
ATOM     10  C   UNL     1      -4.439   4.371  -1.386  0.00  0.00    +0.047 A 
ATOM     11  C   UNL     1      -4.392   5.310  -0.371  0.00  0.00    +0.052 A 
ATOM     12  C   UNL     1      -3.143   5.800   0.020  0.00  0.00    +0.075 A 
ATOM     13  N   UNL     1      -2.052   5.351  -0.599  0.00  0.00    -0.232 NA
ATOM     14  C   UNL     1      -2.146   4.453  -1.557  0.00  0.00    +0.127 A 
ATOM     15  N   UNL     1      -3.309   3.971  -1.949  0.00  0.00    -0.237 NA
ATOM     16  C   UNL     1      -0.888   3.966  -2.230  0.00  0.00    +0.088 C 
BRANCH  12  17
ATOM     17  C   UNL     1      -3.034   6.807   1.102  0.00  0.00    +0.001 A 
ATOM     18  C   UNL     1      -4.187   7.360   1.660  0.00  0.00    +0.012 A 
ATOM     19  C   UNL     1      -4.083   8.300   2.662  0.00  0.00    +0.024 A 
ATOM     20  C   UNL     1      -2.831   8.689   3.125  0.00  0.00    +0.029 A 
ATOM     21  C   UNL     1      -1.680   8.135   2.574  0.00  0.00    +0.024 A 
ATOM     22  C   UNL     1      -1.779   7.199   1.568  0.00  0.00    +0.012 A 
BRANCH  20  23
ATOM     23  N   UNL     1      -2.728   9.636   4.143  0.00  0.00    -0.336 N 
ATOM     24  C   UNL     1      -3.939  10.221   4.723  0.00  0.00    +0.129 C 
ATOM     25  C   UNL     1      -1.410  10.047   4.631  0.00  0.00    +0.129 C 
ENDBRANCH  20  23
ENDBRANCH  12  17
ENDBRANCH   7  10
BRANCH   1  26
ATOM     26  C   UNL     1      -4.340   1.000  -0.326  0.00  0.00    +0.089 C 
BRANCH  26  29
ATOM     27  C   UNL     1      -2.856  -0.684  -1.274  0.00  0.00    +0.216 C 
ATOM     28  O   UNL     1      -1.920  -0.113  -0.755  0.00  0.00    -0.276 OA
ATOM     29  N   UNL     1      -4.112  -0.243  -1.068  0.00  0.00    -0.317 N 
ATOM     30  H   UNL     1      -4.866  -0.748  -1.410  0.00  0.00    +0.149 HD
BRANCH  27  31
ATOM     31  C   UNL     1      -2.613  -1.887  -2.149  0.00  0.00    +0.074 C 
BRANCH  31  33
ATOM     32  C   UNL     1      -0.922  -3.073  -3.554  0.00  0.00    +0.004 C 
ATOM     33  C   UNL     1      -1.142  -1.925  -2.566  0.00  0.00    +0.009 C 
ENDBRANCH  31  33
BRANCH  31  34
ATOM     34  C   UNL     1      -2.957  -3.160  -1.373  0.00  0.00    +0.009 C 
ATOM     35  C   UNL     1      -4.444  -3.151  -1.014  0.00  0.00    +0.004 C 
ENDBRANCH  31  34
ENDBRANCH  27  31
ENDBRANCH  26  29
ENDBRANCH   1  26
TORSDOF 8
