REMARK  Name = ZINC09119521
REMARK  8 active torsions:
REMARK  status: ('A' for Active; 'I' for Inactive)
REMARK    1  A    between atoms: C_1  and  C_2
REMARK    2  A    between atoms: C_4  and  N_23
REMARK    3  A    between atoms: C_5  and  O_21
REMARK    4  A    between atoms: C_7  and  N_8
REMARK    5  A    between atoms: C_9  and  C_11
REMARK    6  A    between atoms: C_11  and  O_12
REMARK    7  A    between atoms: O_12  and  C_13
REMARK    8  A    between atoms: O_21  and  C_22
REMARK                            x       y       z     vdW  Elec       q    Type
REMARK                         _______ _______ _______ _____ _____    ______ ____
ROOT
ATOM      1  N   UNL     1      -0.016   1.344   0.009  0.00  0.00    -0.282 N 
ATOM      2  C   UNL     1       0.154   0.124   0.556  0.00  0.00    +0.255 C 
ATOM      3  O   UNL     1      -0.749  -0.394   1.178  0.00  0.00    -0.272 OA
ATOM      4  H   UNL     1       0.729   1.791  -0.420  0.00  0.00    +0.155 HD
ENDROOT
BRANCH   1  11
ATOM      5  C   UNL     1      -0.117   4.183  -0.124  0.00  0.00    +0.046 C 
ATOM      6  C   UNL     1      -1.366   3.346  -0.006  0.00  0.00    -0.027 A 
ATOM      7  C   UNL     1      -2.604   3.957   0.035  0.00  0.00    +0.041 A 
ATOM      8  C   UNL     1      -3.750   3.193   0.149  0.00  0.00    +0.168 A 
ATOM      9  C   UNL     1      -3.661   1.810   0.218  0.00  0.00    +0.152 A 
ATOM     10  C   UNL     1      -2.420   1.194   0.172  0.00  0.00    +0.071 A 
ATOM     11  C   UNL     1      -1.270   1.962   0.057  0.00  0.00    +0.040 A 
BRANCH   8  12
ATOM     12  N   UNL     1      -5.075   3.852   0.199  0.00  0.00    +0.060 N 
ATOM     13  O   UNL     1      -5.155   5.066   0.139  0.00  0.00    -0.126 OA
ATOM     14  O   UNL     1      -6.086   3.179   0.300  0.00  0.00    -0.126 OA
ENDBRANCH   8  12
BRANCH   9  15
ATOM     15  O   UNL     1      -4.789   1.060   0.330  0.00  0.00    -0.493 OA
ATOM     16  C   UNL     1      -4.622  -0.357   0.395  0.00  0.00    +0.277 C 
ENDBRANCH   9  15
ENDBRANCH   1  11
BRANCH   2  17
ATOM     17  C   UNL     1       1.468  -0.597   0.396  0.00  0.00    +0.324 C 
BRANCH  17  18
ATOM     18  O   UNL     1       1.402  -1.861   1.059  0.00  0.00    -0.482 OA
BRANCH  18  19
ATOM     19  C   UNL     1       2.513  -2.643   1.010  0.00  0.00    +0.135 A 
ATOM     20  C   UNL     1       3.643  -2.202   0.337  0.00  0.00    +0.048 A 
ATOM     21  C   UNL     1       4.771  -2.997   0.288  0.00  0.00    +0.019 A 
ATOM     22  C   UNL     1       4.776  -4.233   0.910  0.00  0.00    +0.019 A 
ATOM     23  C   UNL     1       3.650  -4.676   1.581  0.00  0.00    +0.034 A 
ATOM     24  C   UNL     1       2.521  -3.880   1.638  0.00  0.00    +0.061 A 
ATOM     25 BR   UNL     1       0.986  -4.481   2.564  0.00  0.00    -0.046 Br
ATOM     26 BR   UNL     1       6.322  -5.320   0.841  0.00  0.00    -0.050 Br
ENDBRANCH  18  19
ENDBRANCH  17  18
ENDBRANCH   2  17
TORSDOF 6
