REMARK  Name = ZINC12876972
REMARK  13 active torsions:
REMARK  status: ('A' for Active; 'I' for Inactive)
REMARK    1  A    between atoms: C_1  and  C_2
REMARK    2  A    between atoms: N_6  and  O_7
REMARK    3  A    between atoms: O_7  and  C_8
REMARK    4  A    between atoms: C_8  and  C_9
REMARK    5  A    between atoms: N_11  and  CA_12
REMARK    6  A    between atoms: CA_12  and  CB_14
REMARK    7  A    between atoms: CA_12  and  C_18
REMARK    8  A    between atoms: CB_14  and  CG_15
REMARK    9  A    between atoms: CG_15  and  SD_16
REMARK   10  A    between atoms: SD_16  and  CE_17
REMARK   11  A    between atoms: C_30  and  C_39
REMARK   12  A    between atoms: C_35  and  C_36
REMARK   13  A    between atoms: C_35  and  O_38
REMARK                            x       y       z     vdW  Elec       q    Type
REMARK                         _______ _______ _______ _____ _____    ______ ____
ROOT
ATOM      1  C   UNK A   0       0.157   1.544  -0.080  0.00  0.00    +0.016 C 
ATOM      2  C   UNK A   0       0.190   0.015  -0.101  0.00  0.00    -0.007 C 
ATOM      3  C   UNK A   0       1.013  -0.421  -1.300  0.00  0.00    +0.017 C 
ATOM      4  C   UNK A   0       0.216  -0.345  -2.597  0.00  0.00    +0.059 C 
ATOM      5  C   UNK A   0      -0.989  -1.250  -2.423  0.00  0.00    +0.080 C 
ATOM      6  N   UNK A   0      -1.310  -2.136  -3.312  0.00  0.00    -0.089 NA
ATOM      7  C   UNK A   0      -1.773  -1.067  -1.189  0.00  0.00    +0.026 C 
ATOM      8  C   UNK A   0      -1.224  -0.479  -0.133  0.00  0.00    -0.062 C 
ATOM      9  C   UNK A   0      -2.089  -0.249   1.107  0.00  0.00    +0.031 C 
ATOM     10  C   UNK A   0      -1.320  -0.742   2.335  0.00  0.00    +0.008 C 
ATOM     11  C   UNK A   0       0.038  -0.037   2.397  0.00  0.00    -0.003 C 
ATOM     12  C   UNK A   0       0.878  -0.461   1.184  0.00  0.00    +0.002 C 
ATOM     13  C   UNK A   0       2.289   0.119   1.240  0.00  0.00    +0.005 C 
ATOM     14  C   UNK A   0       2.990  -0.220   2.566  0.00  0.00    +0.011 C 
ATOM     15  C   UNK A   0       2.118   0.321   3.683  0.00  0.00    +0.011 C 
ATOM     16  C   UNK A   0       0.784  -0.471   3.646  0.00  0.00    +0.002 C 
ATOM     17  C   UNK A   0       0.145  -0.065   4.979  0.00  0.00    +0.008 C 
ATOM     18  C   UNK A   0       1.345  -0.097   5.964  0.00  0.00    +0.049 C 
ATOM     19  C   UNK A   0       2.620   0.097   5.106  0.00  0.00    +0.132 C 
ATOM     20  C   UNK A   0       1.845   1.809   3.453  0.00  0.00    +0.015 C 
ENDROOT
BRANCH  19  21
ATOM     21  C   UNK A   0       3.374   1.272   5.571  0.00  0.00    -0.070 C 
ATOM     22  C   UNK A   0       3.976   2.210   5.942  0.00  0.00    +0.007 C 
ENDBRANCH  19  21
BRANCH  19  23
ATOM     23  O   UNK A   0       3.439  -1.073   5.164  0.00  0.00    -0.376 OA
ATOM     24  H   UNK A   0       3.787  -1.266   6.045  0.00  0.00    +0.211 HD
ENDBRANCH  19  23
BRANCH   6  25
ATOM     25  O   UNK A   0      -0.529  -2.279  -4.484  0.00  0.00    -0.384 OA
BRANCH  25  26
ATOM     26  C   UNK A   0      -0.999  -3.292  -5.375  0.00  0.00    +0.358 C 
BRANCH  26  27
ATOM     27  C   UNK A   0      -0.098  -3.357  -6.582  0.00  0.00    +0.254 C 
ATOM     28  O   UNK A   0       0.853  -2.609  -6.670  0.00  0.00    -0.272 OA
ATOM     29  N   MET A   1      -0.348  -4.246  -7.563  0.00  0.00    -0.299 N 
ATOM     30  H   MET A   1      -1.108  -4.845  -7.493  0.00  0.00    +0.150 HD
BRANCH  29  31
ATOM     31  CA  MET A   1       0.528  -4.309  -8.736  0.00  0.00    +0.187 C 
BRANCH  31  32
ATOM     32  C   MET A   1       0.085  -3.285  -9.749  0.00  0.00    +0.376 C 
ATOM     33  O   MET A   1      -0.864  -2.575  -9.515  0.00  0.00    -0.244 OA
ATOM     34  OXT MET A   1       0.746  -3.161 -10.911  0.00  0.00    -0.244 OA
ENDBRANCH  31  32
BRANCH  31  35
ATOM     35  CB  MET A   1       0.450  -5.706  -9.356  0.00  0.00    +0.044 C 
BRANCH  35  36
ATOM     36  CG  MET A   1       1.016  -6.732  -8.372  0.00  0.00    +0.071 C 
BRANCH  36  37
ATOM     37  SD  MET A   1       0.925  -8.388  -9.107  0.00  0.00    -0.164 S 
ATOM     38  CE  MET A   1       1.625  -9.473  -7.833  0.00  0.00    +0.084 C 
ENDBRANCH  36  37
ENDBRANCH  35  36
ENDBRANCH  31  35
ENDBRANCH  29  31
ENDBRANCH  26  27
ENDBRANCH  25  26
ENDBRANCH   6  25
TORSDOF 10
