REMARK  Name = ZINC38732665
REMARK  6 active torsions:
REMARK  status: ('A' for Active; 'I' for Inactive)
REMARK    1  A    between atoms: C_13  and  C_15
REMARK    2  A    between atoms: C_21  and  C_23
REMARK    3  A    between atoms: N_25  and  C_26
REMARK    4  A    between atoms: C_26  and  C_27
REMARK    5  A    between atoms: C_31  and  O_33
REMARK    6  A    between atoms: O_33  and  C_34
REMARK                            x       y       z     vdW  Elec       q    Type
REMARK                         _______ _______ _______ _____ _____    ______ ____
ROOT
ATOM      1  C   UNL     1       0.176  -6.648   1.147  0.00  0.00    +0.087 C 
ATOM      2  C   UNL     1      -0.685  -6.214   2.335  0.00  0.00    +0.013 C 
ATOM      3  C   UNL     1       0.074  -6.476   3.637  0.00  0.00    +0.001 C 
ATOM      4  C   UNL     1       0.388  -7.970   3.753  0.00  0.00    +0.001 C 
ATOM      5  C   UNL     1       1.249  -8.403   2.565  0.00  0.00    +0.013 C 
ATOM      6  C   UNL     1       0.489  -8.141   1.262  0.00  0.00    +0.087 C 
ENDROOT
BRANCH   1  19
ATOM      7  C   UNL     1       2.550   1.134  -1.145  0.00  0.00    +0.005 A 
ATOM      8  C   UNL     1       1.321   1.731  -1.394  0.00  0.00    +0.018 A 
ATOM      9  C   UNL     1       0.181   0.954  -1.397  0.00  0.00    +0.084 A 
ATOM     10  N   UNL     1       0.245  -0.344  -1.166  0.00  0.00    -0.350 N 
ATOM     11  C   UNL     1       1.397  -0.949  -0.924  0.00  0.00    +0.099 A 
ATOM     12  C   UNL     1       2.587  -0.228  -0.906  0.00  0.00    +0.042 A 
ATOM     13  N   UNL     1       1.419  -2.319  -0.685  0.00  0.00    -0.314 N 
ATOM     14  C   UNL     1       2.695  -3.033  -0.544  0.00  0.00    +0.125 C 
ATOM     15  C   UNL     1       2.695  -3.777   0.798  0.00  0.00    +0.126 C 
ATOM     16  N   UNL     1       1.441  -4.535   0.914  0.00  0.00    -0.298 N 
ATOM     17  C   UNL     1       0.165  -3.821   0.772  0.00  0.00    +0.126 C 
ATOM     18  C   UNL     1       0.165  -3.076  -0.563  0.00  0.00    +0.125 C 
ATOM     19  C   UNL     1       1.462  -5.863   1.145  0.00  0.00    +0.219 C 
ATOM     20  O   UNL     1       2.516  -6.426   1.352  0.00  0.00    -0.275 OA
ATOM     21  H   UNL     1      -0.572  -0.867  -1.174  0.00  0.00    +0.166 HD
ENDBRANCH   1  19
BRANCH   6  22
ATOM     22  C   UNL     1       1.337  -8.568   0.092  0.00  0.00    +0.217 C 
ATOM     23  O   UNL     1       1.659  -7.758  -0.752  0.00  0.00    -0.275 OA
ATOM     24  N   UNL     1       1.738  -9.851  -0.018  0.00  0.00    -0.311 N 
ATOM     25  H   UNL     1       1.480 -10.498   0.657  0.00  0.00    +0.149 HD
BRANCH  24  26
ATOM     26  C   UNL     1       2.562 -10.266  -1.155  0.00  0.00    +0.139 C 
BRANCH  26  27
ATOM     27  C   UNL     1       2.870 -11.736  -1.042  0.00  0.00    -0.027 A 
ATOM     28  C   UNL     1       3.999 -12.155  -0.361  0.00  0.00    +0.005 A 
ATOM     29  C   UNL     1       4.286 -13.503  -0.255  0.00  0.00    +0.004 A 
ATOM     30  C   UNL     1       3.444 -14.436  -0.829  0.00  0.00    +0.046 A 
ATOM     31  C   UNL     1       2.311 -14.019  -1.512  0.00  0.00    +0.130 A 
ATOM     32  C   UNL     1       2.023 -12.666  -1.612  0.00  0.00    +0.051 A 
BRANCH  31  33
ATOM     33  O   UNL     1       1.482 -14.935  -2.078  0.00  0.00    -0.406 OA
BRANCH  33  34
ATOM     34  C   UNL     1       1.838 -16.311  -1.930  0.00  0.00    +0.575 C 
ATOM     35  F   UNL     1       1.886 -16.637  -0.571  0.00  0.00    -0.133 F 
ATOM     36  F   UNL     1       0.883 -17.111  -2.568  0.00  0.00    -0.133 F 
ATOM     37  F   UNL     1       3.093 -16.533  -2.508  0.00  0.00    -0.133 F 
ENDBRANCH  33  34
ENDBRANCH  31  33
ENDBRANCH  26  27
ENDBRANCH  24  26
ENDBRANCH   6  22
TORSDOF 6
