REMARK  Name = ZINC01810998
REMARK  13 active torsions:
REMARK  status: ('A' for Active; 'I' for Inactive)
REMARK    1  A    between atoms: C_1  and  C_2
REMARK    2  A    between atoms: C_4  and  C_34
REMARK    3  A    between atoms: C_6  and  O_8
REMARK    4  A    between atoms: O_8  and  C_9
REMARK    5  A    between atoms: C_14  and  O_20
REMARK    6  A    between atoms: O_20  and  C_21
REMARK    7  A    between atoms: C_21  and  C_22
REMARK    8  A    between atoms: C_22  and  C_24
REMARK    9  A    between atoms: C_22  and  O_33
REMARK   10  A    between atoms: C_24  and  N_63
REMARK   11  A    between atoms: C_25  and  N_63
REMARK   12  A    between atoms: C_26  and  C_27
REMARK   13  A    between atoms: C_26  and  N_63
REMARK                            x       y       z     vdW  Elec       q    Type
REMARK                         _______ _______ _______ _____ _____    ______ ____
ROOT
ATOM      1  C   UNL     1       0.695   0.571  -9.793  0.00  0.00    +0.210 A 
ATOM      2  C   UNL     1      -0.560   1.042  -9.657  0.00  0.00    +0.245 A 
ATOM      3  O   UNL     1      -1.198   1.076  -8.480  0.00  0.00    -0.459 OA
ATOM      4  C   UNL     1      -0.631   0.639  -7.338  0.00  0.00    +0.142 A 
ATOM      5  C   UNL     1      -1.323   0.682  -6.135  0.00  0.00    +0.092 A 
ATOM      6  C   UNL     1      -0.714   0.231  -4.976  0.00  0.00    +0.124 A 
ATOM      7  C   UNL     1       0.583  -0.277  -5.008  0.00  0.00    +0.046 A 
ATOM      8  C   UNL     1       1.275  -0.331  -6.184  0.00  0.00    +0.019 A 
ATOM      9  C   UNL     1       0.678   0.125  -7.360  0.00  0.00    +0.068 A 
ATOM     10  C   UNL     1       1.390   0.084  -8.649  0.00  0.00    +0.234 A 
ATOM     11  O   UNL     1       2.527  -0.349  -8.733  0.00  0.00    -0.283 OA
ENDROOT
BRANCH   1  12
ATOM     12  O   UNL     1       1.295   0.561 -11.014  0.00  0.00    -0.449 OA
BRANCH  12  18
ATOM     13  C   UNL     1      -1.789  -0.213 -14.717  0.00  0.00    +0.044 C 
ATOM     14  C   UNL     1      -0.916   0.704 -13.899  0.00  0.00    -0.047 A 
ATOM     15  C   UNL     1      -0.826   2.045 -14.226  0.00  0.00    +0.007 A 
ATOM     16  C   UNL     1      -0.026   2.889 -13.479  0.00  0.00    -0.047 A 
ATOM     17  C   UNL     1       0.686   2.394 -12.402  0.00  0.00    +0.049 A 
ATOM     18  C   UNL     1       0.597   1.050 -12.072  0.00  0.00    +0.129 A 
ATOM     19  C   UNL     1      -0.203   0.203 -12.828  0.00  0.00    +0.049 A 
ATOM     20  C   UNL     1       0.070   4.349 -13.838  0.00  0.00    +0.044 C 
ENDBRANCH  12  18
ENDBRANCH   1  12
BRANCH   6  21
ATOM     21  O   UNL     1      -1.390   0.278  -3.800  0.00  0.00    -0.489 OA
BRANCH  21  22
ATOM     22  C   UNL     1      -0.709  -0.208  -2.641  0.00  0.00    +0.258 C 
BRANCH  22  23
ATOM     23  C   UNL     1      -1.622  -0.075  -1.420  0.00  0.00    +0.135 C 
BRANCH  23  24
ATOM     24  O   UNL     1      -2.756  -0.929  -1.579  0.00  0.00    -0.390 OA
ATOM     25  H   UNL     1      -2.534  -1.866  -1.668  0.00  0.00    +0.210 HD
ENDBRANCH  23  24
BRANCH  23  26
ATOM     26  C   UNL     1      -0.852  -0.478  -0.161  0.00  0.00    -0.044 C 
BRANCH  26  28
ATOM     27  C   UNL     1      -2.082   1.054   1.253  0.00  0.00    -0.096 C 
ATOM     28  N   UNL     1      -1.752  -0.365   1.005  0.00  0.00    +0.382 N 
ATOM     29  H   UNL     1      -2.619  -0.880   0.809  0.00  0.00    -0.082 HD
BRANCH  28  30
ATOM     30  C   UNL     1      -1.107  -0.950   2.200  0.00  0.00    -0.043 C 
BRANCH  30  31
ATOM     31  C   UNL     1      -2.120  -1.022   3.313  0.00  0.00    -0.064 A 
ATOM     32  C   UNL     1      -2.248   0.030   4.201  0.00  0.00    +0.002 A 
ATOM     33  C   UNL     1      -3.181  -0.035   5.219  0.00  0.00    +0.000 A 
ATOM     34  C   UNL     1      -3.979  -1.155   5.356  0.00  0.00    +0.000 A 
ATOM     35  C   UNL     1      -3.847  -2.209   4.471  0.00  0.00    +0.000 A 
ATOM     36  C   UNL     1      -2.918  -2.143   3.450  0.00  0.00    +0.002 A 
ENDBRANCH  30  31
ENDBRANCH  28  30
ENDBRANCH  26  28
ENDBRANCH  23  26
ENDBRANCH  22  23
ENDBRANCH  21  22
ENDBRANCH   6  21
TORSDOF 10
