REMARK  Name = ZINC15482828
REMARK  14 active torsions:
REMARK  status: ('A' for Active; 'I' for Inactive)
REMARK    1  A    between atoms: C_1  and  C_2
REMARK    2  A    between atoms: C_2  and  O_3
REMARK    3  A    between atoms: O_3  and  C_4
REMARK    4  A    between atoms: C_4  and  C_6
REMARK    5  A    between atoms: C_7  and  C_19
REMARK    6  A    between atoms: C_12  and  C_14
REMARK    7  A    between atoms: C_19  and  N_63
REMARK    8  A    between atoms: C_20  and  N_63
REMARK    9  A    between atoms: C_21  and  C_22
REMARK   10  A    between atoms: C_21  and  N_63
REMARK   11  A    between atoms: N_24  and  C_25
REMARK   12  A    between atoms: C_26  and  C_33
REMARK   13  A    between atoms: C_28  and  C_32
REMARK   14  A    between atoms: C_30  and  C_31
REMARK                            x       y       z     vdW  Elec       q    Type
REMARK                         _______ _______ _______ _____ _____    ______ ____
ROOT
ATOM      1  C   UNL     1       1.844  -0.628   1.730  0.00  0.00    +0.079 C 
ATOM      2  C   UNL     1       2.706  -1.661   1.615  0.00  0.00    +0.008 C 
ATOM      3  N   UNL     1       3.964  -1.591   2.142  0.00  0.00    -0.274 N 
ATOM      4  C   UNL     1       4.436  -0.523   2.798  0.00  0.00    +0.304 C 
ATOM      5  O   UNL     1       5.571  -0.554   3.232  0.00  0.00    -0.252 OA
ATOM      6  N   UNL     1       3.693   0.584   2.994  0.00  0.00    -0.285 N 
ATOM      7  C   UNL     1       2.320   0.610   2.463  0.00  0.00    +0.179 C 
ATOM      8  H   UNL     1       4.549  -2.358   2.035  0.00  0.00    +0.156 HD
ATOM      9  H   UNL     1       4.055   1.346   3.472  0.00  0.00    +0.151 HD
ENDROOT
BRANCH   7  10
ATOM     10  C   UNL     1       1.381   0.857   3.616  0.00  0.00    +0.130 A 
ATOM     11  C   UNL     1       0.376   1.750   3.634  0.00  0.00    +0.047 A 
ATOM     12  C   UNL     1      -0.240   1.648   4.902  0.00  0.00    +0.041 A 
ATOM     13  C   UNL     1       0.425   0.698   5.583  0.00  0.00    +0.195 A 
ATOM     14  O   UNL     1       1.403   0.218   4.797  0.00  0.00    -0.466 OA
ENDBRANCH   7  10
BRANCH   1  15
ATOM     15  C   UNL     1       0.541  -0.699   1.184  0.00  0.00    +0.339 C 
ATOM     16  O   UNL     1       0.280  -0.107   0.153  0.00  0.00    -0.245 OA
BRANCH  15  17
ATOM     17  O   UNL     1      -0.413  -1.423   1.806  0.00  0.00    -0.462 OA
BRANCH  17  19
ATOM     18  C   UNL     1      -2.647  -2.315   2.041  0.00  0.00    +0.048 C 
ATOM     19  C   UNL     1      -1.706  -1.450   1.199  0.00  0.00    +0.229 C 
ENDBRANCH  17  19
ENDBRANCH  15  17
ENDBRANCH   1  15
BRANCH   2  20
ATOM     20  C   UNL     1       2.273  -2.911   0.894  0.00  0.00    -0.026 C 
BRANCH  20  22
ATOM     21  C   UNL     1       2.841  -2.020  -1.285  0.00  0.00    -0.095 C 
ATOM     22  N   UNL     1       3.122  -3.089  -0.303  0.00  0.00    +0.387 N 
ATOM     23  H   UNL     1       4.108  -3.035  -0.024  0.00  0.00    -0.081 HD
BRANCH  22  24
ATOM     24  C   UNL     1       2.867  -4.412  -0.911  0.00  0.00    +0.019 C 
BRANCH  24  25
ATOM     25  C   UNL     1       3.892  -4.657  -1.989  0.00  0.00    +0.201 C 
ATOM     26  O   UNL     1       4.729  -3.814  -2.233  0.00  0.00    -0.278 OA
ATOM     27  N   UNL     1       3.878  -5.813  -2.681  0.00  0.00    -0.287 N 
ATOM     28  H   UNL     1       3.162  -6.453  -2.543  0.00  0.00    +0.155 HD
BRANCH  27  29
ATOM     29  C   UNL     1       4.897  -6.091  -3.599  0.00  0.00    +0.039 A 
ATOM     30  C   UNL     1       5.659  -7.245  -3.466  0.00  0.00    -0.029 A 
ATOM     31  C   UNL     1       6.660  -7.518  -4.377  0.00  0.00    +0.008 A 
ATOM     32  C   UNL     1       6.912  -6.640  -5.415  0.00  0.00    -0.050 A 
ATOM     33  C   UNL     1       6.159  -5.488  -5.547  0.00  0.00    +0.008 A 
ATOM     34  C   UNL     1       5.152  -5.211  -4.643  0.00  0.00    -0.029 A 
ATOM     35  C   UNL     1       4.332  -3.955  -4.788  0.00  0.00    +0.045 C 
ATOM     36  C   UNL     1       8.009  -6.939  -6.403  0.00  0.00    +0.044 C 
ATOM     37  C   UNL     1       5.389  -8.200  -2.332  0.00  0.00    +0.045 C 
ENDBRANCH  27  29
ENDBRANCH  24  25
ENDBRANCH  22  24
ENDBRANCH  20  22
ENDBRANCH   2  20
TORSDOF 9
