REMARK  Name = ZINC08872621
REMARK  8 active torsions:
REMARK  status: ('A' for Active; 'I' for Inactive)
REMARK    1  A    between atoms: C_1  and  C_2
REMARK    2  A    between atoms: C_2  and  O_3
REMARK    3  A    between atoms: O_3  and  C_4
REMARK    4  A    between atoms: C_6  and  C_11
REMARK    5  A    between atoms: C_9  and  O_10
REMARK    6  A    between atoms: N_14  and  C_15
REMARK    7  A    between atoms: C_17  and  C_21
REMARK    8  A    between atoms: C_18  and  C_20
REMARK                            x       y       z     vdW  Elec       q    Type
REMARK                         _______ _______ _______ _____ _____    ______ ____
ROOT
ATOM      1  C   UNL     1       0.097   2.133   0.342  0.00  0.00    +0.138 A 
ATOM      2  C   UNL     1      -1.174   2.604   0.254  0.00  0.00    +0.075 A 
ATOM      3  C   UNL     1      -1.396   4.000   0.151  0.00  0.00    +0.081 A 
ATOM      4  N   UNL     1      -2.623   4.500   0.068  0.00  0.00    -0.221 NA
ATOM      5  C   UNL     1      -0.206   4.877   0.132  0.00  0.00    +0.043 A 
ATOM      6  C   UNL     1      -0.327   6.260   0.027  0.00  0.00    +0.013 A 
ATOM      7  C   UNL     1       0.807   7.044   0.013  0.00  0.00    +0.001 A 
ATOM      8  C   UNL     1       2.061   6.460   0.103  0.00  0.00    +0.004 A 
ATOM      9  C   UNL     1       2.193   5.090   0.208  0.00  0.00    +0.047 A 
ATOM     10  C   UNL     1       1.063   4.285   0.224  0.00  0.00    +0.138 A 
ATOM     11  O   UNL     1       1.171   2.942   0.325  0.00  0.00    -0.455 OA
ENDROOT
BRANCH   1  14
ATOM     12  C   UNL     1       1.796  -1.202   0.648  0.00  0.00    +0.162 A 
ATOM     13  C   UNL     1       1.605   0.162   0.536  0.00  0.00    +0.061 A 
ATOM     14  C   UNL     1       0.308   0.678   0.455  0.00  0.00    +0.021 A 
ATOM     15  C   UNL     1      -0.788  -0.189   0.476  0.00  0.00    +0.015 A 
ATOM     16  C   UNL     1      -0.589  -1.549   0.582  0.00  0.00    +0.050 A 
ATOM     17  C   UNL     1       0.699  -2.061   0.668  0.00  0.00    +0.158 A 
BRANCH  17  18
ATOM     18  O   UNL     1       0.889  -3.402   0.772  0.00  0.00    -0.503 OA
ATOM     19  H   UNL     1       0.978  -3.854  -0.078  0.00  0.00    +0.292 HD
ENDBRANCH  17  18
BRANCH  12  20
ATOM     20  O   UNL     1       3.056  -1.707   0.732  0.00  0.00    -0.489 OA
BRANCH  20  22
ATOM     21  C   UNL     1       5.464  -1.518   0.810  0.00  0.00    +0.048 C 
ATOM     22  C   UNL     1       4.134  -0.769   0.705  0.00  0.00    +0.226 C 
ENDBRANCH  20  22
ENDBRANCH  12  20
ENDBRANCH   1  14
BRANCH   4  23
ATOM     23  C   UNL     1      -3.683   3.673  -0.035  0.00  0.00    +0.194 A 
ATOM     24  N   UNL     1      -4.209   3.112  -1.119  0.00  0.00    -0.221 NA
ATOM     25  C   UNL     1      -5.259   2.313  -1.032  0.00  0.00    +0.083 A 
ATOM     26  C   UNL     1      -5.820   2.070   0.193  0.00  0.00    +0.016 A 
ATOM     27  S   UNL     1      -4.756   3.045   1.248  0.00  0.00    -0.052 S 
ATOM     28  C   UNL     1      -7.008   1.214   0.553  0.00  0.00    +0.054 C 
BRANCH  25  29
ATOM     29  C   UNL     1      -5.829   1.691  -2.252  0.00  0.00    +0.001 A 
ATOM     30  C   UNL     1      -4.984   1.172  -3.232  0.00  0.00    +0.010 A 
ATOM     31  C   UNL     1      -5.520   0.591  -4.363  0.00  0.00    +0.001 A 
ATOM     32  C   UNL     1      -6.892   0.531  -4.530  0.00  0.00    +0.000 A 
ATOM     33  C   UNL     1      -7.735   1.049  -3.563  0.00  0.00    +0.001 A 
ATOM     34  C   UNL     1      -7.211   1.628  -2.425  0.00  0.00    +0.010 A 
ENDBRANCH  25  29
ENDBRANCH   4  23
TORSDOF 6
