REMARK  Name = ZINC08623813
REMARK  5 active torsions:
REMARK  status: ('A' for Active; 'I' for Inactive)
REMARK    1  A    between atoms: C_1  and  C_2
REMARK    2  A    between atoms: C_2  and  C_4
REMARK    3  A    between atoms: C_2  and  N_14
REMARK    4  A    between atoms: C_15  and  C_17
REMARK    5  A    between atoms: C_17  and  N_18
REMARK                            x       y       z     vdW  Elec       q    Type
REMARK                         _______ _______ _______ _____ _____    ______ ____
ROOT
ATOM      1  C   UNL     1       3.031   3.760  -0.500  0.00  0.00    +0.213 C 
ENDROOT
BRANCH   1   2
ATOM      2  N   UNL     1       3.051   5.106  -1.077  0.00  0.00    -0.215 N 
ATOM      3  C   UNL     1       2.907   6.240  -0.360  0.00  0.00    +0.251 C 
ATOM      4  O   UNL     1       2.744   6.335   0.838  0.00  0.00    -0.272 OA
ATOM      5  C   UNL     1       2.993   7.368  -1.364  0.00  0.00    +0.138 C 
ATOM      6  C   UNL     1       4.183   8.266  -1.051  0.00  0.00    +0.040 C 
ATOM      7  C   UNL     1       3.850   9.097   0.195  0.00  0.00    +0.008 C 
ATOM      8  C   UNL     1       2.756  10.098  -0.170  0.00  0.00    +0.035 C 
ATOM      9  C   UNL     1       1.595   9.401  -0.830  0.00  0.00    -0.042 A 
ATOM     10  C   UNL     1       1.706   8.144  -1.384  0.00  0.00    -0.012 A 
ATOM     11  C   UNL     1       0.600   7.558  -1.984  0.00  0.00    +0.006 A 
ATOM     12  C   UNL     1      -0.609   8.222  -2.027  0.00  0.00    +0.000 A 
ATOM     13  C   UNL     1      -0.721   9.482  -1.469  0.00  0.00    +0.000 A 
ATOM     14  C   UNL     1       0.378  10.067  -0.874  0.00  0.00    +0.004 A 
ATOM     15  N   UNL     1       3.193   6.683  -2.649  0.00  0.00    -0.281 N 
ATOM     16  C   UNL     1       3.219   5.364  -2.379  0.00  0.00    +0.310 C 
ATOM     17  O   UNL     1       3.373   4.505  -3.224  0.00  0.00    -0.252 OA
ATOM     18  H   UNL     1       3.292   7.100  -3.520  0.00  0.00    +0.152 HD
ENDBRANCH   1   2
BRANCH   1  20
ATOM     19  N   UNL     1       1.356   2.010  -0.000  0.00  0.00    -0.307 N 
ATOM     20  C   UNL     1       1.617   3.238  -0.489  0.00  0.00    +0.231 C 
ATOM     21  O   UNL     1       0.715   3.924  -0.921  0.00  0.00    -0.274 OA
ATOM     22  H   UNL     1       2.078   1.462   0.345  0.00  0.00    +0.149 HD
BRANCH  19  24
ATOM     23  C   UNL     1      -0.735   1.996   1.269  0.00  0.00    +0.033 C 
ATOM     24  C   UNL     1      -0.018   1.503   0.010  0.00  0.00    +0.100 C 
BRANCH  24  25
ATOM     25  C   UNL     1       0.002  -0.004   0.002  0.00  0.00    -0.027 A 
ATOM     26  C   UNL     1       0.948  -0.682   0.769  0.00  0.00    +0.006 A 
ATOM     27  C   UNL     1       0.994  -2.042   0.784  0.00  0.00    +0.009 A 
ATOM     28  C   UNL     1       0.075  -2.777   0.015  0.00  0.00    -0.018 A 
ATOM     29  C   UNL     1       0.091  -4.182   0.005  0.00  0.00    +0.008 A 
ATOM     30  C   UNL     1      -0.815  -4.861  -0.751  0.00  0.00    +0.001 A 
ATOM     31  C   UNL     1      -1.761  -4.183  -1.518  0.00  0.00    +0.001 A 
ATOM     32  C   UNL     1      -1.806  -2.823  -1.532  0.00  0.00    +0.008 A 
ATOM     33  C   UNL     1      -0.887  -2.088  -0.764  0.00  0.00    -0.018 A 
ATOM     34  C   UNL     1      -0.907  -0.683  -0.750  0.00  0.00    +0.014 A 
ENDBRANCH  24  25
ENDBRANCH  19  24
ENDBRANCH   1  20
TORSDOF 4
