REMARK  Name = ZINC40083468
REMARK  13 active torsions:
REMARK  status: ('A' for Active; 'I' for Inactive)
REMARK    1  A    between atoms: C_1  and  C_2
REMARK    2  A    between atoms: C_2  and  C_3
REMARK    3  A    between atoms: C_3  and  C_4
REMARK    4  A    between atoms: C_4  and  N_5
REMARK    5  A    between atoms: C_6  and  C_26
REMARK    6  A    between atoms: C_8  and  C_13
REMARK    7  A    between atoms: C_13  and  C_15
REMARK    8  A    between atoms: C_18  and  O_22
REMARK    9  A    between atoms: C_20  and  C_21
REMARK   10  A    between atoms: O_22  and  C_23
REMARK   11  A    between atoms: C_23  and  C_24
REMARK   12  A    between atoms: C_31  and  O_32
REMARK   13  A    between atoms: O_32  and  C_33
REMARK                            x       y       z     vdW  Elec       q    Type
REMARK                         _______ _______ _______ _____ _____    ______ ____
ROOT
ATOM      1  N   UNL     1       1.500  -2.280  -2.940  0.00  0.00    -0.283 N 
ATOM      2  C   UNL     1       0.768  -2.626  -4.164  0.00  0.00    +0.148 C 
ATOM      3  C   UNL     1       1.766  -3.301  -5.076  0.00  0.00    +0.076 C 
ATOM      4  C   UNL     1       2.946  -3.325  -4.413  0.00  0.00    +0.249 C 
ATOM      5  C   UNL     1       2.774  -2.685  -3.092  0.00  0.00    +0.288 C 
ATOM      6  O   UNL     1       3.653  -2.548  -2.264  0.00  0.00    -0.266 OA
ATOM      7  O   UNL     1       4.101  -3.848  -4.887  0.00  0.00    -0.282 OA
ENDROOT
BRANCH   2   8
ATOM      8  C   UNL     1       0.229  -1.379  -4.816  0.00  0.00    +0.020 A 
ATOM      9  C   UNL     1      -1.091  -1.324  -5.218  0.00  0.00    +0.024 A 
ATOM     10  C   UNL     1      -1.586  -0.179  -5.817  0.00  0.00    +0.018 A 
ATOM     11  C   UNL     1      -0.760   0.913  -6.013  0.00  0.00    +0.019 A 
ATOM     12  C   UNL     1       0.561   0.863  -5.612  0.00  0.00    +0.047 A 
ATOM     13  C   UNL     1       1.058  -0.283  -5.007  0.00  0.00    +0.125 A 
ATOM     14 BR   UNL     1      -3.394  -0.107  -6.367  0.00  0.00    -0.050 Br
BRANCH  13  15
ATOM     15  O   UNL     1       2.356  -0.333  -4.607  0.00  0.00    -0.495 OA
ATOM     16  C   UNL     1       3.124   0.865  -4.745  0.00  0.00    +0.277 C 
ENDBRANCH  13  15
ENDBRANCH   2   8
BRANCH   3  17
ATOM     17  C   UNL     1       1.507  -3.828  -6.420  0.00  0.00    +0.195 C 
ATOM     18  O   UNL     1       2.425  -4.259  -7.091  0.00  0.00    -0.287 OA
BRANCH  17  19
ATOM     19  C   UNL     1       0.132  -3.834  -6.957  0.00  0.00    +0.025 A 
ATOM     20  C   UNL     1      -0.251  -2.890  -7.915  0.00  0.00    +0.015 A 
ATOM     21  C   UNL     1      -1.534  -2.900  -8.413  0.00  0.00    +0.046 A 
ATOM     22  C   UNL     1      -2.449  -3.846  -7.965  0.00  0.00    +0.121 A 
ATOM     23  C   UNL     1      -2.072  -4.787  -7.013  0.00  0.00    +0.049 A 
ATOM     24  C   UNL     1      -0.789  -4.788  -6.514  0.00  0.00    -0.036 A 
ATOM     25  C   UNL     1      -0.380  -5.812  -5.487  0.00  0.00    +0.044 C 
BRANCH  22  26
ATOM     26  O   UNL     1      -3.713  -3.852  -8.459  0.00  0.00    -0.488 OA
BRANCH  26  27
ATOM     27  C   UNL     1      -4.002  -2.931  -9.513  0.00  0.00    +0.256 C 
BRANCH  27  28
ATOM     28  C   UNL     1      -5.467  -3.005  -9.857  0.00  0.00    +0.006 C 
ATOM     29  C   UNL     1      -6.157  -1.904 -10.027  0.00  0.00    +0.007 C 
ENDBRANCH  27  28
ENDBRANCH  26  27
ENDBRANCH  22  26
ENDBRANCH  17  19
ENDBRANCH   3  17
BRANCH   1  30
ATOM     30  C   UNL     1       0.944  -1.608  -1.764  0.00  0.00    +0.109 C 
BRANCH  30  31
ATOM     31  C   UNL     1       1.022  -0.092  -1.958  0.00  0.00    +0.019 C 
BRANCH  31  33
ATOM     32  C   UNL     1       0.456   2.125  -0.956  0.00  0.00    +0.004 C 
ATOM     33  C   UNL     1       0.378   0.610  -0.761  0.00  0.00    -0.002 C 
ENDBRANCH  31  33
ENDBRANCH  30  31
ENDBRANCH   1  30
TORSDOF 10
