REMARK  Name = ZINC13020675
REMARK  10 active torsions:
REMARK  status: ('A' for Active; 'I' for Inactive)
REMARK    1  A    between atoms: C_1  and  C_2
REMARK    2  A    between atoms: C_5  and  C_8
REMARK    3  A    between atoms: C_11  and  S_16
REMARK    4  A    between atoms: N_12  and  C_13
REMARK    5  A    between atoms: C_13  and  C_14
REMARK    6  A    between atoms: S_16  and  C_17
REMARK    7  A    between atoms: C_17  and  C_19
REMARK    8  A    between atoms: C_17  and  C_20
REMARK    9  A    between atoms: C_32  and  C_33
REMARK   10  A    between atoms: C_32  and  C_34
REMARK                            x       y       z     vdW  Elec       q    Type
REMARK                         _______ _______ _______ _____ _____    ______ ____
ROOT
ATOM      1  C   UNL     1       0.622  -0.024  -0.173  0.00  0.00    +0.137 C 
ATOM      2  C   UNL     1      -0.440   0.761   0.600  0.00  0.00    +0.029 C 
ENDROOT
BRANCH   1   3
ATOM      3  C   UNL     1       1.990   0.499   0.180  0.00  0.00    +0.234 C 
ATOM      4  O   UNL     1       2.408   1.509  -0.345  0.00  0.00    -0.274 OA
ATOM      5  N   UNL     1       2.750  -0.155   1.081  0.00  0.00    -0.255 N 
ATOM      6  C   UNL     1       2.279  -1.312   1.722  0.00  0.00    +0.059 A 
ATOM      7  C   UNL     1       0.928  -1.500   1.954  0.00  0.00    +0.025 A 
ATOM      8  C   UNL     1       0.495  -2.649   2.592  0.00  0.00    +0.002 A 
ATOM      9  C   UNL     1       1.408  -3.605   2.997  0.00  0.00    +0.002 A 
ATOM     10  C   UNL     1       2.767  -3.428   2.759  0.00  0.00    +0.025 A 
ATOM     11  C   UNL     1       3.207  -2.279   2.122  0.00  0.00    +0.055 A 
ATOM     12  N   UNL     1       4.569  -2.072   1.879  0.00  0.00    -0.282 N 
ATOM     13  C   UNL     1       5.028  -0.858   1.522  0.00  0.00    +0.241 C 
ATOM     14  O   UNL     1       6.207  -0.712   1.274  0.00  0.00    -0.273 OA
ATOM     15  C   UNL     1       4.096   0.323   1.429  0.00  0.00    +0.113 C 
ATOM     16  C   UNL     1       4.594   1.283   0.346  0.00  0.00    +0.042 C 
ATOM     17  C   UNL     1       4.051   1.047   2.776  0.00  0.00    +0.042 C 
ATOM     18  H   UNL     1       5.190  -2.812   1.968  0.00  0.00    +0.155 HD
ENDBRANCH   1   3
BRANCH   1  19
ATOM     19  S   UNL     1       0.342   0.172  -1.950  0.00  0.00    -0.073 S 
BRANCH  19  23
ATOM     20  C   UNL     1      -3.072  -1.478  -2.891  0.00  0.00    +0.165 A 
ATOM     21  N   UNL     1      -2.997  -1.689  -1.598  0.00  0.00    -0.128 NA
ATOM     22  N   UNL     1      -1.903  -1.198  -1.136  0.00  0.00    -0.122 NA
ATOM     23  C   UNL     1      -1.217  -0.634  -2.105  0.00  0.00    +0.193 A 
ATOM     24  N   UNL     1      -1.935  -0.795  -3.256  0.00  0.00    -0.291 N 
BRANCH  20  29
ATOM     25  C   UNL     1      -7.354  -3.100  -6.377  0.00  0.00    +0.044 C 
ATOM     26  C   UNL     1      -6.233  -2.675  -5.464  0.00  0.00    -0.050 A 
ATOM     27  C   UNL     1      -6.446  -2.602  -4.099  0.00  0.00    +0.004 A 
ATOM     28  C   UNL     1      -5.424  -2.214  -3.258  0.00  0.00    +0.012 A 
ATOM     29  C   UNL     1      -4.173  -1.894  -3.787  0.00  0.00    +0.019 A 
ATOM     30  C   UNL     1      -3.966  -1.964  -5.165  0.00  0.00    +0.012 A 
ATOM     31  C   UNL     1      -4.995  -2.359  -5.995  0.00  0.00    +0.004 A 
ENDBRANCH  20  29
BRANCH  24  32
ATOM     32  C   UNL     1      -1.570  -0.337  -4.599  0.00  0.00    +0.250 C 
BRANCH  32  33
ATOM     33  C   UNL     1      -0.792  -1.418  -5.304  0.00  0.00    +0.375 C 
ATOM     34  O   UNL     1      -0.566  -2.464  -4.742  0.00  0.00    -0.244 OA
ATOM     35  O   UNL     1      -0.350  -1.220  -6.556  0.00  0.00    -0.244 OA
ENDBRANCH  32  33
ENDBRANCH  24  32
ENDBRANCH  19  23
ENDBRANCH   1  19
TORSDOF 6
