REMARK  Name = ZINC14753147
REMARK  8 active torsions:
REMARK  status: ('A' for Active; 'I' for Inactive)
REMARK    1  A    between atoms: C_1  and  N_2
REMARK    2  A    between atoms: C_4  and  C_11
REMARK    3  A    between atoms: C_11  and  N_64
REMARK    4  A    between atoms: C_16  and  C_26
REMARK    5  A    between atoms: N_18  and  C_19
REMARK    6  A    between atoms: C_19  and  C_20
REMARK    7  A    between atoms: N_28  and  C_29
REMARK    8  A    between atoms: C_29  and  C_30
REMARK                            x       y       z     vdW  Elec       q    Type
REMARK                         _______ _______ _______ _____ _____    ______ ____
ROOT
ATOM      1  C   UNL     1       4.031   6.532   0.408  0.00  0.00    -0.072 C 
ATOM      2  C   UNL     1       2.611   6.971   0.021  0.00  0.00    +0.037 C 
ATOM      3  C   UNL     1       1.735   5.744   0.018  0.00  0.00    +0.040 A 
ATOM      4  C   UNL     1       2.234   4.481   0.005  0.00  0.00    -0.011 A 
ATOM      5  C   UNL     1       1.120   3.627   0.011  0.00  0.00    +0.149 A 
ATOM      6  N   UNL     1       0.049   4.403   0.019  0.00  0.00    -0.166 NA
ATOM      7  N   UNL     1       0.398   5.644   0.028  0.00  0.00    -0.263 N 
ATOM      8  C   UNL     1       3.702   4.159  -0.015  0.00  0.00    -0.038 C 
ATOM      9  N   UNL     1       4.429   5.384  -0.437  0.00  0.00    +0.385 N 
ATOM     10  H   UNL     1       4.190   5.592  -1.414  0.00  0.00    -0.081 HD
ENDROOT
BRANCH   5  11
ATOM     11  C   UNL     1       1.140   2.151   0.003  0.00  0.00    +0.265 C 
ATOM     12  O   UNL     1       2.201   1.557  -0.011  0.00  0.00    -0.268 OA
ATOM     13  N   UNL     1      -0.018   1.461   0.010  0.00  0.00    -0.304 N 
ATOM     14  H   UNL     1      -0.864   1.934   0.017  0.00  0.00    +0.149 HD
BRANCH  13  15
ATOM     15  C   UNL     1       0.002  -0.004   0.002  0.00  0.00    +0.167 C 
BRANCH  15  16
ATOM     16  C   UNL     1      -1.412  -0.526   0.013  0.00  0.00    +0.095 A 
ATOM     17  N   UNL     1      -2.197  -0.800  -1.003  0.00  0.00    -0.251 NA
ATOM     18  C   UNL     1      -3.418  -1.258  -0.823  0.00  0.00    +0.119 A 
ATOM     19  C   UNL     1      -3.861  -1.433   0.449  0.00  0.00    +0.066 A 
ATOM     20  S   UNL     1      -2.422  -0.910   1.372  0.00  0.00    -0.079 S 
ENDBRANCH  15  16
ENDBRANCH  13  15
ENDBRANCH   5  11
BRANCH   9  21
ATOM     21  C   UNL     1       5.886   5.164  -0.335  0.00  0.00    -0.040 C 
BRANCH  21  25
ATOM     22  C   UNL     1       8.420   8.990  -2.388  0.00  0.00    +0.149 C 
ATOM     23  N   UNL     1       7.715   8.181  -1.390  0.00  0.00    -0.349 N 
ATOM     24  C   UNL     1       7.172   6.947  -1.620  0.00  0.00    +0.088 A 
ATOM     25  C   UNL     1       6.596   6.484  -0.499  0.00  0.00    -0.039 A 
ATOM     26  C   UNL     1       6.793   7.502   0.535  0.00  0.00    +0.001 A 
ATOM     27  C   UNL     1       7.503   8.549  -0.080  0.00  0.00    +0.049 A 
ATOM     28  C   UNL     1       7.842   9.673   0.666  0.00  0.00    +0.026 A 
ATOM     29  C   UNL     1       7.479   9.748   1.993  0.00  0.00    +0.002 A 
ATOM     30  C   UNL     1       6.779   8.712   2.595  0.00  0.00    +0.001 A 
ATOM     31  C   UNL     1       6.436   7.599   1.881  0.00  0.00    +0.010 A 
ENDBRANCH  21  25
ENDBRANCH   9  21
BRANCH   7  32
ATOM     32  C   UNL     1      -0.529   6.778   0.041  0.00  0.00    +0.179 C 
BRANCH  32  33
ATOM     33  C   UNL     1      -0.858   7.174  -1.376  0.00  0.00    -0.026 A 
ATOM     34  C   UNL     1      -0.085   8.117  -2.027  0.00  0.00    +0.005 A 
ATOM     35  C   UNL     1      -0.384   8.477  -3.328  0.00  0.00    +0.000 A 
ATOM     36  C   UNL     1      -1.462   7.900  -3.974  0.00  0.00    +0.000 A 
ATOM     37  C   UNL     1      -2.237   6.961  -3.321  0.00  0.00    +0.000 A 
ATOM     38  C   UNL     1      -1.935   6.598  -2.022  0.00  0.00    +0.005 A 
ENDBRANCH  32  33
ENDBRANCH   7  32
TORSDOF 7
