REMARK  Name = ZINC37295394
REMARK  9 active torsions:
REMARK  status: ('A' for Active; 'I' for Inactive)
REMARK    1  A    between atoms: C_1  and  C_2
REMARK    2  A    between atoms: C_2  and  C_4
REMARK    3  A    between atoms: C_2  and  N_13
REMARK    4  A    between atoms: C_7  and  C_10
REMARK    5  A    between atoms: C_10  and  C_11
REMARK    6  A    between atoms: C_10  and  C_12
REMARK    7  A    between atoms: N_13  and  C_14
REMARK    8  A    between atoms: C_14  and  C_16
REMARK    9  A    between atoms: C_14  and  C_17
REMARK                            x       y       z     vdW  Elec       q    Type
REMARK                         _______ _______ _______ _____ _____    ______ ____
ROOT
ATOM      1  C   UNL     1      -0.019   1.526   0.010  0.00  0.00    -0.009 C 
ATOM      2  C   UNL     1       0.002  -0.004   0.002  0.00  0.00    -0.043 C 
ENDROOT
BRANCH   2   3
ATOM      3  C   UNL     1       0.731  -0.503   1.223  0.00  0.00    -0.062 A 
ATOM      4  C   UNL     1       2.113  -0.514   1.247  0.00  0.00    +0.002 A 
ATOM      5  C   UNL     1       2.782  -0.972   2.366  0.00  0.00    +0.004 A 
ATOM      6  C   UNL     1       2.068  -1.419   3.463  0.00  0.00    -0.045 A 
ATOM      7  C   UNL     1       0.686  -1.407   3.439  0.00  0.00    +0.004 A 
ATOM      8  C   UNL     1       0.017  -0.945   2.321  0.00  0.00    +0.002 A 
BRANCH   6   9
ATOM      9  C   UNL     1       2.797  -1.919   4.683  0.00  0.00    +0.013 C 
ATOM     10  C   UNL     1       2.414  -1.063   5.892  0.00  0.00    +0.012 C 
ATOM     11  C   UNL     1       2.410  -3.376   4.947  0.00  0.00    +0.012 C 
ENDBRANCH   6   9
ENDBRANCH   2   3
BRANCH   2  12
ATOM     12  N   UNL     1       0.690  -0.478  -1.207  0.00  0.00    +0.388 N 
ATOM     13  H   UNL     1       1.608  -0.063  -1.256  0.00  0.00    -0.084 HD
ATOM     14  H   UNL     1       0.776  -1.482  -1.172  0.00  0.00    -0.084 HD
BRANCH  12  15
ATOM     15  C   UNL     1      -0.086  -0.093  -2.394  0.00  0.00    -0.035 C 
ATOM     16  C   UNL     1      -1.431  -0.821  -2.382  0.00  0.00    -0.008 C 
BRANCH  15  17
ATOM     17  C   UNL     1       0.679  -0.470  -3.637  0.00  0.00    -0.010 A 
ATOM     18  C   UNL     1       0.896   0.259  -4.759  0.00  0.00    +0.026 A 
ATOM     19  C   UNL     1       1.636  -0.297  -5.786  0.00  0.00    +0.023 A 
ATOM     20  C   UNL     1       2.122  -1.554  -5.640  0.00  0.00    +0.046 A 
ATOM     21  S   UNL     1       1.539  -1.989  -4.010  0.00  0.00    -0.102 S 
ATOM     22 BR   UNL     1       0.197   2.009  -4.918  0.00  0.00    -0.050 Br
ENDBRANCH  15  17
ENDBRANCH  12  15
ENDBRANCH   2  12
TORSDOF 5
