REMARK  Name = ZINC63236290
REMARK  6 active torsions:
REMARK  status: ('A' for Active; 'I' for Inactive)
REMARK    1  A    between atoms: C_1  and  O_2
REMARK    2  A    between atoms: O_2  and  C_3
REMARK    3  A    between atoms: C_8  and  C_13
REMARK    4  A    between atoms: N_14  and  N_15
REMARK    5  A    between atoms: C_16  and  C_18
REMARK    6  A    between atoms: C_18  and  C_19
REMARK                            x       y       z     vdW  Elec       q    Type
REMARK                         _______ _______ _______ _____ _____    ______ ____
ROOT
ATOM      1  N   UNL     1       3.842  -6.381  -6.694  0.00  0.00    -0.207 N 
ATOM      2  C   UNL     1       3.889  -7.726  -6.764  0.00  0.00    +0.236 C 
ATOM      3  O   UNL     1       3.393  -8.397  -5.883  0.00  0.00    -0.274 OA
ATOM      4  H   UNL     1       4.239  -5.845  -7.399  0.00  0.00    +0.177 HD
ENDROOT
BRANCH   1   6
ATOM      5  C   UNL     1       3.174  -4.462  -5.539  0.00  0.00    +0.138 C 
ATOM      6  N   UNL     1       3.219  -5.757  -5.606  0.00  0.00    -0.188 NA
BRANCH   5  12
ATOM      7  C   UNL     1       0.606  -0.607  -1.056  0.00  0.00    +0.121 A 
ATOM      8  C   UNL     1       1.175   0.176  -2.066  0.00  0.00    +0.046 A 
ATOM      9  C   UNL     1       1.785  -0.400  -3.135  0.00  0.00    +0.012 A 
ATOM     10  C   UNL     1       1.849  -1.802  -3.234  0.00  0.00    -0.017 A 
ATOM     11  C   UNL     1       2.474  -2.421  -4.327  0.00  0.00    +0.018 A 
ATOM     12  C   UNL     1       2.519  -3.805  -4.393  0.00  0.00    -0.005 A 
ATOM     13  C   UNL     1       1.944  -4.588  -3.374  0.00  0.00    +0.010 A 
ATOM     14  C   UNL     1       1.337  -4.006  -2.310  0.00  0.00    +0.009 A 
ATOM     15  C   UNL     1       1.274  -2.603  -2.214  0.00  0.00    -0.014 A 
ATOM     16  C   UNL     1       0.655  -1.981  -1.118  0.00  0.00    +0.054 A 
BRANCH   7  18
ATOM     17  C   UNL     1      -0.017   1.425   0.010  0.00  0.00    +0.277 C 
ATOM     18  O   UNL     1       0.002  -0.004   0.002  0.00  0.00    -0.495 OA
ENDBRANCH   7  18
ENDBRANCH   5  12
ENDBRANCH   1   6
BRANCH   2  19
ATOM     19  C   UNL     1       4.558  -8.398  -7.935  0.00  0.00    +0.130 C 
BRANCH  19  20
ATOM     20  C   UNL     1       4.475  -9.893  -7.772  0.00  0.00    -0.033 C 
ATOM     21  C   UNL     1       3.542 -10.718  -8.302  0.00  0.00    -0.001 A 
ATOM     22  C   UNL     1       2.372 -10.479  -9.154  0.00  0.00    +0.010 A 
ATOM     23  C   UNL     1       1.609 -11.530  -9.531  0.00  0.00    +0.001 A 
ATOM     24  C   UNL     1       1.907 -12.839  -9.129  0.00  0.00    +0.002 A 
ATOM     25  C   UNL     1       2.965 -13.138  -8.346  0.00  0.00    +0.026 A 
ATOM     26  C   UNL     1       3.836 -12.110  -7.891  0.00  0.00    +0.043 A 
ATOM     27  N   UNL     1       4.908 -12.144  -7.136  0.00  0.00    -0.380 N 
ATOM     28  C   UNL     1       5.419 -10.777  -6.989  0.00  0.00    +0.145 C 
ATOM     29  H   UNL     1       5.299 -12.941  -6.745  0.00  0.00    +0.160 HD
ENDBRANCH  19  20
ENDBRANCH   2  19
TORSDOF 5
