REMARK  Name = ZINC35782478
REMARK  16 active torsions:
REMARK  status: ('A' for Active; 'I' for Inactive)
REMARK    1  A    between atoms: C_1  and  C_2
REMARK    2  A    between atoms: C_5  and  O_8
REMARK    3  A    between atoms: O_8  and  C_9
REMARK    4  A    between atoms: C_10  and  C_21
REMARK    5  A    between atoms: C_11  and  C_15
REMARK    6  A    between atoms: N_13  and  C_14
REMARK    7  A    between atoms: C_21  and  N_22
REMARK    8  A    between atoms: N_22  and  C_23
REMARK    9  A    between atoms: N_22  and  C_31
REMARK   10  A    between atoms: C_23  and  C_24
REMARK   11  A    between atoms: C_24  and  C_26
REMARK   12  A    between atoms: C_24  and  O_30
REMARK   13  A    between atoms: C_26  and  C_27
REMARK   14  A    between atoms: C_27  and  C_28
REMARK   15  A    between atoms: C_31  and  C_32
REMARK   16  A    between atoms: C_31  and  C_33
REMARK                            x       y       z     vdW  Elec       q    Type
REMARK                         _______ _______ _______ _____ _____    ______ ____
ROOT
ATOM      1  C   UNL     1       1.176  -4.230  -0.162  0.00  0.00    +0.221 A 
ATOM      2  C   UNL     1       0.759  -5.397   0.391  0.00  0.00    +0.025 A 
ATOM      3  C   UNL     1       0.373  -5.131   1.718  0.00  0.00    +0.098 A 
ATOM      4  N   UNL     1       0.554  -3.848   1.948  0.00  0.00    -0.168 NA
ATOM      5  N   UNL     1       1.064  -3.261   0.782  0.00  0.00    -0.235 N 
ATOM      6  C   UNL     1       1.411  -1.848   0.612  0.00  0.00    +0.176 C 
ENDROOT
BRANCH   3   7
ATOM      7  C   UNL     1      -0.148  -6.125   2.689  0.00  0.00    +0.002 A 
ATOM      8  C   UNL     1      -1.084  -7.074   2.285  0.00  0.00    +0.010 A 
ATOM      9  C   UNL     1      -1.565  -7.996   3.192  0.00  0.00    +0.001 A 
ATOM     10  C   UNL     1      -1.119  -7.979   4.501  0.00  0.00    +0.000 A 
ATOM     11  C   UNL     1      -0.190  -7.040   4.908  0.00  0.00    +0.001 A 
ATOM     12  C   UNL     1       0.302  -6.116   4.008  0.00  0.00    +0.010 A 
ENDBRANCH   3   7
BRANCH   1  13
ATOM     13  O   UNL     1       1.629  -4.062  -1.431  0.00  0.00    -0.438 OA
BRANCH  13  18
ATOM     14  C   UNL     1      -2.093  -2.605  -5.398  0.00  0.00    +0.044 C 
ATOM     15  C   UNL     1      -1.097  -2.994  -4.337  0.00  0.00    -0.050 A 
ATOM     16  C   UNL     1       0.248  -3.068  -4.646  0.00  0.00    +0.007 A 
ATOM     17  C   UNL     1       1.164  -3.425  -3.675  0.00  0.00    +0.046 A 
ATOM     18  C   UNL     1       0.732  -3.710  -2.388  0.00  0.00    +0.130 A 
ATOM     19  C   UNL     1      -0.619  -3.635  -2.079  0.00  0.00    +0.046 A 
ATOM     20  C   UNL     1      -1.530  -3.272  -3.053  0.00  0.00    +0.007 A 
ENDBRANCH  13  18
ENDBRANCH   1  13
BRANCH   2  21
ATOM     21  C   UNL     1       0.718  -6.739  -0.294  0.00  0.00    -0.035 C 
BRANCH  21  22
ATOM     22  N   UNL     1       2.076  -7.125  -0.699  0.00  0.00    +0.386 N 
ATOM     23  H   UNL     1       2.510  -6.360  -1.193  0.00  0.00    -0.081 HD
BRANCH  22  24
ATOM     24  C   UNL     1       2.869  -7.450   0.495  0.00  0.00    -0.074 C 
ATOM     25  C   UNL     1       3.110  -6.177   1.309  0.00  0.00    -0.014 C 
ATOM     26  C   UNL     1       2.109  -8.466   1.351  0.00  0.00    -0.014 C 
ENDBRANCH  22  24
BRANCH  22  27
ATOM     27  C   UNL     1       2.010  -8.301  -1.577  0.00  0.00    -0.046 C 
BRANCH  27  28
ATOM     28  C   UNL     1       3.412  -8.631  -2.093  0.00  0.00    +0.098 C 
BRANCH  28  29
ATOM     29  O   UNL     1       3.886  -7.555  -2.906  0.00  0.00    -0.394 OA
ATOM     30  H   UNL     1       3.333  -7.372  -3.678  0.00  0.00    +0.210 HD
ENDBRANCH  28  29
BRANCH  28  31
ATOM     31  C   UNL     1       3.360  -9.914  -2.925  0.00  0.00    +0.033 C 
BRANCH  31  32
ATOM     32  C   UNL     1       4.779 -10.313  -3.337  0.00  0.00    +0.029 C 
BRANCH  32  33
ATOM     33  C   UNL     1       4.727 -11.576  -4.157  0.00  0.00    -0.034 C 
ATOM     34  C   UNL     1       5.270 -11.606  -5.348  0.00  0.00    +0.004 C 
ENDBRANCH  32  33
ENDBRANCH  31  32
ENDBRANCH  28  31
ENDBRANCH  27  28
ENDBRANCH  22  27
ENDBRANCH  21  22
ENDBRANCH   2  21
TORSDOF 12
