REMARK  Name = ZINC35694940
REMARK  11 active torsions:
REMARK  status: ('A' for Active; 'I' for Inactive)
REMARK    1  A    between atoms: C_1  and  C_2
REMARK    2  A    between atoms: C_5  and  N_8
REMARK    3  A    between atoms: C_10  and  C_30
REMARK    4  A    between atoms: C_14  and  C_16
REMARK    5  A    between atoms: C_16  and  N_17
REMARK    6  A    between atoms: N_17  and  C_18
REMARK    7  A    between atoms: C_18  and  C_19
REMARK    8  A    between atoms: C_19  and  N_20
REMARK    9  A    between atoms: N_20  and  C_21
REMARK   10  A    between atoms: N_20  and  C_22
REMARK   11  A    between atoms: C_23  and  C_25
REMARK                            x       y       z     vdW  Elec       q    Type
REMARK                         _______ _______ _______ _____ _____    ______ ____
ROOT
ATOM      1  N   UNL     1      -1.004  -6.678   0.332  0.00  0.00    -0.287 N 
ATOM      2  C   UNL     1      -1.730  -7.821   0.102  0.00  0.00    +0.122 A 
ATOM      3  C   UNL     1      -1.061  -8.838   0.702  0.00  0.00    +0.091 A 
ATOM      4  N   UNL     1       0.046  -8.326   1.281  0.00  0.00    -0.214 NA
ATOM      5  C   UNL     1       0.091  -7.036   1.061  0.00  0.00    +0.207 A 
ATOM      6  N   UNL     1       1.088  -6.175   1.500  0.00  0.00    -0.254 N 
ATOM      7  C   UNL     1       2.125  -6.653   2.216  0.00  0.00    +0.237 C 
ATOM      8  O   UNL     1       2.187  -7.835   2.477  0.00  0.00    -0.274 OA
ATOM      9  H   UNL     1       1.039  -5.229   1.291  0.00  0.00    +0.158 HD
ENDROOT
BRANCH   1  14
ATOM     10  C   UNL     1      -2.307  -1.448  -1.445  0.00  0.00    +0.044 C 
ATOM     11  C   UNL     1      -1.961  -2.836  -0.973  0.00  0.00    -0.050 A 
ATOM     12  C   UNL     1      -1.972  -3.891  -1.867  0.00  0.00    +0.005 A 
ATOM     13  C   UNL     1      -1.655  -5.165  -1.438  0.00  0.00    +0.026 A 
ATOM     14  C   UNL     1      -1.325  -5.386  -0.107  0.00  0.00    +0.049 A 
ATOM     15  C   UNL     1      -1.315  -4.325   0.787  0.00  0.00    +0.026 A 
ATOM     16  C   UNL     1      -1.627  -3.052   0.351  0.00  0.00    +0.005 A 
ENDBRANCH   1  14
BRANCH   3  17
ATOM     17  C   UNL     1      -1.473 -10.263   0.717  0.00  0.00    +0.002 A 
ATOM     18  C   UNL     1      -2.643 -10.660   0.071  0.00  0.00    +0.011 A 
ATOM     19  C   UNL     1      -3.021 -11.987   0.088  0.00  0.00    +0.020 A 
ATOM     20  C   UNL     1      -2.242 -12.923   0.746  0.00  0.00    +0.041 A 
ATOM     21  C   UNL     1      -1.080 -12.534   1.389  0.00  0.00    +0.020 A 
ATOM     22  C   UNL     1      -0.689 -11.211   1.373  0.00  0.00    +0.011 A 
ATOM     23 CL   UNL     1      -2.725 -14.591   0.765  0.00  0.00    -0.084 Cl
ENDBRANCH   3  17
BRANCH   7  24
ATOM     24  C   UNL     1       3.207  -5.718   2.692  0.00  0.00    +0.203 C 
BRANCH  24  25
ATOM     25  N   UNL     1       4.211  -6.476   3.442  0.00  0.00    -0.294 N 
ATOM     26  C   UNL     1       4.128  -6.561   4.785  0.00  0.00    +0.219 C 
ATOM     27  O   UNL     1       5.009  -7.106   5.414  0.00  0.00    -0.275 OA
BRANCH  26  28
ATOM     28  C   UNL     1       2.938  -5.978   5.504  0.00  0.00    +0.075 C 
ATOM     29  C   UNL     1       3.238  -4.527   5.931  0.00  0.00    +0.013 C 
ATOM     30  C   UNL     1       2.551  -4.387   7.312  0.00  0.00    +0.001 C 
ATOM     31  C   UNL     1       2.807  -5.770   7.962  0.00  0.00    +0.001 C 
ATOM     32  C   UNL     1       2.664  -6.769   6.796  0.00  0.00    +0.013 C 
ENDBRANCH  26  28
BRANCH  25  33
ATOM     33  C   UNL     1       5.307  -7.141   2.733  0.00  0.00    +0.090 C 
BRANCH  33  34
ATOM     34  C   UNL     1       6.537  -6.231   2.728  0.00  0.00    -0.060 C 
BRANCH  34  35
ATOM     35  N   UNL     1       7.636  -6.898   2.017  0.00  0.00    +0.377 N 
ATOM     36  C   UNL     1       7.273  -7.069   0.604  0.00  0.00    -0.097 C 
ATOM     37  C   UNL     1       8.851  -6.079   2.114  0.00  0.00    -0.097 C 
ATOM     38  H   UNL     1       7.806  -7.802   2.432  0.00  0.00    -0.083 HD
ENDBRANCH  34  35
ENDBRANCH  33  34
ENDBRANCH  25  33
ENDBRANCH  24  25
ENDBRANCH   7  24
TORSDOF 8
