REMARK  Name = ZINC63573494
REMARK  8 active torsions:
REMARK  status: ('A' for Active; 'I' for Inactive)
REMARK    1  A    between atoms: C_1  and  C_2
REMARK    2  A    between atoms: C_5  and  C_8
REMARK    3  A    between atoms: C_15  and  O_20
REMARK    4  A    between atoms: O_20  and  C_21
REMARK    5  A    between atoms: N_27  and  C_28
REMARK    6  A    between atoms: C_30  and  C_36
REMARK    7  A    between atoms: C_33  and  O_34
REMARK    8  A    between atoms: O_34  and  C_35
REMARK                            x       y       z     vdW  Elec       q    Type
REMARK                         _______ _______ _______ _____ _____    ______ ____
ROOT
ATOM      1  C   UNL     1      -0.617  -4.511  -0.358  0.00  0.00    +0.134 C 
ATOM      2  C   UNL     1       0.897  -4.734  -0.447  0.00  0.00    +0.131 C 
ATOM      3  C   UNL     1       1.156  -6.153   0.044  0.00  0.00    -0.035 C 
ATOM      4  C   UNL     1       1.806  -6.775  -0.932  0.00  0.00    +0.003 A 
ATOM      5  C   UNL     1       2.381  -8.125  -1.024  0.00  0.00    +0.055 A 
ATOM      6  C   UNL     1       2.984  -8.453  -2.201  0.00  0.00    +0.121 A 
ATOM      7  C   UNL     1       3.080  -7.588  -3.300  0.00  0.00    +0.047 A 
ATOM      8  C   UNL     1       2.589  -6.322  -3.321  0.00  0.00    +0.029 A 
ATOM      9  C   UNL     1       1.917  -5.850  -2.103  0.00  0.00    +0.043 A 
ATOM     10  N   UNL     1       1.375  -4.679  -1.829  0.00  0.00    -0.375 N 
ATOM     11  C   UNL     1       0.647  -6.657   1.373  0.00  0.00    +0.052 C 
ATOM     12  C   UNL     1      -0.854  -6.318   1.429  0.00  0.00    +0.114 C 
ATOM     13  N   UNL     1      -1.060  -4.937   0.979  0.00  0.00    -0.276 N 
ATOM     14  C   UNL     1      -1.658  -4.050   1.799  0.00  0.00    +0.307 C 
ATOM     15  O   UNL     1      -1.962  -2.949   1.384  0.00  0.00    -0.252 OA
ATOM     16  N   UNL     1      -1.919  -4.385   3.078  0.00  0.00    -0.266 N 
ATOM     17  H   UNL     1      -1.617  -5.237   3.428  0.00  0.00    +0.156 HD
ATOM     18  H   UNL     1       1.296  -3.919  -2.427  0.00  0.00    +0.160 HD
ENDROOT
BRANCH   1  23
ATOM     19  C   UNL     1      -1.816   1.091  -1.116  0.00  0.00    +0.044 C 
ATOM     20  C   UNL     1      -1.503  -0.369  -0.918  0.00  0.00    -0.050 A 
ATOM     21  C   UNL     1      -2.262  -1.331  -1.559  0.00  0.00    +0.004 A 
ATOM     22  C   UNL     1      -1.975  -2.671  -1.377  0.00  0.00    +0.006 A 
ATOM     23  C   UNL     1      -0.929  -3.050  -0.556  0.00  0.00    -0.025 A 
ATOM     24  C   UNL     1      -0.170  -2.087   0.084  0.00  0.00    +0.006 A 
ATOM     25  C   UNL     1      -0.454  -0.747  -0.101  0.00  0.00    +0.004 A 
ENDBRANCH   1  23
BRANCH  16  26
ATOM     26  C   UNL     1      -2.627  -3.500   3.903  0.00  0.00    +0.077 A 
ATOM     27  C   UNL     1      -2.612  -2.139   3.637  0.00  0.00    +0.030 A 
ATOM     28  C   UNL     1      -3.311  -1.268   4.452  0.00  0.00    -0.048 A 
ATOM     29  C   UNL     1      -4.026  -1.751   5.533  0.00  0.00    +0.007 A 
ATOM     30  C   UNL     1      -4.045  -3.106   5.804  0.00  0.00    +0.048 A 
ATOM     31  C   UNL     1      -3.352  -3.986   4.988  0.00  0.00    +0.141 A 
ATOM     32  C   UNL     1      -3.294   0.211   4.162  0.00  0.00    +0.044 C 
BRANCH  31  33
ATOM     33  O   UNL     1      -3.375  -5.320   5.250  0.00  0.00    -0.493 OA
ATOM     34  C   UNL     1      -4.139  -5.747   6.380  0.00  0.00    +0.277 C 
ENDBRANCH  31  33
ENDBRANCH  16  26
BRANCH   6  35
ATOM     35  O   UNL     1       3.525  -9.694  -2.316  0.00  0.00    -0.495 OA
ATOM     36  C   UNL     1       4.152 -10.016  -3.560  0.00  0.00    +0.277 C 
ENDBRANCH   6  35
TORSDOF 4
