REMARK  Name = ZINC19921759
REMARK  3 active torsions:
REMARK  status: ('A' for Active; 'I' for Inactive)
REMARK    1  A    between atoms: C_4  and  N_9
REMARK    2  A    between atoms: C_5  and  C_7
REMARK    3  A    between atoms: N_9  and  C_10
REMARK                            x       y       z     vdW  Elec       q    Type
REMARK                         _______ _______ _______ _____ _____    ______ ____
ROOT
ATOM      1  C   UNL     1       4.893   0.144  -0.046  0.00  0.00    +0.190 C 
ATOM      2  C   UNL     1       6.018  -0.688  -0.618  0.00  0.00    +0.003 A 
ATOM      3  C   UNL     1       6.219  -1.271  -1.849  0.00  0.00    +0.010 A 
ATOM      4  C   UNL     1       7.375  -1.992  -2.091  0.00  0.00    +0.039 A 
ATOM      5  C   UNL     1       8.326  -2.125  -1.092  0.00  0.00    +0.125 A 
ATOM      6  C   UNL     1       8.126  -1.540   0.143  0.00  0.00    +0.062 A 
ATOM      7  C   UNL     1       6.964  -0.812   0.393  0.00  0.00    +0.042 A 
ATOM      8  N   UNL     1       6.538  -0.140   1.538  0.00  0.00    -0.283 N 
ATOM      9  C   UNL     1       5.338   0.449   1.368  0.00  0.00    +0.242 C 
ATOM     10  O   UNL     1       4.729   1.099   2.191  0.00  0.00    -0.273 OA
ATOM     11  F   UNL     1       9.454  -2.829  -1.328  0.00  0.00    -0.205 F 
ATOM     12  H   UNL     1       7.047  -0.099   2.363  0.00  0.00    +0.155 HD
ENDROOT
BRANCH   1  13
ATOM     13  N   UNL     1       3.643  -0.620  -0.037  0.00  0.00    -0.328 N 
ATOM     14  H   UNL     1       3.668  -1.590  -0.043  0.00  0.00    +0.147 HD
BRANCH  13  18
ATOM     15  C   UNL     1      -0.017   1.374   0.010  0.00  0.00    +0.001 A 
ATOM     16  C   UNL     1       1.170   2.090   0.002  0.00  0.00    +0.002 A 
ATOM     17  C   UNL     1       2.383   1.432  -0.013  0.00  0.00    +0.024 A 
ATOM     18  C   UNL     1       2.422   0.044  -0.021  0.00  0.00    +0.045 A 
ATOM     19  C   UNL     1       1.222  -0.684  -0.013  0.00  0.00    +0.073 A 
ATOM     20  C   UNL     1       0.002  -0.004   0.002  0.00  0.00    +0.021 A 
BRANCH  19  21
ATOM     21  C   UNL     1       1.249  -2.116  -0.021  0.00  0.00    +0.101 C 
ATOM     22  N   UNL     1       1.270  -3.252  -0.027  0.00  0.00    -0.191 NA
ENDBRANCH  19  21
ENDBRANCH  13  18
ENDBRANCH   1  13
TORSDOF 3
