REMARK  Name = ZINC11789004
REMARK  6 active torsions:
REMARK  status: ('A' for Active; 'I' for Inactive)
REMARK    1  A    between atoms: C_1  and  C_2
REMARK    2  A    between atoms: C_2  and  C_4
REMARK    3  A    between atoms: C_2  and  N_47
REMARK    4  A    between atoms: C_12  and  C_13
REMARK    5  A    between atoms: C_12  and  N_47
REMARK    6  A    between atoms: C_22  and  C_23
REMARK                            x       y       z     vdW  Elec       q    Type
REMARK                         _______ _______ _______ _____ _____    ______ ____
ROOT
ATOM      1  C   UNL     1      -0.609   8.074  -0.188  0.00  0.00    -0.038 A 
ATOM      2  C   UNL     1      -0.904   9.006   0.763  0.00  0.00    +0.014 A 
ATOM      3  C   UNL     1      -0.148  10.194   0.793  0.00  0.00    +0.004 A 
ATOM      4  C   UNL     1      -0.400  11.191   1.748  0.00  0.00    +0.059 A 
ATOM      5  C   UNL     1       0.349  12.332   1.751  0.00  0.00    +0.167 A 
ATOM      6  C   UNL     1       1.373  12.519   0.806  0.00  0.00    +0.168 A 
ATOM      7  C   UNL     1       1.638  11.565  -0.133  0.00  0.00    +0.078 A 
ATOM      8  C   UNL     1       0.884  10.379  -0.161  0.00  0.00    +0.075 A 
ATOM      9  N   UNL     1       1.129   9.432  -1.071  0.00  0.00    -0.246 NA
ATOM     10  C   UNL     1       0.429   8.314  -1.101  0.00  0.00    +0.073 A 
ATOM     11  O   UNL     1       1.954  13.733   1.036  0.00  0.00    -0.453 OA
ATOM     12  C   UNL     1       1.564  14.101   2.371  0.00  0.00    +0.466 C 
ATOM     13  O   UNL     1       0.304  13.431   2.561  0.00  0.00    -0.453 OA
ENDROOT
BRANCH  10  14
ATOM     14  C   UNL     1       0.743   7.290  -2.126  0.00  0.00    +0.001 A 
ATOM     15  C   UNL     1       2.058   6.866  -2.311  0.00  0.00    +0.013 A 
ATOM     16  C   UNL     1       2.345   5.910  -3.263  0.00  0.00    +0.039 A 
ATOM     17  C   UNL     1       1.330   5.377  -4.041  0.00  0.00    +0.123 A 
ATOM     18  C   UNL     1       0.022   5.799  -3.864  0.00  0.00    +0.039 A 
ATOM     19  C   UNL     1      -0.275   6.751  -2.912  0.00  0.00    +0.013 A 
ATOM     20  F   UNL     1       1.616   4.445  -4.976  0.00  0.00    -0.205 F 
ENDBRANCH  10  14
BRANCH   1  21
ATOM     21  C   UNL     1      -1.392   6.789  -0.255  0.00  0.00    -0.044 C 
BRANCH  21  22
ATOM     22  N   UNL     1      -0.547   5.682   0.232  0.00  0.00    +0.388 N 
ATOM     23  H   UNL     1       0.291   5.611  -0.357  0.00  0.00    -0.084 HD
ATOM     24  H   UNL     1      -0.269   5.870   1.202  0.00  0.00    -0.084 HD
BRANCH  22  26
ATOM     25  C   UNL     1      -2.124   4.249   1.450  0.00  0.00    -0.006 C 
ATOM     26  C   UNL     1      -1.290   4.409   0.177  0.00  0.00    -0.005 C 
BRANCH  26  27
ATOM     27  C   UNL     1      -0.310   3.269   0.073  0.00  0.00    +0.117 A 
ATOM     28  N   UNL     1      -0.631   1.933   0.095  0.00  0.00    -0.295 N 
ATOM     29  H   UNL     1      -1.525   1.566   0.180  0.00  0.00    +0.172 HD
ATOM     30  C   UNL     1       0.508   1.221  -0.019  0.00  0.00    +0.341 A 
ATOM     31  O   UNL     1       0.600   0.006  -0.033  0.00  0.00    -0.245 OA
ATOM     32  N   UNL     1       1.526   2.101  -0.120  0.00  0.00    -0.227 N 
ATOM     33  H   UNL     1       2.466   1.884  -0.217  0.00  0.00    +0.194 HD
ATOM     34  N   UNL     1       0.972   3.388  -0.058  0.00  0.00    -0.158 NA
ENDBRANCH  26  27
ENDBRANCH  22  26
ENDBRANCH  21  22
ENDBRANCH   1  21
TORSDOF 5
