REMARK  Name = ZINC25244431
REMARK  7 active torsions:
REMARK  status: ('A' for Active; 'I' for Inactive)
REMARK    1  A    between atoms: C_1  and  C_2
REMARK    2  A    between atoms: C_5  and  C_8
REMARK    3  A    between atoms: C_9  and  C_35
REMARK    4  A    between atoms: C_17  and  C_19
REMARK    5  A    between atoms: C_19  and  S_20
REMARK    6  A    between atoms: S_20  and  C_21
REMARK    7  A    between atoms: N_25  and  C_26
REMARK                            x       y       z     vdW  Elec       q    Type
REMARK                         _______ _______ _______ _____ _____    ______ ____
ROOT
ATOM      1  C   UNL     1       0.720  -3.703   0.043  0.00  0.00    +0.007 A 
ATOM      2  C   UNL     1      -0.371  -4.298  -0.497  0.00  0.00    -0.003 A 
ATOM      3  S   UNL     1      -0.021  -6.037  -0.322  0.00  0.00    -0.073 S 
ATOM      4  C   UNL     1       1.565  -5.926   0.464  0.00  0.00    +0.116 A 
ATOM      5  C   UNL     1       1.790  -4.543   0.567  0.00  0.00    +0.080 A 
ATOM      6  C   UNL     1       3.028  -4.160   1.174  0.00  0.00    +0.260 A 
ATOM      7  O   UNL     1       3.311  -2.982   1.313  0.00  0.00    -0.267 OA
ATOM      8  N   UNL     1       3.875  -5.120   1.590  0.00  0.00    -0.310 N 
ATOM      9  H   UNL     1       4.716  -4.866   2.002  0.00  0.00    +0.170 HD
ATOM     10  C   UNL     1       3.576  -6.436   1.445  0.00  0.00    +0.121 A 
ATOM     11  N   UNL     1       2.450  -6.817   0.905  0.00  0.00    -0.226 NA
ATOM     12  C   UNL     1      -1.588  -3.645  -1.101  0.00  0.00    +0.052 C 
ENDROOT
BRANCH   1  17
ATOM     13  C   UNL     1       1.133   2.037   0.242  0.00  0.00    +0.044 C 
ATOM     14  C   UNL     1       1.025   0.535   0.190  0.00  0.00    -0.050 A 
ATOM     15  C   UNL     1       1.001  -0.112  -1.032  0.00  0.00    +0.004 A 
ATOM     16  C   UNL     1       0.902  -1.487  -1.086  0.00  0.00    +0.009 A 
ATOM     17  C   UNL     1       0.827  -2.225   0.094  0.00  0.00    -0.016 A 
ATOM     18  C   UNL     1       0.852  -1.568   1.323  0.00  0.00    +0.009 A 
ATOM     19  C   UNL     1       0.956  -0.192   1.365  0.00  0.00    +0.004 A 
ENDBRANCH   1  17
BRANCH  10  20
ATOM     20  C   UNL     1       4.555  -7.476   1.926  0.00  0.00    +0.151 C 
BRANCH  20  21
ATOM     21  S   UNL     1       3.888  -9.131   1.601  0.00  0.00    -0.078 S 
BRANCH  21  22
ATOM     22  C   UNL     1       5.132 -10.219   2.212  0.00  0.00    +0.193 A 
ATOM     23  N   UNL     1       6.262  -9.861   2.772  0.00  0.00    -0.121 NA
ATOM     24  N   UNL     1       6.962 -11.025   3.116  0.00  0.00    -0.112 NA
ATOM     25  C   UNL     1       6.238 -12.055   2.754  0.00  0.00    +0.221 A 
ATOM     26  N   UNL     1       5.085 -11.585   2.191  0.00  0.00    -0.287 N 
ATOM     27  N   UNL     1       6.580 -13.392   2.919  0.00  0.00    -0.295 N 
ATOM     28  C   UNL     1       5.628 -14.463   2.587  0.00  0.00    +0.136 C 
ATOM     29  C   UNL     1       6.337 -15.476   1.681  0.00  0.00    +0.179 C 
ATOM     30  O   UNL     1       7.561 -15.883   2.298  0.00  0.00    -0.377 OA
ATOM     31  C   UNL     1       8.503 -14.823   2.484  0.00  0.00    +0.179 C 
ATOM     32  C   UNL     1       7.906 -13.777   3.426  0.00  0.00    +0.136 C 
BRANCH  26  33
ATOM     33  C   UNL     1       3.993 -12.401   1.656  0.00  0.00    +0.093 C 
ATOM     34  C   UNL     1       4.203 -13.051   0.286  0.00  0.00    +0.027 C 
ATOM     35  C   UNL     1       3.246 -11.867   0.433  0.00  0.00    +0.027 C 
ENDBRANCH  26  33
ENDBRANCH  21  22
ENDBRANCH  20  21
ENDBRANCH  10  20
TORSDOF 5
