REMARK  Name = ZINC63139105
REMARK  6 active torsions:
REMARK  status: ('A' for Active; 'I' for Inactive)
REMARK    1  A    between atoms: C_1  and  O_2
REMARK    2  A    between atoms: O_2  and  C_3
REMARK    3  A    between atoms: C_6  and  C_9
REMARK    4  A    between atoms: N_22  and  C_25
REMARK    5  A    between atoms: C_25  and  C_26
REMARK    6  A    between atoms: C_26  and  C_27
REMARK                            x       y       z     vdW  Elec       q    Type
REMARK                         _______ _______ _______ _____ _____    ______ ____
ROOT
ATOM      1  C   UNL     1      -4.981  -2.629   0.035  0.00  0.00    +0.132 C 
ATOM      2  C   UNL     1      -5.249  -3.191   1.435  0.00  0.00    +0.134 C 
ATOM      3  C   UNL     1      -4.428  -4.465   1.705  0.00  0.00    +0.030 C 
ATOM      4  C   UNL     1      -4.378  -5.454   0.573  0.00  0.00    +0.038 C 
ATOM      5  C   UNL     1      -4.003  -4.778  -0.746  0.00  0.00    +0.163 C 
ATOM      6  N   UNL     1      -4.965  -3.716  -0.952  0.00  0.00    -0.279 N 
ATOM      7  C   UNL     1      -5.808  -3.707  -1.985  0.00  0.00    +0.234 C 
ATOM      8  O   UNL     1      -6.460  -2.704  -2.184  0.00  0.00    -0.274 OA
ATOM      9  C   UNL     1      -5.992  -4.867  -2.914  0.00  0.00    +0.203 C 
ATOM     10  N   UNL     1      -4.885  -5.808  -2.823  0.00  0.00    -0.291 N 
ATOM     11  C   UNL     1      -4.019  -5.753  -1.875  0.00  0.00    +0.237 C 
ATOM     12  O   UNL     1      -3.160  -6.609  -1.902  0.00  0.00    -0.274 OA
ATOM     13  C   UNL     1      -3.069  -3.853   2.045  0.00  0.00    +0.065 C 
ATOM     14  C   UNL     1      -2.258  -4.699   2.975  0.00  0.00    -0.017 C 
ATOM     15  C   UNL     1      -1.646  -4.171   4.031  0.00  0.00    -0.004 C 
ATOM     16  C   UNL     1      -1.730  -2.751   4.361  0.00  0.00    +0.001 C 
ATOM     17  C   UNL     1      -2.638  -1.955   3.740  0.00  0.00    +0.023 C 
ATOM     18  C   UNL     1      -3.464  -2.559   2.738  0.00  0.00    +0.043 C 
ATOM     19  N   UNL     1      -4.683  -2.196   2.384  0.00  0.00    -0.282 NA
ENDROOT
BRANCH   1  23
ATOM     20  C   UNL     1      -1.200  -0.638   0.010  0.00  0.00    +0.120 A 
ATOM     21  C   UNL     1      -2.198  -0.224   0.881  0.00  0.00    +0.046 A 
ATOM     22  C   UNL     1      -3.419  -0.869   0.887  0.00  0.00    +0.009 A 
ATOM     23  C   UNL     1      -3.648  -1.927   0.026  0.00  0.00    -0.025 A 
ATOM     24  C   UNL     1      -2.655  -2.341  -0.842  0.00  0.00    +0.009 A 
ATOM     25  C   UNL     1      -1.434  -1.696  -0.857  0.00  0.00    +0.046 A 
BRANCH  20  27
ATOM     26  C   UNL     1       0.172   1.076   0.921  0.00  0.00    +0.277 C 
ATOM     27  O   UNL     1       0.002  -0.004   0.002  0.00  0.00    -0.495 OA
ENDBRANCH  20  27
ENDBRANCH   1  23
BRANCH  10  28
ATOM     28  C   UNL     1      -4.756  -6.833  -3.861  0.00  0.00    +0.113 C 
BRANCH  28  29
ATOM     29  C   UNL     1      -3.888  -6.298  -5.001  0.00  0.00    +0.052 C 
BRANCH  29  30
ATOM     30  C   UNL     1      -3.755  -7.353  -6.069  0.00  0.00    -0.040 C 
ATOM     31  C   UNL     1      -4.505  -7.477  -7.188  0.00  0.00    -0.001 A 
ATOM     32  C   UNL     1      -5.627  -6.697  -7.724  0.00  0.00    +0.010 A 
ATOM     33  C   UNL     1      -6.189  -7.075  -8.895  0.00  0.00    +0.001 A 
ATOM     34  C   UNL     1      -5.727  -8.191  -9.607  0.00  0.00    +0.002 A 
ATOM     35  C   UNL     1      -4.701  -8.956  -9.179  0.00  0.00    +0.026 A 
ATOM     36  C   UNL     1      -4.037  -8.650  -7.959  0.00  0.00    +0.043 A 
ATOM     37  N   UNL     1      -3.036  -9.229  -7.341  0.00  0.00    -0.380 N 
ATOM     38  C   UNL     1      -2.752  -8.484  -6.110  0.00  0.00    +0.144 C 
ATOM     39  H   UNL     1      -2.559 -10.016  -7.649  0.00  0.00    +0.160 HD
ENDBRANCH  29  30
ENDBRANCH  28  29
ENDBRANCH  10  28
TORSDOF 5
