REMARK  Name = ZINC09598341
REMARK  11 active torsions:
REMARK  status: ('A' for Active; 'I' for Inactive)
REMARK    1  A    between atoms: C_1  and  C_2
REMARK    2  A    between atoms: C_5  and  N_8
REMARK    3  A    between atoms: C_9  and  C_11
REMARK    4  A    between atoms: C_12  and  C_40
REMARK    5  A    between atoms: C_16  and  C_18
REMARK    6  A    between atoms: C_21  and  C_23
REMARK    7  A    between atoms: C_27  and  C_30
REMARK    8  A    between atoms: C_33  and  O_38
REMARK    9  A    between atoms: C_34  and  O_36
REMARK   10  A    between atoms: O_36  and  C_37
REMARK   11  A    between atoms: O_38  and  C_39
REMARK                            x       y       z     vdW  Elec       q    Type
REMARK                         _______ _______ _______ _____ _____    ______ ____
ROOT
ATOM      1  C   UNL     1      -2.513   3.924   0.149  0.00  0.00    +0.046 C 
ATOM      2  C   UNL     1      -2.591   5.265   0.152  0.00  0.00    +0.014 C 
ATOM      3  N   UNL     1      -3.799   5.889   0.008  0.00  0.00    -0.321 N 
ATOM      4  C   UNL     1      -4.870   5.223  -0.525  0.00  0.00    +0.016 C 
ATOM      5  C   UNL     1      -4.888   3.874  -0.561  0.00  0.00    +0.027 C 
ATOM      6  C   UNL     1      -3.738   3.073  -0.009  0.00  0.00    +0.126 C 
ATOM      7  C   UNL     1      -5.974   3.178  -1.120  0.00  0.00    +0.162 C 
ATOM      8  O   UNL     1      -5.962   1.963  -1.129  0.00  0.00    -0.292 OA
ATOM      9  C   UNL     1      -7.150   3.909  -1.706  0.00  0.00    +0.088 C 
ATOM     10  C   UNL     1      -6.683   5.274  -2.221  0.00  0.00    +0.032 C 
ATOM     11  C   UNL     1      -6.024   6.030  -1.065  0.00  0.00    +0.059 C 
ATOM     12  C   UNL     1      -1.338   6.087   0.314  0.00  0.00    +0.061 C 
ATOM     13  H   UNL     1      -3.918   6.937   0.322  0.00  0.00    +0.152 HD
ENDROOT
BRANCH   6  14
ATOM     14  C   UNL     1      -3.431   1.933  -0.946  0.00  0.00    +0.117 A 
ATOM     15  C   UNL     1      -3.483   0.625  -0.636  0.00  0.00    +0.046 A 
ATOM     16  C   UNL     1      -3.124  -0.087  -1.804  0.00  0.00    +0.044 A 
ATOM     17  C   UNL     1      -2.866   0.829  -2.754  0.00  0.00    +0.102 A 
ATOM     18  O   UNL     1      -3.053   2.050  -2.229  0.00  0.00    -0.464 OA
ATOM     19  C   UNL     1      -2.438   0.534  -4.169  0.00  0.00    +0.086 C 
ENDBRANCH   6  14
BRANCH  10  20
ATOM     20  C   UNL     1      -7.867   6.057  -2.728  0.00  0.00    -0.040 A 
ATOM     21  C   UNL     1      -8.911   6.358  -1.874  0.00  0.00    +0.008 A 
ATOM     22  C   UNL     1      -9.997   7.080  -2.333  0.00  0.00    +0.049 A 
ATOM     23  C   UNL     1     -10.046   7.494  -3.655  0.00  0.00    +0.161 A 
ATOM     24  C   UNL     1      -8.997   7.186  -4.516  0.00  0.00    +0.162 A 
ATOM     25  C   UNL     1      -7.909   6.467  -4.048  0.00  0.00    +0.053 A 
BRANCH  24  26
ATOM     26  O   UNL     1      -9.039   7.590  -5.813  0.00  0.00    -0.491 OA
ATOM     27  C   UNL     1      -7.928   7.239  -6.639  0.00  0.00    +0.277 C 
ENDBRANCH  24  26
BRANCH  23  28
ATOM     28  O   UNL     1     -11.116   8.200  -4.109  0.00  0.00    -0.491 OA
ATOM     29  C   UNL     1     -12.155   8.479  -3.169  0.00  0.00    +0.277 C 
ENDBRANCH  23  28
ENDBRANCH  10  20
BRANCH   1  31
ATOM     30  N   UNL     1      -0.435   3.176  -0.776  0.00  0.00    -0.282 N 
ATOM     31  C   UNL     1      -1.248   3.302   0.291  0.00  0.00    +0.247 C 
ATOM     32  O   UNL     1      -0.896   2.881   1.378  0.00  0.00    -0.270 OA
ATOM     33  H   UNL     1      -0.692   3.669  -1.725  0.00  0.00    +0.155 HD
BRANCH  30  38
ATOM     34  C   UNL     1       4.326   0.118  -0.381  0.00  0.00    +0.044 C 
ATOM     35  C   UNL     1       3.061   0.929  -0.485  0.00  0.00    -0.050 A 
ATOM     36  C   UNL     1       2.334   0.926  -1.662  0.00  0.00    +0.005 A 
ATOM     37  C   UNL     1       1.174   1.668  -1.761  0.00  0.00    +0.023 A 
ATOM     38  C   UNL     1       0.737   2.418  -0.677  0.00  0.00    +0.034 A 
ATOM     39  C   UNL     1       1.468   2.419   0.503  0.00  0.00    +0.023 A 
ATOM     40  C   UNL     1       2.628   1.675   0.596  0.00  0.00    +0.005 A 
ENDBRANCH  30  38
ENDBRANCH   1  31
TORSDOF 6
