REMARK  Name = ZINC39939461
REMARK  5 active torsions:
REMARK  status: ('A' for Active; 'I' for Inactive)
REMARK    1  A    between atoms: C_4  and  C_7
REMARK    2  A    between atoms: C_11  and  C_15
REMARK    3  A    between atoms: C_15  and  C_25
REMARK    4  A    between atoms: C_16  and  C_17
REMARK    5  A    between atoms: C_20  and  C_23
REMARK                            x       y       z     vdW  Elec       q    Type
REMARK                         _______ _______ _______ _____ _____    ______ ____
ROOT
ATOM      1  C   UNL     1       5.673  -3.958   4.144  0.00  0.00    +0.079 C 
ATOM      2  C   UNL     1       6.846  -4.590   4.441  0.00  0.00    +0.024 C 
ENDROOT
BRANCH   1   7
ATOM      3  C   UNL     1       5.058  -1.272  -0.729  0.00  0.00    -0.015 C 
ATOM      4  C   UNL     1       5.270  -1.847   0.498  0.00  0.00    +0.075 C 
ATOM      5  C   UNL     1       4.645  -3.156   0.748  0.00  0.00    +0.112 C 
ATOM      6  N   UNL     1       4.805  -3.764   1.899  0.00  0.00    -0.222 NA
ATOM      7  C   UNL     1       5.534  -3.221   2.873  0.00  0.00    +0.159 C 
ATOM      8  N   UNL     1       6.138  -2.050   2.754  0.00  0.00    -0.156 NA
ATOM      9  C   UNL     1       6.066  -1.315   1.644  0.00  0.00    +0.272 C 
ATOM     10  O   UNL     1       6.636  -0.238   1.566  0.00  0.00    -0.268 OA
ATOM     11  S   UNL     1       3.776  -3.544  -0.750  0.00  0.00    -0.100 S 
ATOM     12  C   UNL     1       4.197  -2.034  -1.709  0.00  0.00    +0.112 C 
BRANCH   3  16
ATOM     13  C   UNL     1       6.731   2.490  -1.723  0.00  0.00    +0.000 A 
ATOM     14  C   UNL     1       7.130   1.356  -2.411  0.00  0.00    +0.001 A 
ATOM     15  C   UNL     1       6.591   0.128  -2.095  0.00  0.00    +0.008 A 
ATOM     16  C   UNL     1       5.637   0.029  -1.072  0.00  0.00    -0.020 A 
ATOM     17  C   UNL     1       5.240   1.183  -0.381  0.00  0.00    +0.008 A 
ATOM     18  C   UNL     1       5.789   2.402  -0.712  0.00  0.00    +0.001 A 
ENDBRANCH   3  16
ENDBRANCH   1   7
BRANCH   1  19
ATOM     19  C   UNL     1       4.547  -4.013   5.091  0.00  0.00    +0.250 C 
ATOM     20  O   UNL     1       4.611  -4.730   6.071  0.00  0.00    -0.270 OA
ATOM     21  N   UNL     1       3.446  -3.268   4.872  0.00  0.00    -0.297 N 
ATOM     22  C   UNL     1       3.196  -2.436   3.685  0.00  0.00    +0.108 C 
ATOM     23  C   UNL     1       1.828  -1.751   3.885  0.00  0.00    +0.020 C 
ATOM     24  C   UNL     1       1.640  -1.792   5.425  0.00  0.00    +0.020 C 
ATOM     25  C   UNL     1       2.289  -3.156   5.779  0.00  0.00    +0.108 C 
ENDBRANCH   1  19
BRANCH   2  26
ATOM     26  C   UNL     1       7.927  -4.635   3.450  0.00  0.00    -0.024 A 
ATOM     27  C   UNL     1       9.262  -4.536   3.863  0.00  0.00    +0.009 A 
ATOM     28  C   UNL     1      10.267  -4.578   2.939  0.00  0.00    +0.019 A 
ATOM     29  C   UNL     1       9.964  -4.721   1.581  0.00  0.00    +0.052 A 
ATOM     30  C   UNL     1       8.633  -4.820   1.167  0.00  0.00    +0.019 A 
ATOM     31  C   UNL     1       7.625  -4.784   2.089  0.00  0.00    +0.009 A 
BRANCH  29  32
ATOM     32  C   UNL     1      11.019  -4.764   0.614  0.00  0.00    +0.099 C 
ATOM     33  N   UNL     1      11.856  -4.799  -0.154  0.00  0.00    -0.191 NA
ENDBRANCH  29  32
ENDBRANCH   2  26
TORSDOF 5
