REMARK  Name = ZINC23293693
REMARK  7 active torsions:
REMARK  status: ('A' for Active; 'I' for Inactive)
REMARK    1  A    between atoms: C_1  and  C_2
REMARK    2  A    between atoms: C_2  and  C_4
REMARK    3  A    between atoms: C_2  and  N_12
REMARK    4  A    between atoms: C_13  and  C_15
REMARK    5  A    between atoms: C_15  and  N_16
REMARK    6  A    between atoms: C_19  and  C_23
REMARK    7  A    between atoms: C_19  and  C_24
REMARK                            x       y       z     vdW  Elec       q    Type
REMARK                         _______ _______ _______ _____ _____    ______ ____
ROOT
ATOM      1  N   UNL     1      -1.680  -0.213  -0.865  0.00  0.00    -0.215 N 
ATOM      2  C   UNL     1      -2.462  -0.621   0.153  0.00  0.00    +0.251 C 
ATOM      3  O   UNL     1      -2.147  -0.739   1.318  0.00  0.00    -0.272 OA
ATOM      4  C   UNL     1      -3.820  -0.901  -0.460  0.00  0.00    +0.135 C 
ATOM      5  N   UNL     1      -3.625  -0.597  -1.888  0.00  0.00    -0.281 N 
ATOM      6  C   UNL     1      -2.346  -0.203  -2.026  0.00  0.00    +0.310 C 
ATOM      7  O   UNL     1      -1.850   0.124  -3.086  0.00  0.00    -0.252 OA
ATOM      8  C   UNL     1      -4.203  -2.371  -0.271  0.00  0.00    +0.047 C 
ATOM      9  H   UNL     1      -4.459  -0.715  -2.595  0.00  0.00    +0.152 HD
ENDROOT
BRANCH   4  10
ATOM     10  C   UNL     1      -4.871  -0.000   0.135  0.00  0.00    -0.012 A 
ATOM     11  C   UNL     1      -4.787   0.372   1.464  0.00  0.00    +0.010 A 
ATOM     12  C   UNL     1      -5.748   1.200   2.017  0.00  0.00    +0.050 A 
ATOM     13  C   UNL     1      -6.796   1.654   1.234  0.00  0.00    +0.162 A 
ATOM     14  C   UNL     1      -6.881   1.279  -0.099  0.00  0.00    +0.162 A 
ATOM     15  C   UNL     1      -5.915   0.455  -0.651  0.00  0.00    +0.055 A 
ATOM     16  O   UNL     1      -7.918   1.732  -0.862  0.00  0.00    -0.488 OA
ATOM     17  C   UNL     1      -9.209   1.221  -0.527  0.00  0.00    +0.232 C 
ATOM     18  C   UNL     1      -9.833   2.029   0.601  0.00  0.00    +0.082 C 
ATOM     19  C   UNL     1      -9.055   1.904   1.901  0.00  0.00    +0.232 C 
ATOM     20  O   UNL     1      -7.750   2.471   1.767  0.00  0.00    -0.488 OA
ENDBRANCH   4  10
BRANCH   1  21
ATOM     21  C   UNL     1      -0.273   0.167  -0.721  0.00  0.00    +0.213 C 
BRANCH  21  23
ATOM     22  N   UNL     1       1.028   2.221  -0.265  0.00  0.00    -0.307 N 
ATOM     23  C   UNL     1      -0.178   1.644  -0.437  0.00  0.00    +0.231 C 
ATOM     24  O   UNL     1      -1.187   2.314  -0.367  0.00  0.00    -0.274 OA
ATOM     25  H   UNL     1       1.943   1.615  -0.332  0.00  0.00    +0.149 HD
BRANCH  22  27
ATOM     26  C   UNL     1       1.010   3.895   1.518  0.00  0.00    +0.033 C 
ATOM     27  C   UNL     1       1.120   3.657   0.011  0.00  0.00    +0.102 C 
BRANCH  27  28
ATOM     28  C   UNL     1       2.443   4.180  -0.485  0.00  0.00    -0.009 A 
ATOM     29  C   UNL     1       3.535   3.336  -0.563  0.00  0.00    +0.008 A 
ATOM     30  C   UNL     1       4.748   3.814  -1.018  0.00  0.00    +0.020 A 
ATOM     31  C   UNL     1       4.872   5.140  -1.396  0.00  0.00    +0.042 A 
ATOM     32  C   UNL     1       3.781   5.986  -1.317  0.00  0.00    +0.040 A 
ATOM     33  C   UNL     1       2.564   5.505  -0.867  0.00  0.00    +0.047 A 
ATOM     34 CL   UNL     1       1.192   6.564  -0.774  0.00  0.00    -0.083 Cl
ATOM     35 CL   UNL     1       6.397   5.741  -1.967  0.00  0.00    -0.083 Cl
ENDBRANCH  27  28
ENDBRANCH  22  27
ENDBRANCH  21  23
ENDBRANCH   1  21
TORSDOF 5
