REMARK  Name = ZINC67293349
REMARK  5 active torsions:
REMARK  status: ('A' for Active; 'I' for Inactive)
REMARK    1  A    between atoms: C_8  and  C_10
REMARK    2  A    between atoms: C_15  and  O_32
REMARK    3  A    between atoms: N_20  and  C_21
REMARK    4  A    between atoms: C_24  and  O_27
REMARK    5  A    between atoms: O_27  and  C_28
REMARK                            x       y       z     vdW  Elec       q    Type
REMARK                         _______ _______ _______ _____ _____    ______ ____
ROOT
ATOM      1  C   UNL     1       0.168  -4.203   0.237  0.00  0.00    +0.098 A 
ATOM      2  C   UNL     1      -1.006  -4.942   0.233  0.00  0.00    +0.030 A 
ATOM      3  C   UNL     1      -0.909  -6.355   0.313  0.00  0.00    +0.018 A 
ATOM      4  C   UNL     1      -2.043  -7.156   0.112  0.00  0.00    +0.015 A 
ATOM      5  C   UNL     1      -1.930  -8.515   0.149  0.00  0.00    +0.046 A 
ATOM      6  C   UNL     1      -0.696  -9.116   0.394  0.00  0.00    +0.120 A 
ATOM      7  C   UNL     1       0.432  -8.340   0.614  0.00  0.00    +0.092 A 
ATOM      8  C   UNL     1       0.334  -6.959   0.587  0.00  0.00    +0.141 A 
ATOM      9  O   UNL     1       1.421  -6.191   0.844  0.00  0.00    -0.438 OA
ATOM     10  C   UNL     1       1.441  -4.950   0.283  0.00  0.00    +0.212 A 
ATOM     11  N   UNL     1       2.551  -4.434  -0.195  0.00  0.00    -0.325 N 
ATOM     12  H   UNL     1       2.526  -3.596  -0.683  0.00  0.00    +0.169 HD
ENDROOT
BRANCH   1  20
ATOM     13  C   UNL     1       0.153   1.414  -0.144  0.00  0.00    +0.005 A 
ATOM     14  C   UNL     1       1.234   2.077   0.421  0.00  0.00    +0.020 A 
ATOM     15  C   UNL     1       2.286   1.343   0.933  0.00  0.00    +0.113 A 
ATOM     16  N   UNL     1       2.274   0.024   0.890  0.00  0.00    -0.240 NA
ATOM     17  C   UNL     1       1.262  -0.644   0.360  0.00  0.00    +0.125 A 
ATOM     18  C   UNL     1       0.169   0.031  -0.173  0.00  0.00    +0.044 A 
ATOM     19  N   UNL     1       1.292  -2.037   0.336  0.00  0.00    -0.266 N 
ATOM     20  C   UNL     1       0.147  -2.733   0.189  0.00  0.00    +0.254 C 
ATOM     21  O   UNL     1      -0.904  -2.145   0.018  0.00  0.00    -0.270 OA
ATOM     22  H   UNL     1       2.136  -2.506   0.425  0.00  0.00    +0.157 HD
ENDBRANCH   1  20
BRANCH  11  23
ATOM     23  C   UNL     1       3.744  -5.078  -0.004  0.00  0.00    +0.042 A 
ATOM     24  C   UNL     1       4.063  -5.604   1.250  0.00  0.00    +0.029 A 
ATOM     25  C   UNL     1       5.265  -6.253   1.438  0.00  0.00    +0.048 A 
ATOM     26  C   UNL     1       6.158  -6.384   0.384  0.00  0.00    +0.130 A 
ATOM     27  C   UNL     1       5.845  -5.863  -0.865  0.00  0.00    +0.048 A 
ATOM     28  C   UNL     1       4.643  -5.217  -1.063  0.00  0.00    +0.029 A 
BRANCH  26  29
ATOM     29  O   UNL     1       7.342  -7.023   0.574  0.00  0.00    -0.406 OA
BRANCH  29  30
ATOM     30  C   UNL     1       8.214  -7.122  -0.554  0.00  0.00    +0.575 C 
ATOM     31  F   UNL     1       8.548  -5.839  -1.000  0.00  0.00    -0.133 F 
ATOM     32  F   UNL     1       9.379  -7.805  -0.185  0.00  0.00    -0.133 F 
ATOM     33  F   UNL     1       7.571  -7.820  -1.582  0.00  0.00    -0.133 F 
ENDBRANCH  29  30
ENDBRANCH  26  29
ENDBRANCH  11  23
BRANCH   6  34
ATOM     34  O   UNL     1      -0.598 -10.469   0.417  0.00  0.00    -0.507 OA
ATOM     35  H   UNL     1      -0.399 -10.864  -0.443  0.00  0.00    +0.292 HD
ENDBRANCH   6  34
TORSDOF 5
