REMARK  Name = ZINC58168274
REMARK  5 active torsions:
REMARK  status: ('A' for Active; 'I' for Inactive)
REMARK    1  A    between atoms: C_3  and  C_6
REMARK    2  A    between atoms: C_9  and  C_30
REMARK    3  A    between atoms: C_12  and  C_14
REMARK    4  A    between atoms: C_14  and  N_15
REMARK    5  A    between atoms: C_25  and  C_27
REMARK                            x       y       z     vdW  Elec       q    Type
REMARK                         _______ _______ _______ _____ _____    ______ ____
ROOT
ATOM      1  C   UNL     1       3.994   0.689   0.011  0.00  0.00    +0.172 C 
ATOM      2  C   UNL     1       4.480   0.330  -1.407  0.00  0.00    +0.090 C 
ATOM      3  C   UNL     1       5.042  -1.066  -1.258  0.00  0.00    +0.075 C 
ATOM      4  N   UNL     1       4.919  -1.451  -0.032  0.00  0.00    -0.180 NA
ATOM      5  N   UNL     1       4.321  -0.506   0.805  0.00  0.00    -0.184 N 
ATOM      6  C   UNL     1       4.081  -0.661   2.122  0.00  0.00    +0.219 C 
ATOM      7  O   UNL     1       3.553   0.231   2.752  0.00  0.00    -0.276 OA
ENDROOT
BRANCH   1  10
ATOM      8  C   UNL     1       0.518   1.912   0.034  0.00  0.00    +0.041 A 
ATOM      9  C   UNL     1       1.913   2.143   0.040  0.00  0.00    +0.046 A 
ATOM     10  C   UNL     1       2.508   0.938   0.015  0.00  0.00    +0.128 A 
ATOM     11  O   UNL     1       1.554  -0.007  -0.006  0.00  0.00    -0.466 OA
ATOM     12  C   UNL     1       0.345   0.578   0.005  0.00  0.00    +0.195 A 
ENDBRANCH   1  10
BRANCH   3  13
ATOM     13  C   UNL     1       5.634  -1.860  -2.340  0.00  0.00    +0.035 A 
ATOM     14  C   UNL     1       6.164  -3.138  -2.295  0.00  0.00    +0.017 A 
ATOM     15  C   UNL     1       6.668  -3.678  -3.455  0.00  0.00    +0.008 A 
ATOM     16  C   UNL     1       6.630  -2.947  -4.600  0.00  0.00    +0.046 A 
ATOM     17  S   UNL     1       5.853  -1.433  -4.059  0.00  0.00    -0.095 S 
ENDBRANCH   3  13
BRANCH   6  18
ATOM     18  C   UNL     1       4.470  -1.943   2.813  0.00  0.00    +0.022 C 
BRANCH  18  19
ATOM     19  N   UNL     1       4.105  -1.864   4.234  0.00  0.00    +0.395 N 
ATOM     20  C   UNL     1       4.633  -3.055   4.956  0.00  0.00    -0.064 C 
ATOM     21  C   UNL     1       4.681  -4.194   3.934  0.00  0.00    -0.015 C 
ATOM     22  C   UNL     1       4.854  -5.542   4.627  0.00  0.00    -0.002 C 
ATOM     23  C   UNL     1       3.636  -5.786   5.526  0.00  0.00    +0.000 C 
ATOM     24  C   UNL     1       3.625  -4.713   6.614  0.00  0.00    +0.002 C 
ATOM     25  C   UNL     1       3.573  -3.309   6.043  0.00  0.00    -0.026 C 
ATOM     26  C   UNL     1       2.256  -3.047   5.285  0.00  0.00    -0.004 C 
ATOM     27  C   UNL     1       2.635  -1.857   4.372  0.00  0.00    +0.020 C 
ATOM     28  H   UNL     1       4.489  -1.023   4.638  0.00  0.00    -0.080 HD
BRANCH  27  29
ATOM     29  C   UNL     1       1.993  -2.024   3.019  0.00  0.00    +0.197 C 
ATOM     30  O   UNL     1       2.169  -3.042   2.385  0.00  0.00    -0.278 OA
ATOM     31  N   UNL     1       1.221  -1.041   2.513  0.00  0.00    -0.331 N 
ATOM     32  H   UNL     1       1.080  -0.226   3.020  0.00  0.00    +0.145 HD
ATOM     33  H   UNL     1       0.808  -1.148   1.642  0.00  0.00    +0.145 HD
ENDBRANCH  27  29
ENDBRANCH  18  19
ENDBRANCH   6  18
TORSDOF 5
