REMARK  Name = ZINC36058807
REMARK  11 active torsions:
REMARK  status: ('A' for Active; 'I' for Inactive)
REMARK    1  A    between atoms: C_1  and  C_2
REMARK    2  A    between atoms: C_3  and  C_32
REMARK    3  A    between atoms: C_4  and  C_22
REMARK    4  A    between atoms: C_7  and  C_12
REMARK    5  A    between atoms: C_13  and  N_15
REMARK    6  A    between atoms: N_18  and  C_21
REMARK    7  A    between atoms: C_25  and  C_28
REMARK    8  A    between atoms: C_32  and  O_34
REMARK    9  A    between atoms: O_34  and  C_35
REMARK   10  A    between atoms: C_35  and  C_36
REMARK   11  A    between atoms: C_35  and  C_37
REMARK                            x       y       z     vdW  Elec       q    Type
REMARK                         _______ _______ _______ _____ _____    ______ ____
ROOT
ATOM      1  C   UNL     1       0.374   0.790   1.577  0.00  0.00    +0.066 C 
ATOM      2  C   UNL     1       0.335  -0.605   1.008  0.00  0.00    +0.053 C 
ATOM      3  C   UNL     1      -0.878  -1.249   0.854  0.00  0.00    +0.082 C 
ATOM      4  C   UNL     1      -0.865  -2.648   0.278  0.00  0.00    +0.150 C 
ATOM      5  N   UNL     1       0.461  -3.221  -0.077  0.00  0.00    -0.267 N 
ATOM      6  C   UNL     1       0.710  -4.469  -0.613  0.00  0.00    +0.048 C 
ATOM      7  C   UNL     1       1.996  -4.798  -0.865  0.00  0.00    +0.072 C 
ATOM      8  S   UNL     1       2.861  -3.331  -0.341  0.00  0.00    -0.060 S 
ATOM      9  C   UNL     1       1.542  -2.418   0.154  0.00  0.00    +0.166 C 
ATOM     10  N   UNL     1       1.461  -1.202   0.655  0.00  0.00    -0.230 NA
ENDROOT
BRANCH   4  11
ATOM     11  C   UNL     1      -1.514  -3.568   1.280  0.00  0.00    -0.022 A 
ATOM     12  C   UNL     1      -0.840  -3.916   2.436  0.00  0.00    +0.006 A 
ATOM     13  C   UNL     1      -1.435  -4.760   3.355  0.00  0.00    +0.013 A 
ATOM     14  C   UNL     1      -2.703  -5.255   3.119  0.00  0.00    +0.055 A 
ATOM     15  C   UNL     1      -3.378  -4.906   1.964  0.00  0.00    +0.013 A 
ATOM     16  C   UNL     1      -2.784  -4.059   1.047  0.00  0.00    +0.006 A 
BRANCH  14  17
ATOM     17  C   UNL     1      -3.352  -6.176   4.120  0.00  0.00    +0.417 C 
ATOM     18  F   UNL     1      -4.074  -5.420   5.050  0.00  0.00    -0.166 F 
ATOM     19  F   UNL     1      -4.219  -7.051   3.457  0.00  0.00    -0.166 F 
ATOM     20  F   UNL     1      -2.364  -6.912   4.784  0.00  0.00    -0.166 F 
ENDBRANCH  14  17
ENDBRANCH   4  11
BRANCH   6  21
ATOM     21  C   UNL     1      -0.386  -5.407  -0.898  0.00  0.00    +0.091 C 
ATOM     22  C   UNL     1      -0.110  -6.663  -1.300  0.00  0.00    +0.241 C 
ATOM     23  O   UNL     1       1.173  -7.101  -1.320  0.00  0.00    -0.271 OA
BRANCH  22  24
ATOM     24  N   UNL     1      -1.136  -7.506  -1.692  0.00  0.00    -0.302 N 
ATOM     25  C   UNL     1      -2.368  -6.970  -2.290  0.00  0.00    +0.089 C 
ATOM     26  C   UNL     1      -2.652  -7.735  -3.587  0.00  0.00    -0.060 C 
ATOM     27  N   UNL     1      -2.692  -9.176  -3.305  0.00  0.00    +0.380 N 
ATOM     28  C   UNL     1      -1.371  -9.634  -2.856  0.00  0.00    -0.060 C 
ATOM     29  C   UNL     1      -1.022  -8.963  -1.528  0.00  0.00    +0.089 C 
ATOM     30  C   UNL     1      -3.072  -9.901  -4.524  0.00  0.00    -0.096 C 
ATOM     31  H   UNL     1      -3.373  -9.357  -2.583  0.00  0.00    -0.082 HD
ENDBRANCH  22  24
ENDBRANCH   6  21
BRANCH   3  32
ATOM     32  C   UNL     1      -2.079  -0.628   1.218  0.00  0.00    +0.339 C 
ATOM     33  O   UNL     1      -2.065   0.499   1.681  0.00  0.00    -0.245 OA
BRANCH  32  34
ATOM     34  O   UNL     1      -3.252  -1.279   1.058  0.00  0.00    -0.459 OA
BRANCH  34  35
ATOM     35  C   UNL     1      -4.438  -0.585   1.451  0.00  0.00    +0.171 C 
ATOM     36  C   UNL     1      -4.982   0.209   0.262  0.00  0.00    +0.052 C 
ATOM     37  C   UNL     1      -5.490  -1.595   1.914  0.00  0.00    +0.052 C 
ENDBRANCH  34  35
ENDBRANCH  32  34
ENDBRANCH   3  32
TORSDOF 7
