REMARK  Name = ZINC32824027
REMARK  6 active torsions:
REMARK  status: ('A' for Active; 'I' for Inactive)
REMARK    1  A    between atoms: C_4  and  N_7
REMARK    2  A    between atoms: C_10  and  C_30
REMARK    3  A    between atoms: C_11  and  N_12
REMARK    4  A    between atoms: C_13  and  C_15
REMARK    5  A    between atoms: C_15  and  N_16
REMARK    6  A    between atoms: C_25  and  C_27
REMARK                            x       y       z     vdW  Elec       q    Type
REMARK                         _______ _______ _______ _____ _____    ______ ____
ROOT
ATOM      1  N   UNL     1      -4.970  -2.463  -0.050  0.00  0.00    -0.272 N 
ATOM      2  C   UNL     1      -3.700  -2.011  -0.049  0.00  0.00    +0.202 C 
ATOM      3  O   UNL     1      -3.438  -0.938  -0.551  0.00  0.00    -0.278 OA
ATOM      4  H   UNL     1      -5.208  -3.434   0.408  0.00  0.00    +0.156 HD
ENDROOT
BRANCH   1   9
ATOM      5  N   UNL     1      -5.875  -0.987  -1.783  0.00  0.00    -0.300 N 
ATOM      6  C   UNL     1      -7.062  -0.362  -2.053  0.00  0.00    +0.030 A 
ATOM      7  C   UNL     1      -7.947  -0.664  -1.084  0.00  0.00    -0.007 A 
ATOM      8  C   UNL     1      -7.267  -1.546  -0.139  0.00  0.00    +0.095 A 
ATOM      9  C   UNL     1      -5.976  -1.704  -0.629  0.00  0.00    +0.128 A 
ATOM     10  C   UNL     1      -9.366  -0.162  -1.030  0.00  0.00    +0.038 C 
ATOM     11  C   UNL     1      -9.495   1.028  -1.989  0.00  0.00    +0.005 C 
ATOM     12  C   UNL     1      -8.904   0.649  -3.350  0.00  0.00    +0.006 C 
ATOM     13  C   UNL     1      -7.381   0.527  -3.232  0.00  0.00    +0.054 C 
BRANCH   5  17
ATOM     14  C   UNL     1      -2.450  -0.729  -4.144  0.00  0.00    +0.000 A 
ATOM     15  C   UNL     1      -3.082  -1.947  -3.976  0.00  0.00    +0.002 A 
ATOM     16  C   UNL     1      -4.217  -2.036  -3.194  0.00  0.00    +0.026 A 
ATOM     17  C   UNL     1      -4.723  -0.900  -2.577  0.00  0.00    +0.048 A 
ATOM     18  C   UNL     1      -4.090   0.323  -2.752  0.00  0.00    +0.026 A 
ATOM     19  C   UNL     1      -2.951   0.404  -3.530  0.00  0.00    +0.002 A 
ENDBRANCH   5  17
BRANCH   8  20
ATOM     20  C   UNL     1      -7.816  -2.127   1.050  0.00  0.00    +0.103 C 
ATOM     21  N   UNL     1      -8.251  -2.588   1.992  0.00  0.00    -0.191 NA
ENDBRANCH   8  20
ENDBRANCH   1   9
BRANCH   2  22
ATOM     22  C   UNL     1      -2.606  -2.837   0.577  0.00  0.00    +0.020 C 
BRANCH  22  23
ATOM     23  N   UNL     1      -1.325  -2.130   0.450  0.00  0.00    +0.396 N 
ATOM     24  C   UNL     1      -1.310  -0.917   1.273  0.00  0.00    -0.041 C 
ATOM     25  C   UNL     1       0.042  -0.255   1.212  0.00  0.00    -0.061 A 
ATOM     26  C   UNL     1       0.147   1.068   1.615  0.00  0.00    +0.002 A 
ATOM     27  C   UNL     1       1.367   1.713   1.579  0.00  0.00    +0.000 A 
ATOM     28  C   UNL     1       2.491   1.037   1.142  0.00  0.00    +0.000 A 
ATOM     29  C   UNL     1       2.388  -0.280   0.741  0.00  0.00    +0.004 A 
ATOM     30  C   UNL     1       1.162  -0.928   0.774  0.00  0.00    -0.047 A 
ATOM     31  C   UNL     1       1.096  -2.364   0.321  0.00  0.00    +0.029 C 
ATOM     32  C   UNL     1      -0.200  -3.007   0.813  0.00  0.00    +0.024 C 
ATOM     33  H   UNL     1      -1.211  -1.833  -0.604  0.00  0.00    -0.080 HD
BRANCH  32  34
ATOM     34  C   UNL     1      -0.380  -4.356   0.165  0.00  0.00    +0.197 C 
ATOM     35  O   UNL     1      -0.869  -4.436  -0.942  0.00  0.00    -0.278 OA
ATOM     36  N   UNL     1       0.004  -5.473   0.815  0.00  0.00    -0.331 N 
ATOM     37  H   UNL     1      -0.127  -6.457   0.341  0.00  0.00    +0.145 HD
ATOM     38  H   UNL     1       0.448  -5.400   1.818  0.00  0.00    +0.145 HD
ENDBRANCH  32  34
ENDBRANCH  22  23
ENDBRANCH   2  22
TORSDOF 6
