REMARK  Name = ZINC20067660
REMARK  14 active torsions:
REMARK  status: ('A' for Active; 'I' for Inactive)
REMARK    1  A    between atoms: C_1  and  C_2
REMARK    2  A    between atoms: C_2  and  C_4
REMARK    3  A    between atoms: C_2  and  S_15
REMARK    4  A    between atoms: C_7  and  C_9
REMARK    5  A    between atoms: S_15  and  C_16
REMARK    6  A    between atoms: N_26  and  C_27
REMARK    7  A    between atoms: C_27  and  C_28
REMARK    8  A    between atoms: C_28  and  N_29
REMARK    9  A    between atoms: N_29  and  C_30
REMARK   10  A    between atoms: N_29  and  C_33
REMARK   11  A    between atoms: C_30  and  C_31
REMARK   12  A    between atoms: C_30  and  C_32
REMARK   13  A    between atoms: C_33  and  C_34
REMARK   14  A    between atoms: C_33  and  C_35
REMARK                            x       y       z     vdW  Elec       q    Type
REMARK                         _______ _______ _______ _____ _____    ______ ____
ROOT
ATOM      1  C   UNL     1      -3.185   0.492   1.875  0.00  0.00    +0.173 A 
ATOM      2  N   UNL     1      -2.548   1.325   2.660  0.00  0.00    -0.223 NA
ATOM      3  C   UNL     1      -3.011   1.634   3.888  0.00  0.00    +0.079 A 
ATOM      4  C   UNL     1      -2.331   2.523   4.725  0.00  0.00    +0.028 A 
ATOM      5  C   UNL     1      -2.837   2.808   5.962  0.00  0.00    +0.002 A 
ATOM      6  C   UNL     1      -4.020   2.227   6.402  0.00  0.00    +0.001 A 
ATOM      7  C   UNL     1      -4.708   1.354   5.606  0.00  0.00    +0.015 A 
ATOM      8  C   UNL     1      -4.214   1.045   4.339  0.00  0.00    +0.065 A 
ATOM      9  C   UNL     1      -4.911   0.115   3.440  0.00  0.00    +0.262 A 
ATOM     10  O   UNL     1      -5.951  -0.424   3.771  0.00  0.00    -0.267 OA
ATOM     11  N   UNL     1      -4.356  -0.117   2.228  0.00  0.00    -0.289 N 
ENDROOT
BRANCH   1  12
ATOM     12  S   UNL     1      -2.505   0.147   0.286  0.00  0.00    -0.075 S 
BRANCH  12  14
ATOM     13  C   UNL     1      -1.350   2.627   0.275  0.00  0.00    +0.029 C 
ATOM     14  C   UNL     1      -0.988   1.141   0.234  0.00  0.00    +0.139 C 
BRANCH  14  15
ATOM     15  C   UNL     1      -0.236   0.843  -1.038  0.00  0.00    +0.231 A 
ATOM     16  N   UNL     1      -0.749   0.757  -2.233  0.00  0.00    -0.111 NA
ATOM     17  N   UNL     1       0.181   0.490  -3.082  0.00  0.00    -0.107 NA
ATOM     18  C   UNL     1       1.328   0.397  -2.451  0.00  0.00    +0.248 A 
ATOM     19  O   UNL     1       1.086   0.623  -1.145  0.00  0.00    -0.419 OA
BRANCH  18  20
ATOM     20  C   UNL     1       2.643   0.102  -3.061  0.00  0.00    +0.038 A 
ATOM     21  C   UNL     1       3.784   0.026  -2.263  0.00  0.00    +0.013 A 
ATOM     22  C   UNL     1       5.008  -0.249  -2.838  0.00  0.00    +0.001 A 
ATOM     23  C   UNL     1       5.104  -0.449  -4.204  0.00  0.00    +0.000 A 
ATOM     24  C   UNL     1       3.976  -0.375  -5.001  0.00  0.00    +0.001 A 
ATOM     25  C   UNL     1       2.746  -0.106  -4.437  0.00  0.00    +0.013 A 
ENDBRANCH  18  20
ENDBRANCH  14  15
ENDBRANCH  12  14
ENDBRANCH   1  12
BRANCH  11  26
ATOM     26  C   UNL     1      -5.011  -1.031   1.290  0.00  0.00    +0.109 C 
BRANCH  26  27
ATOM     27  C   UNL     1      -4.497  -2.454   1.520  0.00  0.00    -0.056 C 
BRANCH  27  28
ATOM     28  N   UNL     1      -5.255  -3.391   0.681  0.00  0.00    +0.384 N 
ATOM     29  H   UNL     1      -6.242  -3.279   0.859  0.00  0.00    -0.081 HD
BRANCH  28  30
ATOM     30  C   UNL     1      -4.978  -3.114  -0.735  0.00  0.00    -0.074 C 
ATOM     31  C   UNL     1      -3.693  -3.831  -1.153  0.00  0.00    -0.014 C 
ATOM     32  C   UNL     1      -6.143  -3.617  -1.590  0.00  0.00    -0.014 C 
ENDBRANCH  28  30
BRANCH  28  33
ATOM     33  C   UNL     1      -4.854  -4.768   0.999  0.00  0.00    -0.074 C 
ATOM     34  C   UNL     1      -5.007  -5.010   2.502  0.00  0.00    -0.014 C 
ATOM     35  C   UNL     1      -5.743  -5.748   0.231  0.00  0.00    -0.014 C 
ENDBRANCH  28  33
ENDBRANCH  27  28
ENDBRANCH  26  27
ENDBRANCH  11  26
TORSDOF 9
