REMARK  Name = ZINC14994854
REMARK  6 active torsions:
REMARK  status: ('A' for Active; 'I' for Inactive)
REMARK    1  A    between atoms: C_4  and  C_7
REMARK    2  A    between atoms: C_7  and  N_67
REMARK    3  A    between atoms: C_9  and  S_32
REMARK    4  A    between atoms: C_12  and  C_14
REMARK    5  A    between atoms: N_16  and  C_17
REMARK    6  A    between atoms: S_32  and  C_33
REMARK                            x       y       z     vdW  Elec       q    Type
REMARK                         _______ _______ _______ _____ _____    ______ ____
ROOT
ATOM      1  C   UNL     1      -1.233   6.441   1.476  0.00  0.00    -0.063 C 
ATOM      2  C   UNL     1      -2.015   5.904   0.258  0.00  0.00    +0.035 C 
ATOM      3  C   UNL     1      -3.301   6.772   0.260  0.00  0.00    +0.006 C 
ATOM      4  C   UNL     1      -2.756   8.140   0.739  0.00  0.00    +0.021 C 
ATOM      5  N   UNL     1      -1.742   7.796   1.753  0.00  0.00    +0.391 N 
ATOM      6  H   UNL     1      -2.174   7.813   2.684  0.00  0.00    -0.080 HD
ENDROOT
BRANCH   4   7
ATOM      7  C   UNL     1      -3.856   8.955   1.367  0.00  0.00    +0.204 C 
ATOM      8  O   UNL     1      -3.804   9.240   2.545  0.00  0.00    -0.277 OA
ATOM      9  N   UNL     1      -4.899   9.369   0.620  0.00  0.00    -0.287 N 
ATOM     10  H   UNL     1      -4.904   9.207  -0.337  0.00  0.00    +0.155 HD
BRANCH   9  11
ATOM     11  C   UNL     1      -5.974  10.030   1.224  0.00  0.00    +0.035 A 
ATOM     12  C   UNL     1      -6.663  11.017   0.529  0.00  0.00    +0.024 A 
ATOM     13  C   UNL     1      -7.721  11.680   1.123  0.00  0.00    +0.007 A 
ATOM     14  C   UNL     1      -8.098  11.351   2.416  0.00  0.00    -0.026 A 
ATOM     15  C   UNL     1      -7.426  10.368   3.096  0.00  0.00    +0.036 A 
ATOM     16  C   UNL     1      -6.358   9.698   2.517  0.00  0.00    +0.046 A 
ATOM     17  N   UNL     1      -7.870  10.053   4.376  0.00  0.00    -0.314 N 
ATOM     18  C   UNL     1      -7.806  10.937   5.446  0.00  0.00    +0.035 A 
ATOM     19  C   UNL     1      -7.307  10.411   6.643  0.00  0.00    +0.023 A 
ATOM     20  C   UNL     1      -7.138  11.211   7.750  0.00  0.00    +0.002 A 
ATOM     21  C   UNL     1      -7.468  12.552   7.673  0.00  0.00    +0.000 A 
ATOM     22  C   UNL     1      -7.973  13.067   6.502  0.00  0.00    +0.005 A 
ATOM     23  C   UNL     1      -8.160  12.265   5.372  0.00  0.00    -0.026 A 
ATOM     24  C   UNL     1      -8.749  12.987   4.187  0.00  0.00    +0.041 C 
ATOM     25  C   UNL     1      -9.226  12.084   3.077  0.00  0.00    +0.041 C 
ATOM     26  H   UNL     1      -8.244   9.171   4.529  0.00  0.00    +0.152 HD
ENDBRANCH   9  11
ENDBRANCH   4   7
BRANCH   5  27
ATOM     27  C   UNL     1      -0.626   8.776   1.718  0.00  0.00    -0.042 C 
BRANCH  27  31
ATOM     28  C   UNL     1       0.775   9.230  -2.292  0.00  0.00    +0.000 A 
ATOM     29  C   UNL     1      -0.238  10.042  -1.818  0.00  0.00    +0.000 A 
ATOM     30  C   UNL     1      -0.692   9.895  -0.520  0.00  0.00    +0.002 A 
ATOM     31  C   UNL     1      -0.132   8.936   0.304  0.00  0.00    -0.064 A 
ATOM     32  C   UNL     1       0.886   8.129  -0.169  0.00  0.00    +0.002 A 
ATOM     33  C   UNL     1       1.336   8.272  -1.468  0.00  0.00    +0.000 A 
ENDBRANCH  27  31
ENDBRANCH   5  27
BRANCH   2  34
ATOM     34  S   UNL     1      -2.424   4.151   0.480  0.00  0.00    -0.104 S 
BRANCH  34  35
ATOM     35  C   UNL     1      -0.859   3.341   0.451  0.00  0.00    +0.097 A 
ATOM     36  C   UNL     1      -0.795   1.958   0.591  0.00  0.00    +0.035 A 
ATOM     37  C   UNL     1       0.440   1.336   0.572  0.00  0.00    +0.004 A 
ATOM     38  C   UNL     1       1.574   2.120   0.401  0.00  0.00    +0.020 A 
ATOM     39  C   UNL     1       1.437   3.486   0.261  0.00  0.00    +0.112 A 
ATOM     40  N   UNL     1       0.246   4.054   0.289  0.00  0.00    -0.249 NA
ENDBRANCH  34  35
ENDBRANCH   2  34
TORSDOF 6
