REMARK  Name = ZINC13073903
REMARK  8 active torsions:
REMARK  status: ('A' for Active; 'I' for Inactive)
REMARK    1  A    between atoms: C_1  and  C_2
REMARK    2  A    between atoms: C_5  and  C_11
REMARK    3  A    between atoms: C_6  and  N_8
REMARK    4  A    between atoms: C_14  and  C_16
REMARK    5  A    between atoms: N_20  and  C_24
REMARK    6  A    between atoms: C_24  and  C_26
REMARK    7  A    between atoms: C_24  and  C_29
REMARK    8  A    between atoms: C_26  and  C_27
REMARK                            x       y       z     vdW  Elec       q    Type
REMARK                         _______ _______ _______ _____ _____    ______ ____
ROOT
ATOM      1  C   UNL     1      -2.781   5.430  -2.775  0.00  0.00    +0.066 C 
ATOM      2  C   UNL     1      -1.527   4.860  -2.503  0.00  0.00    +0.080 C 
ATOM      3  C   UNL     1      -0.914   4.510  -1.187  0.00  0.00    +0.259 C 
ATOM      4  O   UNL     1      -1.493   4.702  -0.137  0.00  0.00    -0.269 OA
ATOM      5  N   UNL     1       0.299   3.981  -1.231  0.00  0.00    -0.241 N 
ATOM      6  C   UNL     1       0.908   3.777  -2.416  0.00  0.00    +0.121 C 
ATOM      7  S   UNL     1       2.456   3.107  -2.709  0.00  0.00    -0.027 S 
ATOM      8  S   UNL     1      -0.280   4.370  -3.607  0.00  0.00    -0.061 S 
ENDROOT
BRANCH   1  12
ATOM      9  C   UNL     1      -3.130   5.782  -6.281  0.00  0.00    +0.138 A 
ATOM     10  C   UNL     1      -4.376   6.311  -5.886  0.00  0.00    +0.050 A 
ATOM     11  C   UNL     1      -4.432   6.259  -4.527  0.00  0.00    +0.050 A 
ATOM     12  C   UNL     1      -3.163   5.673  -4.085  0.00  0.00    +0.130 A 
ATOM     13  O   UNL     1      -2.432   5.417  -5.193  0.00  0.00    -0.455 OA
BRANCH   9  18
ATOM     14  C   UNL     1      -1.312   5.284 -11.705  0.00  0.00    +0.044 C 
ATOM     15  C   UNL     1      -1.789   5.414 -10.282  0.00  0.00    -0.048 A 
ATOM     16  C   UNL     1      -3.044   4.939  -9.930  0.00  0.00    +0.004 A 
ATOM     17  C   UNL     1      -3.489   5.054  -8.633  0.00  0.00    +0.014 A 
ATOM     18  C   UNL     1      -2.667   5.655  -7.663  0.00  0.00    +0.047 A 
ATOM     19  C   UNL     1      -1.399   6.138  -8.032  0.00  0.00    +0.137 A 
ATOM     20  C   UNL     1      -0.971   6.008  -9.333  0.00  0.00    +0.036 A 
BRANCH  19  21
ATOM     21  N   UNL     1      -0.526   6.778  -7.022  0.00  0.00    +0.057 N 
ATOM     22  O   UNL     1       0.661   7.230  -7.370  0.00  0.00    -0.126 OA
ATOM     23  O   UNL     1      -0.936   6.896  -5.777  0.00  0.00    -0.126 OA
ENDBRANCH  19  21
ENDBRANCH   9  18
ENDBRANCH   1  12
BRANCH   5  24
ATOM     24  C   UNL     1       0.979   3.610   0.012  0.00  0.00    +0.206 C 
BRANCH  24  25
ATOM     25  C   UNL     1       2.269   4.379   0.128  0.00  0.00    +0.377 C 
ATOM     26  O   UNL     1       2.588   5.157  -0.740  0.00  0.00    -0.244 OA
ATOM     27  O   UNL     1       3.064   4.199   1.194  0.00  0.00    -0.244 OA
ENDBRANCH  24  25
BRANCH  24  28
ATOM     28  C   UNL     1       1.279   2.109   0.001  0.00  0.00    +0.159 C 
BRANCH  28  29
ATOM     29  C   UNL     1      -0.016   1.338   0.009  0.00  0.00    +0.358 C 
ATOM     30  O   UNL     1      -1.071   1.928   0.018  0.00  0.00    -0.246 OA
ATOM     31  O   UNL     1       0.002  -0.004   0.002  0.00  0.00    -0.246 OA
ENDBRANCH  28  29
ENDBRANCH  24  28
ENDBRANCH   5  24
TORSDOF 7
