REMARK  Name = ZINC06165871
REMARK  16 active torsions:
REMARK  status: ('A' for Active; 'I' for Inactive)
REMARK    1  A    between atoms: C_1  and  N_66
REMARK    2  A    between atoms: C_2  and  N_66
REMARK    3  A    between atoms: C_3  and  C_4
REMARK    4  A    between atoms: C_3  and  N_66
REMARK    5  A    between atoms: C_4  and  C_5
REMARK    6  A    between atoms: C_5  and  N_6
REMARK    7  A    between atoms: C_7  and  C_28
REMARK    8  A    between atoms: C_9  and  C_14
REMARK    9  A    between atoms: C_10  and  O_13
REMARK   10  A    between atoms: C_14  and  C_16
REMARK   11  A    between atoms: C_19  and  S_22
REMARK   12  A    between atoms: S_22  and  N_25
REMARK   13  A    between atoms: N_25  and  C_26
REMARK   14  A    between atoms: N_25  and  C_27
REMARK   15  A    between atoms: C_31  and  O_34
REMARK   16  A    between atoms: O_34  and  C_35
REMARK                            x       y       z     vdW  Elec       q    Type
REMARK                         _______ _______ _______ _____ _____    ______ ____
ROOT
ATOM      1  N   UNL     1      -0.041   1.639  -1.019  0.00  0.00    -0.284 N 
ATOM      2  C   UNL     1       0.481   1.403   0.332  0.00  0.00    +0.144 C 
ATOM      3  C   UNL     1      -0.672   1.641   1.279  0.00  0.00    +0.071 C 
ATOM      4  C   UNL     1      -1.739   1.978   0.518  0.00  0.00    +0.188 C 
ATOM      5  C   UNL     1      -1.341   1.975  -0.905  0.00  0.00    +0.282 C 
ATOM      6  O   UNL     1      -2.076   2.237  -1.836  0.00  0.00    -0.267 OA
ENDROOT
BRANCH   2   7
ATOM      7  C   UNL     1       1.603   2.365   0.630  0.00  0.00    -0.022 A 
ATOM      8  C   UNL     1       1.510   3.682   0.218  0.00  0.00    +0.009 A 
ATOM      9  C   UNL     1       2.534   4.567   0.494  0.00  0.00    +0.046 A 
ATOM     10  C   UNL     1       3.661   4.131   1.175  0.00  0.00    +0.120 A 
ATOM     11  C   UNL     1       3.754   2.808   1.582  0.00  0.00    +0.046 A 
ATOM     12  C   UNL     1       2.725   1.928   1.309  0.00  0.00    +0.009 A 
BRANCH  10  13
ATOM     13  O   UNL     1       4.673   4.998   1.442  0.00  0.00    -0.495 OA
ATOM     14  C   UNL     1       4.508   6.345   0.993  0.00  0.00    +0.277 C 
ENDBRANCH  10  13
ENDBRANCH   2   7
BRANCH   4  15
ATOM     15  O   UNL     1      -2.974   2.272   0.986  0.00  0.00    -0.502 OA
ATOM     16  H   UNL     1      -3.578   2.487   0.219  0.00  0.00    +0.292 HD
ENDBRANCH   4  15
BRANCH   3  17
ATOM     17  C   UNL     1      -0.640   1.528   2.740  0.00  0.00    +0.195 C 
ATOM     18  O   UNL     1      -0.827   2.512   3.430  0.00  0.00    -0.287 OA
BRANCH  17  19
ATOM     19  C   UNL     1      -0.382   0.218   3.375  0.00  0.00    +0.022 A 
ATOM     20  C   UNL     1      -0.291  -0.935   2.593  0.00  0.00    +0.013 A 
ATOM     21  C   UNL     1      -0.044  -2.153   3.191  0.00  0.00    +0.029 A 
ATOM     22  C   UNL     1       0.101  -2.236   4.565  0.00  0.00    +0.105 A 
ATOM     23  C   UNL     1       0.005  -1.098   5.347  0.00  0.00    +0.029 A 
ATOM     24  C   UNL     1      -0.235   0.127   4.761  0.00  0.00    +0.013 A 
BRANCH  22  25
ATOM     25  S   UNL     1       0.409  -3.797   5.322  0.00  0.00    +0.060 S 
ATOM     26  O   UNL     1       0.996  -4.623   4.325  0.00  0.00    -0.153 OA
ATOM     27  O   UNL     1       1.048  -3.528   6.562  0.00  0.00    -0.153 OA
BRANCH  25  28
ATOM     28  N   UNL     1      -1.062  -4.465   5.683  0.00  0.00    -0.183 NA
ATOM     29  C   UNL     1      -1.740  -5.318   4.703  0.00  0.00    +0.131 C 
ATOM     30  C   UNL     1      -1.687  -4.203   6.982  0.00  0.00    +0.131 C 
ENDBRANCH  25  28
ENDBRANCH  22  25
ENDBRANCH  17  19
ENDBRANCH   3  17
BRANCH   1  31
ATOM     31  C   UNL     1       0.717   1.529  -2.268  0.00  0.00    +0.107 C 
BRANCH  31  32
ATOM     32  C   UNL     1       0.612   0.100  -2.803  0.00  0.00    +0.000 C 
BRANCH  32  33
ATOM     33  C   UNL     1       1.403  -0.015  -4.108  0.00  0.00    -0.078 C 
BRANCH  33  36
ATOM     34  C   UNL     1       1.846  -1.481  -5.984  0.00  0.00    -0.097 C 
ATOM     35  C   UNL     1       1.972  -2.337  -3.722  0.00  0.00    -0.097 C 
ATOM     36  N   UNL     1       1.275  -1.395  -4.623  0.00  0.00    +0.376 N 
ATOM     37  H   UNL     1       0.280  -1.645  -4.662  0.00  0.00    -0.083 HD
ENDBRANCH  33  36
ENDBRANCH  32  33
ENDBRANCH  31  32
ENDBRANCH   1  31
TORSDOF 11
