REMARK  Name = ZINC50308933
REMARK  5 active torsions:
REMARK  status: ('A' for Active; 'I' for Inactive)
REMARK    1  A    between atoms: C_1  and  C_2
REMARK    2  A    between atoms: C_2  and  C_3
REMARK    3  A    between atoms: C_2  and  C_4
REMARK    4  A    between atoms: C_6  and  C_10
REMARK    5  A    between atoms: C_7  and  N_9
REMARK                            x       y       z     vdW  Elec       q    Type
REMARK                         _______ _______ _______ _____ _____    ______ ____
ROOT
ATOM      1  C   UNL     1      -3.944  -2.525  -1.709  0.00  0.00    +0.007 A 
ATOM      2  C   UNL     1      -3.630  -2.389  -3.062  0.00  0.00    +0.059 A 
ATOM      3  C   UNL     1      -4.253  -3.198  -3.994  0.00  0.00    +0.164 A 
ATOM      4  C   UNL     1      -5.187  -4.142  -3.586  0.00  0.00    +0.176 A 
ATOM      5  C   UNL     1      -5.501  -4.279  -2.243  0.00  0.00    +0.064 A 
ATOM      6  C   UNL     1      -4.878  -3.478  -1.305  0.00  0.00    +0.029 A 
ATOM      7 BR   UNL     1      -6.773  -5.566  -1.695  0.00  0.00    -0.046 Br
ATOM      8  O   UNL     1      -5.794  -4.934  -4.518  0.00  0.00    -0.487 OA
ATOM      9  C   UNL     1      -6.694  -4.274  -5.410  0.00  0.00    +0.232 C 
ATOM     10  C   UNL     1      -5.942  -3.665  -6.583  0.00  0.00    +0.082 C 
ATOM     11  C   UNL     1      -4.995  -2.557  -6.150  0.00  0.00    +0.232 C 
ATOM     12  O   UNL     1      -3.954  -3.075  -5.320  0.00  0.00    -0.488 OA
ENDROOT
BRANCH   1  15
ATOM     13  C   UNL     1      -1.412  -0.526   0.013  0.00  0.00    +0.083 A 
ATOM     14  N   UNL     1      -2.020  -1.290  -0.864  0.00  0.00    -0.242 NA
ATOM     15  C   UNL     1      -3.281  -1.663  -0.703  0.00  0.00    +0.099 A 
ATOM     16  C   UNL     1      -3.966  -1.237   0.412  0.00  0.00    +0.091 A 
ATOM     17  S   UNL     1      -2.699  -0.273   1.227  0.00  0.00    -0.057 S 
BRANCH  13  19
ATOM     18  C   UNL     1      -0.019   1.526   0.010  0.00  0.00    +0.014 C 
ATOM     19  C   UNL     1       0.002  -0.004   0.002  0.00  0.00    +0.039 C 
ATOM     20  C   UNL     1       0.742  -0.511   1.242  0.00  0.00    +0.014 C 
ENDBRANCH  13  19
BRANCH  16  21
ATOM     21  N   UNL     1      -5.279  -1.490   0.800  0.00  0.00    -0.351 N 
ATOM     22  H   UNL     1      -5.851  -2.042   0.245  0.00  0.00    +0.143 HD
ATOM     23  H   UNL     1      -5.622  -1.113   1.626  0.00  0.00    +0.143 HD
ENDBRANCH  16  21
ENDBRANCH   1  15
TORSDOF 3
