REMARK  Name = ZINC00924924
REMARK  8 active torsions:
REMARK  status: ('A' for Active; 'I' for Inactive)
REMARK    1  A    between atoms: C_1  and  C_2
REMARK    2  A    between atoms: C_4  and  C_36
REMARK    3  A    between atoms: C_7  and  C_14
REMARK    4  A    between atoms: C_14  and  N_15
REMARK    5  A    between atoms: N_15  and  C_16
REMARK    6  A    between atoms: N_15  and  S_23
REMARK    7  A    between atoms: C_16  and  C_17
REMARK    8  A    between atoms: S_23  and  C_26
REMARK                            x       y       z     vdW  Elec       q    Type
REMARK                         _______ _______ _______ _____ _____    ______ ____
ROOT
ATOM      1  N   UNL     1       4.184  -1.186  -1.580  0.00  0.00    -0.168 NA
ENDROOT
BRANCH   1   2
ATOM      2  S   UNL     1       3.585  -0.778  -0.091  0.00  0.00    +0.062 S 
ATOM      3  O   UNL     1       4.620  -0.077   0.585  0.00  0.00    -0.153 OA
ATOM      4  O   UNL     1       2.986  -1.952   0.442  0.00  0.00    -0.153 OA
BRANCH   2   5
ATOM      5  C   UNL     1       2.281   0.378  -0.352  0.00  0.00    +0.109 A 
ATOM      6  C   UNL     1       0.970  -0.058  -0.390  0.00  0.00    +0.032 A 
ATOM      7  C   UNL     1      -0.056   0.846  -0.597  0.00  0.00    +0.051 A 
ATOM      8  C   UNL     1       0.229   2.193  -0.766  0.00  0.00    +0.162 A 
ATOM      9  C   UNL     1       1.547   2.631  -0.725  0.00  0.00    +0.164 A 
ATOM     10  C   UNL     1       2.571   1.719  -0.519  0.00  0.00    +0.078 A 
ATOM     11  O   UNL     1       1.848   3.950  -0.881  0.00  0.00    -0.485 OA
ATOM     12  C   UNL     1       0.832   4.778  -1.457  0.00  0.00    +0.270 C 
ATOM     13  C   UNL     1      -0.500   4.456  -0.765  0.00  0.00    +0.270 C 
ATOM     14  O   UNL     1      -0.790   3.070  -0.977  0.00  0.00    -0.485 OA
ENDBRANCH   2   5
ENDBRANCH   1   2
BRANCH   1  15
ATOM     15  C   UNL     1       3.708  -2.396  -2.254  0.00  0.00    +0.150 C 
BRANCH  15  22
ATOM     16  C   UNL     1       0.567  -0.492  -9.334  0.00  0.00    +0.044 C 
ATOM     17  C   UNL     1       1.360  -0.880  -8.113  0.00  0.00    -0.048 A 
ATOM     18  C   UNL     1       2.709  -1.183  -8.239  0.00  0.00    +0.007 A 
ATOM     19  C   UNL     1       3.447  -1.538  -7.145  0.00  0.00    -0.041 A 
ATOM     20  C   UNL     1       2.838  -1.597  -5.887  0.00  0.00    +0.002 A 
ATOM     21  C   UNL     1       3.599  -1.968  -4.693  0.00  0.00    +0.020 A 
ATOM     22  C   UNL     1       2.954  -2.013  -3.502  0.00  0.00    +0.033 A 
ATOM     23  C   UNL     1       1.581  -1.697  -3.424  0.00  0.00    +0.254 A 
ATOM     24  O   UNL     1       1.022  -1.739  -2.342  0.00  0.00    -0.268 OA
ATOM     25  N   UNL     1       0.875  -1.350  -4.514  0.00  0.00    -0.322 N 
ATOM     26  H   UNL     1      -0.097  -1.132  -4.423  0.00  0.00    +0.169 HD
ATOM     27  C   UNL     1       1.470  -1.290  -5.756  0.00  0.00    +0.050 A 
ATOM     28  C   UNL     1       0.739  -0.931  -6.884  0.00  0.00    +0.029 A 
ATOM     29  C   UNL     1       4.911  -1.864  -7.293  0.00  0.00    +0.044 C 
ENDBRANCH  15  22
ENDBRANCH   1  15
BRANCH   1  30
ATOM     30  C   UNL     1       5.189  -0.336  -2.223  0.00  0.00    +0.145 C 
BRANCH  30  31
ATOM     31  C   UNL     1       6.565  -0.871  -1.921  0.00  0.00    -0.032 A 
ATOM     32  C   UNL     1       7.249  -0.428  -0.804  0.00  0.00    +0.005 A 
ATOM     33  C   UNL     1       8.510  -0.922  -0.525  0.00  0.00    +0.000 A 
ATOM     34  C   UNL     1       9.091  -1.851  -1.368  0.00  0.00    +0.000 A 
ATOM     35  C   UNL     1       8.409  -2.289  -2.488  0.00  0.00    +0.000 A 
ATOM     36  C   UNL     1       7.146  -1.799  -2.765  0.00  0.00    +0.005 A 
ENDBRANCH  30  31
ENDBRANCH   1  30
TORSDOF 6
