REMARK  Name = ZINC36202071
REMARK  6 active torsions:
REMARK  status: ('A' for Active; 'I' for Inactive)
REMARK    1  A    between atoms: C_1  and  C_2
REMARK    2  A    between atoms: C_9  and  C_16
REMARK    3  A    between atoms: C_11  and  O_12
REMARK    4  A    between atoms: C_16  and  N_17
REMARK    5  A    between atoms: C_20  and  C_24
REMARK    6  A    between atoms: C_20  and  C_25
REMARK                            x       y       z     vdW  Elec       q    Type
REMARK                         _______ _______ _______ _____ _____    ______ ____
ROOT
ATOM      1  N   UNL     1      -2.889  -7.412  -1.930  0.00  0.00    -0.220 N 
ATOM      2  C   UNL     1      -3.649  -6.522  -2.598  0.00  0.00    +0.251 C 
ATOM      3  O   UNL     1      -4.190  -5.535  -2.146  0.00  0.00    -0.272 OA
ATOM      4  C   UNL     1      -3.686  -7.010  -4.033  0.00  0.00    +0.136 C 
ATOM      5  N   UNL     1      -2.866  -8.233  -4.004  0.00  0.00    -0.281 N 
ATOM      6  C   UNL     1      -2.442  -8.382  -2.736  0.00  0.00    +0.310 C 
ATOM      7  O   UNL     1      -1.734  -9.297  -2.364  0.00  0.00    -0.252 OA
ATOM      8  C   UNL     1      -3.070  -5.970  -4.971  0.00  0.00    +0.047 C 
ATOM      9  H   UNL     1      -2.669  -8.816  -4.754  0.00  0.00    +0.152 HD
ENDROOT
BRANCH   4  10
ATOM     10  C   UNL     1      -5.100  -7.328  -4.448  0.00  0.00    -0.008 A 
ATOM     11  C   UNL     1      -5.446  -8.604  -4.774  0.00  0.00    +0.007 A 
ATOM     12  C   UNL     1      -6.748  -8.917  -5.160  0.00  0.00    +0.001 A 
ATOM     13  C   UNL     1      -7.710  -7.957  -5.223  0.00  0.00    +0.008 A 
ATOM     14  C   UNL     1      -7.390  -6.629  -4.895  0.00  0.00    -0.018 A 
ATOM     15  C   UNL     1      -6.068  -6.311  -4.496  0.00  0.00    -0.012 A 
ATOM     16  C   UNL     1      -5.749  -4.983  -4.162  0.00  0.00    +0.009 A 
ATOM     17  C   UNL     1      -6.713  -4.024  -4.220  0.00  0.00    +0.001 A 
ATOM     18  C   UNL     1      -8.015  -4.338  -4.606  0.00  0.00    +0.001 A 
ATOM     19  C   UNL     1      -8.357  -5.610  -4.949  0.00  0.00    +0.008 A 
ENDBRANCH   4  10
BRANCH   1  20
ATOM     20  C   UNL     1      -2.586  -7.326  -0.500  0.00  0.00    +0.154 C 
BRANCH  20  29
ATOM     21  C   UNL     1      -0.471   1.097   1.084  0.00  0.00    +0.109 C 
ATOM     22  C   UNL     1      -0.455  -0.344   0.645  0.00  0.00    +0.214 C 
ATOM     23  O   UNL     1       0.554  -0.821   0.155  0.00  0.00    -0.276 OA
ATOM     24  N   UNL     1      -1.533  -1.090   0.791  0.00  0.00    -0.286 N 
ATOM     25  C   UNL     1      -1.479  -2.424   0.523  0.00  0.00    +0.037 A 
ATOM     26  C   UNL     1      -2.669  -3.150   0.342  0.00  0.00    +0.024 A 
ATOM     27  C   UNL     1      -2.629  -4.481   0.074  0.00  0.00    +0.014 A 
ATOM     28  C   UNL     1      -1.390  -5.140  -0.023  0.00  0.00    +0.022 A 
ATOM     29  C   UNL     1      -1.327  -6.522  -0.301  0.00  0.00    -0.012 A 
ATOM     30  C   UNL     1      -0.086  -7.121  -0.387  0.00  0.00    +0.093 A 
ATOM     31  C   UNL     1       1.062  -6.364  -0.201  0.00  0.00    +0.285 A 
ATOM     32  O   UNL     1       0.997  -5.054   0.063  0.00  0.00    -0.425 OA
ATOM     33  C   UNL     1      -0.189  -4.419   0.157  0.00  0.00    +0.141 A 
ATOM     34  C   UNL     1      -0.241  -3.063   0.425  0.00  0.00    +0.070 A 
ATOM     35  H   UNL     1      -2.364  -0.689   1.089  0.00  0.00    +0.155 HD
BRANCH  31  36
ATOM     36  O   UNL     1       2.266  -6.960  -0.287  0.00  0.00    -0.480 OA
ATOM     37  H   UNL     1       3.013  -6.362  -0.145  0.00  0.00    +0.295 HD
ENDBRANCH  31  36
ENDBRANCH  20  29
ENDBRANCH   1  20
TORSDOF 4
