REMARK  Name = ZINC36491565
REMARK  14 active torsions:
REMARK  status: ('A' for Active; 'I' for Inactive)
REMARK    1  A    between atoms: C_1  and  C_2
REMARK    2  A    between atoms: C_5  and  S_8
REMARK    3  A    between atoms: S_8  and  C_11
REMARK    4  A    between atoms: C_11  and  N_12
REMARK    5  A    between atoms: C_13  and  C_15
REMARK    6  A    between atoms: C_15  and  C_17
REMARK    7  A    between atoms: C_15  and  N_26
REMARK    8  A    between atoms: C_18  and  O_25
REMARK    9  A    between atoms: C_20  and  O_24
REMARK   10  A    between atoms: C_22  and  O_23
REMARK   11  A    between atoms: N_26  and  C_27
REMARK   12  A    between atoms: C_33  and  C_35
REMARK   13  A    between atoms: C_35  and  O_36
REMARK   14  A    between atoms: O_36  and  C_37
REMARK                            x       y       z     vdW  Elec       q    Type
REMARK                         _______ _______ _______ _____ _____    ______ ____
ROOT
ATOM      1  C   UNL     1       3.235  -4.688   3.638  0.00  0.00    +0.199 C 
ENDROOT
BRANCH   1   2
ATOM      2  C   UNL     1       4.739  -4.664   3.726  0.00  0.00    +0.065 A 
ATOM      3  C   UNL     1       5.457  -5.848   3.652  0.00  0.00    +0.129 A 
ATOM      4  C   UNL     1       6.841  -5.826   3.733  0.00  0.00    +0.091 A 
ATOM      5  C   UNL     1       7.508  -4.620   3.888  0.00  0.00    +0.124 A 
ATOM      6  C   UNL     1       6.790  -3.435   3.961  0.00  0.00    +0.091 A 
ATOM      7  C   UNL     1       5.406  -3.457   3.876  0.00  0.00    +0.129 A 
BRANCH   7   8
ATOM      8  O   UNL     1       4.702  -2.296   3.943  0.00  0.00    -0.506 OA
ATOM      9  H   UNL     1       4.449  -2.042   4.841  0.00  0.00    +0.292 HD
ENDBRANCH   7   8
BRANCH   5  10
ATOM     10  O   UNL     1       8.864  -4.598   3.968  0.00  0.00    -0.507 OA
ATOM     11  H   UNL     1       9.307  -4.507   3.114  0.00  0.00    +0.292 HD
ENDBRANCH   5  10
BRANCH   3  12
ATOM     12  O   UNL     1       4.804  -7.030   3.500  0.00  0.00    -0.506 OA
ATOM     13  H   UNL     1       4.608  -7.256   2.580  0.00  0.00    +0.292 HD
ENDBRANCH   3  12
ENDBRANCH   1   2
BRANCH   1  15
ATOM     14  N   UNL     1       2.799  -4.623   1.204  0.00  0.00    -0.294 N 
ATOM     15  C   UNL     1       2.818  -5.340   2.345  0.00  0.00    +0.240 C 
ATOM     16  O   UNL     1       2.499  -6.510   2.330  0.00  0.00    -0.273 OA
ATOM     17  H   UNL     1       3.054  -3.687   1.215  0.00  0.00    +0.150 HD
BRANCH  14  18
ATOM     18  C   UNL     1       2.394  -5.256  -0.053  0.00  0.00    +0.278 C 
BRANCH  18  19
ATOM     19  S   UNL     1       0.629  -4.952  -0.342  0.00  0.00    +0.013 S 
ATOM     20  O   UNL     1      -0.114  -5.222   0.838  0.00  0.00    -0.168 OA
ATOM     21  O   UNL     1       0.234  -5.506  -1.590  0.00  0.00    -0.168 OA
BRANCH  19  26
ATOM     22  C   UNL     1       0.186   1.017  -1.104  0.00  0.00    +0.044 C 
ATOM     23  C   UNL     1       0.297  -0.474  -0.914  0.00  0.00    -0.050 A 
ATOM     24  C   UNL     1       0.518  -1.295  -2.004  0.00  0.00    +0.005 A 
ATOM     25  C   UNL     1       0.619  -2.663  -1.829  0.00  0.00    +0.027 A 
ATOM     26  C   UNL     1       0.501  -3.209  -0.565  0.00  0.00    +0.090 A 
ATOM     27  C   UNL     1       0.281  -2.387   0.525  0.00  0.00    +0.027 A 
ATOM     28  C   UNL     1       0.183  -1.019   0.351  0.00  0.00    +0.005 A 
ENDBRANCH  19  26
ENDBRANCH  18  19
ENDBRANCH  14  18
ENDBRANCH   1  15
BRANCH   1  29
ATOM     29  N   UNL     1       2.692  -5.449   4.766  0.00  0.00    -0.281 N 
ATOM     30  C   UNL     1       1.358  -5.564   4.922  0.00  0.00    +0.242 C 
ATOM     31  O   UNL     1       0.907  -6.127   5.897  0.00  0.00    -0.273 OA
BRANCH  29  32
ATOM     32  C   UNL     1       3.599  -6.086   5.724  0.00  0.00    +0.077 C 
ATOM     33  C   UNL     1       3.282  -7.581   5.810  0.00  0.00    +0.022 C 
ATOM     34  C   UNL     1       4.229  -8.246   6.811  0.00  0.00    +0.002 C 
ATOM     35  C   UNL     1       4.046  -7.606   8.188  0.00  0.00    +0.000 C 
ATOM     36  C   UNL     1       4.363  -6.112   8.102  0.00  0.00    +0.002 C 
ATOM     37  C   UNL     1       3.416  -5.446   7.102  0.00  0.00    +0.022 C 
ENDBRANCH  29  32
BRANCH  30  38
ATOM     38  C   UNL     1       0.426  -4.991   3.885  0.00  0.00    +0.255 C 
BRANCH  38  39
ATOM     39  O   UNL     1      -0.923  -5.102   4.343  0.00  0.00    -0.374 OA
ATOM     40  C   UNL     1      -1.892  -4.586   3.428  0.00  0.00    +0.194 C 
ENDBRANCH  38  39
ENDBRANCH  30  38
ENDBRANCH   1  29
TORSDOF 12
