REMARK  Name = ZINC12795579
REMARK  5 active torsions:
REMARK  status: ('A' for Active; 'I' for Inactive)
REMARK    1  A    between atoms: C_1  and  N_2
REMARK    2  A    between atoms: N_4  and  N_16
REMARK    3  A    between atoms: C_5  and  C_8
REMARK    4  A    between atoms: C_11  and  O_15
REMARK    5  A    between atoms: C_13  and  O_14
REMARK                            x       y       z     vdW  Elec       q    Type
REMARK                         _______ _______ _______ _____ _____    ______ ____
ROOT
ATOM      1  C   UNL     1       3.188  -6.445  -0.882  0.00  0.00    +0.173 C 
ATOM      2  N   UNL     1       3.434  -5.013  -0.693  0.00  0.00    -0.263 NA
ATOM      3  C   UNL     1       2.450  -4.220  -0.351  0.00  0.00    +0.189 A 
ATOM      4  N   UNL     1       2.466  -2.858  -0.126  0.00  0.00    -0.208 N 
ATOM      5  C   UNL     1       1.294  -2.241   0.228  0.00  0.00    +0.085 A 
ATOM      6  C   UNL     1       0.167  -2.970   0.351  0.00  0.00    +0.077 A 
ATOM      7  S   UNL     1       0.734  -4.614  -0.051  0.00  0.00    -0.056 S 
ENDROOT
BRANCH   5   8
ATOM      8  C   UNL     1       1.268  -0.784   0.479  0.00  0.00    +0.043 A 
ATOM      9  C   UNL     1       2.366  -0.155   1.065  0.00  0.00    +0.017 A 
ATOM     10  C   UNL     1       2.338   1.205   1.297  0.00  0.00    +0.046 A 
ATOM     11  C   UNL     1       1.219   1.950   0.949  0.00  0.00    +0.120 A 
ATOM     12  C   UNL     1       0.122   1.332   0.366  0.00  0.00    +0.091 A 
ATOM     13  C   UNL     1       0.140  -0.031   0.129  0.00  0.00    +0.129 A 
BRANCH  13  14
ATOM     14  O   UNL     1      -0.933  -0.638  -0.443  0.00  0.00    -0.506 OA
ATOM     15  H   UNL     1      -0.899  -0.669  -1.409  0.00  0.00    +0.292 HD
ENDBRANCH  13  14
BRANCH  11  16
ATOM     16  O   UNL     1       1.199   3.289   1.180  0.00  0.00    -0.507 OA
ATOM     17  H   UNL     1       0.848   3.533   2.048  0.00  0.00    +0.292 HD
ENDBRANCH  11  16
ENDBRANCH   5   8
BRANCH   4  18
ATOM     18  N   UNL     1       3.652  -2.123  -0.254  0.00  0.00    -0.173 NA
ATOM     19  C   UNL     1       4.340  -2.203  -1.331  0.00  0.00    +0.040 C 
ATOM     20  C   UNL     1       3.942  -2.929  -2.599  0.00  0.00    +0.053 C 
ATOM     21  C   UNL     1       5.098  -2.741  -3.603  0.00  0.00    +0.006 C 
ATOM     22  C   UNL     1       6.325  -2.454  -2.700  0.00  0.00    +0.006 C 
ATOM     23  C   UNL     1       5.709  -1.591  -1.571  0.00  0.00    +0.053 C 
ENDBRANCH   4  18
TORSDOF 4
