REMARK  Name = ZINC34830090
REMARK  8 active torsions:
REMARK  status: ('A' for Active; 'I' for Inactive)
REMARK    1  A    between atoms: C_1  and  C_2
REMARK    2  A    between atoms: C_9  and  C_11
REMARK    3  A    between atoms: C_11  and  C_12
REMARK    4  A    between atoms: C_12  and  C_13
REMARK    5  A    between atoms: C_18  and  C_20
REMARK    6  A    between atoms: C_20  and  C_21
REMARK    7  A    between atoms: C_21  and  N_22
REMARK    8  A    between atoms: C_30  and  C_32
REMARK                            x       y       z     vdW  Elec       q    Type
REMARK                         _______ _______ _______ _____ _____    ______ ____
ROOT
ATOM      1  C   UNL     1      -0.019   1.526   0.010  0.00  0.00    +0.029 C 
ATOM      2  C   UNL     1       0.002  -0.004   0.002  0.00  0.00    +0.090 C 
ATOM      3  C   UNL     1      -1.435  -0.538   0.021  0.00  0.00    +0.130 C 
ATOM      4  N   UNL     1      -2.019  -0.269   1.343  0.00  0.00    -0.298 N 
ATOM      5  C   UNL     1      -1.319  -0.760   2.539  0.00  0.00    +0.127 C 
ATOM      6  C   UNL     1       0.118  -0.225   2.520  0.00  0.00    +0.127 C 
ATOM      7  N   UNL     1       0.705  -0.494   1.196  0.00  0.00    -0.296 N 
ATOM      8  C   UNL     1       1.860  -1.179   1.079  0.00  0.00    +0.216 C 
ATOM      9  O   UNL     1       2.328  -1.395  -0.019  0.00  0.00    -0.276 OA
ATOM     10  C   UNL     1      -3.174   0.415   1.457  0.00  0.00    +0.214 C 
ATOM     11  O   UNL     1      -3.742   0.815   0.463  0.00  0.00    -0.276 OA
ENDROOT
BRANCH   8  12
ATOM     12  C   UNL     1       2.570  -1.675   2.312  0.00  0.00    +0.096 C 
BRANCH  12  13
ATOM     13  C   UNL     1       3.846  -2.415   1.903  0.00  0.00    +0.013 C 
BRANCH  13  14
ATOM     14  C   UNL     1       4.566  -2.919   3.155  0.00  0.00    -0.011 C 
ATOM     15  C   UNL     1       5.111  -1.727   3.967  0.00  0.00    +0.003 C 
ATOM     16  C   UNL     1       6.469  -2.230   4.517  0.00  0.00    +0.000 C 
ATOM     17  C   UNL     1       7.026  -3.067   3.339  0.00  0.00    +0.000 C 
ATOM     18  C   UNL     1       5.783  -3.772   2.755  0.00  0.00    +0.003 C 
ENDBRANCH  13  14
ENDBRANCH  12  13
ENDBRANCH   8  12
BRANCH  10  19
ATOM     19  C   UNL     1      -3.760   0.683   2.819  0.00  0.00    +0.077 C 
BRANCH  19  20
ATOM     20  C   UNL     1      -5.062   1.472   2.668  0.00  0.00    -0.068 C 
BRANCH  20  21
ATOM     21  N   UNL     1      -5.634   1.734   3.995  0.00  0.00    +0.388 N 
ATOM     22  C   UNL     1      -4.713   2.587   4.758  0.00  0.00    -0.072 C 
ATOM     23  C   UNL     1      -5.142   2.586   6.236  0.00  0.00    +0.024 C 
ATOM     24  C   UNL     1      -6.617   2.817   6.276  0.00  0.00    -0.010 A 
ATOM     25  C   UNL     1      -7.477   2.743   5.221  0.00  0.00    -0.047 A 
ATOM     26  C   UNL     1      -8.818   3.004   5.493  0.00  0.00    +0.010 A 
ATOM     27  C   UNL     1      -9.206   3.310   6.753  0.00  0.00    +0.045 A 
ATOM     28  S   UNL     1      -7.658   3.242   7.643  0.00  0.00    -0.101 S 
ATOM     29  C   UNL     1      -6.940   2.384   3.840  0.00  0.00    -0.006 C 
ATOM     30  H   UNL     1      -5.755   0.858   4.483  0.00  0.00    -0.080 HD
BRANCH  29  31
ATOM     31  C   UNL     1      -7.896   1.440   3.155  0.00  0.00    -0.057 A 
ATOM     32  C   UNL     1      -7.897   0.098   3.486  0.00  0.00    +0.002 A 
ATOM     33  C   UNL     1      -8.774  -0.767   2.858  0.00  0.00    +0.000 A 
ATOM     34  C   UNL     1      -9.649  -0.290   1.901  0.00  0.00    +0.000 A 
ATOM     35  C   UNL     1      -9.649   1.052   1.571  0.00  0.00    +0.000 A 
ATOM     36  C   UNL     1      -8.775   1.919   2.202  0.00  0.00    +0.002 A 
ENDBRANCH  29  31
ENDBRANCH  20  21
ENDBRANCH  19  20
ENDBRANCH  10  19
TORSDOF 7
