REMARK  Name = ZINC34931398
REMARK  9 active torsions:
REMARK  status: ('A' for Active; 'I' for Inactive)
REMARK    1  A    between atoms: C_1  and  C_2
REMARK    2  A    between atoms: C_2  and  O_3
REMARK    3  A    between atoms: O_3  and  C_4
REMARK    4  A    between atoms: C_4  and  C_6
REMARK    5  A    between atoms: C_8  and  C_20
REMARK    6  A    between atoms: C_14  and  C_15
REMARK    7  A    between atoms: C_14  and  O_19
REMARK    8  A    between atoms: N_22  and  C_30
REMARK    9  A    between atoms: C_24  and  C_25
REMARK                            x       y       z     vdW  Elec       q    Type
REMARK                         _______ _______ _______ _____ _____    ______ ____
ROOT
ATOM      1  C   UNL     1       1.467  -2.354  -2.571  0.00  0.00    +0.181 C 
ATOM      2  C   UNL     1       1.567  -3.878  -2.448  0.00  0.00    +0.127 C 
ATOM      3  N   UNL     1       2.403  -4.213  -1.295  0.00  0.00    -0.291 N 
ATOM      4  C   UNL     1       3.382  -3.394  -0.881  0.00  0.00    +0.302 C 
ATOM      5  O   UNL     1       4.055  -3.725   0.076  0.00  0.00    -0.253 OA
ATOM      6  N   UNL     1       3.649  -2.225  -1.483  0.00  0.00    -0.264 N 
ATOM      7  C   UNL     1       2.882  -1.772  -2.650  0.00  0.00    +0.246 C 
ATOM      8  H   UNL     1       2.246  -5.043  -0.819  0.00  0.00    +0.151 HD
ATOM      9  H   UNL     1       4.363  -1.666  -1.139  0.00  0.00    +0.153 HD
ENDROOT
BRANCH   2  10
ATOM     10  C   UNL     1       2.184  -4.444  -3.701  0.00  0.00    +0.020 A 
ATOM     11  C   UNL     1       3.471  -4.824  -3.851  0.00  0.00    +0.120 A 
ATOM     12  N   UNL     1       3.627  -5.279  -5.122  0.00  0.00    -0.239 N 
ATOM     13  N   UNL     1       2.392  -5.175  -5.775  0.00  0.00    -0.166 NA
ATOM     14  C   UNL     1       1.518  -4.678  -4.922  0.00  0.00    +0.105 A 
BRANCH  12  15
ATOM     15  C   UNL     1       4.816  -5.766  -5.682  0.00  0.00    +0.065 A 
ATOM     16  C   UNL     1       5.974  -5.819  -4.918  0.00  0.00    +0.028 A 
ATOM     17  C   UNL     1       7.144  -6.300  -5.472  0.00  0.00    +0.002 A 
ATOM     18  C   UNL     1       7.162  -6.728  -6.787  0.00  0.00    +0.000 A 
ATOM     19  C   UNL     1       6.010  -6.676  -7.551  0.00  0.00    +0.002 A 
ATOM     20  C   UNL     1       4.836  -6.202  -7.000  0.00  0.00    +0.028 A 
ENDBRANCH  12  15
BRANCH  14  21
ATOM     21  C   UNL     1       0.091  -4.409  -5.199  0.00  0.00    +0.040 A 
ATOM     22  C   UNL     1      -0.498  -3.988  -6.360  0.00  0.00    +0.018 A 
ATOM     23  C   UNL     1      -1.864  -3.803  -6.381  0.00  0.00    +0.008 A 
ATOM     24  C   UNL     1      -2.581  -4.044  -5.254  0.00  0.00    +0.046 A 
ATOM     25  S   UNL     1      -1.314  -4.559  -4.107  0.00  0.00    -0.095 S 
ENDBRANCH  14  21
ENDBRANCH   2  10
BRANCH   7  26
ATOM     26  C   UNL     1       2.808  -0.244  -2.659  0.00  0.00    +0.436 C 
ATOM     27  F   UNL     1       2.309   0.206  -1.432  0.00  0.00    -0.166 F 
ATOM     28  F   UNL     1       4.087   0.284  -2.865  0.00  0.00    -0.166 F 
ATOM     29  F   UNL     1       1.959   0.175  -3.689  0.00  0.00    -0.166 F 
ENDBRANCH   7  26
BRANCH   1  30
ATOM     30  C   UNL     1       0.756  -1.795  -1.365  0.00  0.00    +0.317 C 
ATOM     31  O   UNL     1       0.942  -2.282  -0.275  0.00  0.00    -0.250 OA
BRANCH  30  32
ATOM     32  O   UNL     1      -0.082  -0.755  -1.502  0.00  0.00    -0.465 OA
BRANCH  32  34
ATOM     33  C   UNL     1      -1.631   0.902  -0.668  0.00  0.00    +0.048 C 
ATOM     34  C   UNL     1      -0.721  -0.277  -0.317  0.00  0.00    +0.229 C 
ENDBRANCH  32  34
ENDBRANCH  30  32
ENDBRANCH   1  30
BRANCH   7  35
ATOM     35  O   UNL     1       3.520  -2.228  -3.845  0.00  0.00    -0.364 OA
ATOM     36  H   UNL     1       4.422  -1.898  -3.960  0.00  0.00    +0.212 HD
ENDBRANCH   7  35
TORSDOF 8
