REMARK  Name = ZINC39969297
REMARK  7 active torsions:
REMARK  status: ('A' for Active; 'I' for Inactive)
REMARK    1  A    between atoms: C_1  and  O_2
REMARK    2  A    between atoms: O_2  and  C_3
REMARK    3  A    between atoms: C_8  and  C_13
REMARK    4  A    between atoms: C_13  and  C_30
REMARK    5  A    between atoms: C_14  and  C_15
REMARK    6  A    between atoms: C_18  and  C_20
REMARK    7  A    between atoms: C_22  and  C_27
REMARK                            x       y       z     vdW  Elec       q    Type
REMARK                         _______ _______ _______ _____ _____    ______ ____
ROOT
ATOM      1  C   UNL     1      -4.597  -4.920   1.284  0.00  0.00    +0.075 C 
ATOM      2  C   UNL     1      -5.588  -5.838   1.159  0.00  0.00    +0.064 C 
ENDROOT
BRANCH   1   8
ATOM      3  C   UNL     1      -1.613  -0.525  -0.487  0.00  0.00    +0.122 A 
ATOM      4  C   UNL     1      -2.813  -0.272  -1.275  0.00  0.00    +0.048 A 
ATOM      5  C   UNL     1      -3.781  -1.197  -1.414  0.00  0.00    +0.031 A 
ATOM      6  C   UNL     1      -3.640  -2.506  -0.759  0.00  0.00    +0.061 A 
ATOM      7  N   UNL     1      -4.408  -3.557  -0.728  0.00  0.00    -0.359 N 
ATOM      8  C   UNL     1      -3.739  -4.570   0.096  0.00  0.00    +0.216 C 
ATOM      9  N   UNL     1      -2.475  -3.971   0.544  0.00  0.00    -0.359 N 
ATOM     10  C   UNL     1      -2.416  -2.766   0.046  0.00  0.00    +0.064 A 
ATOM     11  C   UNL     1      -1.408  -1.708   0.142  0.00  0.00    +0.073 A 
ATOM     12  H   UNL     1      -5.266  -3.652  -1.170  0.00  0.00    +0.162 HD
ATOM     13  H   UNL     1      -1.807  -4.394   1.106  0.00  0.00    +0.162 HD
BRANCH   3  15
ATOM     14  C   UNL     1      -0.936   1.676  -1.066  0.00  0.00    +0.277 C 
ATOM     15  O   UNL     1      -0.674   0.448  -0.385  0.00  0.00    -0.495 OA
ENDBRANCH   3  15
ENDBRANCH   1   8
BRANCH   2  16
ATOM     16  C   UNL     1      -5.929  -6.340  -0.119  0.00  0.00    +0.130 A 
ATOM     17  C   UNL     1      -6.835  -7.351  -0.379  0.00  0.00    +0.050 A 
ATOM     18  C   UNL     1      -6.862  -7.521  -1.766  0.00  0.00    +0.050 A 
ATOM     19  C   UNL     1      -5.983  -6.622  -2.299  0.00  0.00    +0.137 A 
ATOM     20  O   UNL     1      -5.431  -5.912  -1.298  0.00  0.00    -0.455 OA
BRANCH  19  21
ATOM     21  C   UNL     1      -5.690  -6.453  -3.736  0.00  0.00    +0.036 A 
ATOM     22  C   UNL     1      -5.721  -5.184  -4.311  0.00  0.00    +0.028 A 
ATOM     23  C   UNL     1      -5.443  -5.033  -5.669  0.00  0.00    +0.064 A 
ATOM     24  C   UNL     1      -5.135  -6.156  -6.446  0.00  0.00    +0.016 A 
ATOM     25  C   UNL     1      -5.107  -7.410  -5.871  0.00  0.00    +0.021 A 
ATOM     26  C   UNL     1      -5.376  -7.566  -4.524  0.00  0.00    +0.052 A 
ATOM     27 CL   UNL     1      -5.331  -9.148  -3.809  0.00  0.00    -0.083 Cl
BRANCH  23  28
ATOM     28  C   UNL     1      -5.473  -3.694  -6.286  0.00  0.00    +0.387 C 
ATOM     29  O   UNL     1      -5.742  -2.714  -5.606  0.00  0.00    -0.241 OA
ATOM     30  O   UNL     1      -5.229  -3.564  -7.477  0.00  0.00    -0.241 OA
ENDBRANCH  23  28
ENDBRANCH  19  21
ENDBRANCH   2  16
BRANCH   1  31
ATOM     31  C   UNL     1      -4.366  -4.283   2.546  0.00  0.00    +0.099 C 
ATOM     32  N   UNL     1      -4.184  -3.778   3.547  0.00  0.00    -0.191 NA
ENDBRANCH   1  31
TORSDOF 6
