REMARK  Name = ZINC02460740
REMARK  4 active torsions:
REMARK  status: ('A' for Active; 'I' for Inactive)
REMARK    1  A    between atoms: C_6  and  N_7
REMARK    2  A    between atoms: C_13  and  C_15
REMARK    3  A    between atoms: C_18  and  C_21
REMARK    4  A    between atoms: C_21  and  N_22
REMARK                            x       y       z     vdW  Elec       q    Type
REMARK                         _______ _______ _______ _____ _____    ______ ____
ROOT
ATOM      1  C   UNL     1      -0.019   1.503   0.011  0.00  0.00    +0.075 C 
ATOM      2  C   UNL     1      -1.123   1.992   0.950  0.00  0.00    +0.013 C 
ATOM      3  C   UNL     1      -1.145   3.522   0.959  0.00  0.00    +0.006 C 
ATOM      4  C   UNL     1      -1.414   4.036  -0.457  0.00  0.00    +0.009 C 
ATOM      5  C   UNL     1      -0.310   3.547  -1.396  0.00  0.00    +0.006 C 
ATOM      6  C   UNL     1      -0.288   2.017  -1.405  0.00  0.00    +0.013 C 
ENDROOT
BRANCH   1  13
ATOM      7  N   UNL     1       2.847  -1.879   2.236  0.00  0.00    -0.327 N 
ATOM      8  C   UNL     1       2.797  -0.413   2.146  0.00  0.00    +0.124 C 
ATOM      9  C   UNL     1       1.336   0.040   2.059  0.00  0.00    +0.126 C 
ATOM     10  N   UNL     1       0.690  -0.674   0.948  0.00  0.00    -0.298 N 
ATOM     11  C   UNL     1       0.809  -2.139   0.900  0.00  0.00    +0.126 C 
ATOM     12  C   UNL     1       2.295  -2.507   1.028  0.00  0.00    +0.124 C 
ATOM     13  C   UNL     1       0.002  -0.004   0.002  0.00  0.00    +0.219 C 
ATOM     14  O   UNL     1      -0.600  -0.614  -0.856  0.00  0.00    -0.275 OA
BRANCH   7  20
ATOM     15  C   UNL     1       5.186  -1.404   2.598  0.00  0.00    +0.026 A 
ATOM     16  C   UNL     1       6.472  -1.844   2.844  0.00  0.00    +0.040 A 
ATOM     17  C   UNL     1       6.731  -3.199   2.963  0.00  0.00    +0.124 A 
ATOM     18  C   UNL     1       5.701  -4.116   2.842  0.00  0.00    +0.040 A 
ATOM     19  C   UNL     1       4.412  -3.680   2.601  0.00  0.00    +0.026 A 
ATOM     20  C   UNL     1       4.150  -2.322   2.481  0.00  0.00    +0.030 A 
ATOM     21  F   UNL     1       7.990  -3.627   3.200  0.00  0.00    -0.205 F 
ENDBRANCH   7  20
ENDBRANCH   1  13
BRANCH   4  22
ATOM     22  C   UNL     1      -1.436   5.566  -0.448  0.00  0.00    +0.133 C 
BRANCH  22  23
ATOM     23  N   UNL     1      -2.567   6.034   0.356  0.00  0.00    -0.260 N 
ATOM     24  C   UNL     1      -3.767   6.251  -0.228  0.00  0.00    +0.271 A 
ATOM     25  O   UNL     1      -3.917   6.060  -1.422  0.00  0.00    -0.266 OA
ATOM     26  C   UNL     1      -4.835   6.693   0.559  0.00  0.00    +0.100 A 
ATOM     27  C   UNL     1      -4.687   6.924   1.929  0.00  0.00    +0.063 A 
ATOM     28  C   UNL     1      -5.838   7.365   2.576  0.00  0.00    +0.034 A 
ATOM     29  C   UNL     1      -6.982   7.538   1.875  0.00  0.00    +0.048 A 
ATOM     30  S   UNL     1      -6.535   7.097   0.259  0.00  0.00    -0.090 S 
ATOM     31  N   UNL     1      -3.409   6.680   2.459  0.00  0.00    -0.307 N 
ATOM     32  H   UNL     1      -3.247   6.823   3.405  0.00  0.00    +0.170 HD
ATOM     33  C   UNL     1      -2.410   6.252   1.673  0.00  0.00    +0.330 A 
ATOM     34  O   UNL     1      -1.319   6.053   2.172  0.00  0.00    -0.246 OA
ENDBRANCH  22  23
ENDBRANCH   4  22
TORSDOF 4
