REMARK  Name = ZINC40043866
REMARK  7 active torsions:
REMARK  status: ('A' for Active; 'I' for Inactive)
REMARK    1  A    between atoms: C_1  and  C_2
REMARK    2  A    between atoms: C_2  and  C_3
REMARK    3  A    between atoms: C_6  and  C_9
REMARK    4  A    between atoms: C_16  and  C_32
REMARK    5  A    between atoms: N_24  and  C_25
REMARK    6  A    between atoms: C_25  and  C_26
REMARK    7  A    between atoms: C_32  and  C_33
REMARK                            x       y       z     vdW  Elec       q    Type
REMARK                         _______ _______ _______ _____ _____    ______ ____
ROOT
ATOM      1  C   UNL     1       2.707  -1.868  -4.752  0.00  0.00    +0.145 C 
ATOM      2  C   UNL     1       3.423  -0.738  -5.415  0.00  0.00    +0.072 A 
ATOM      3  C   UNL     1       2.925   0.515  -5.993  0.00  0.00    +0.199 A 
ATOM      4  O   UNL     1       1.780   0.906  -5.853  0.00  0.00    -0.287 OA
ATOM      5  C   UNL     1       3.951   1.263  -6.763  0.00  0.00    +0.065 A 
ATOM      6  C   UNL     1       3.589   2.366  -7.536  0.00  0.00    +0.019 A 
ATOM      7  C   UNL     1       4.544   3.040  -8.245  0.00  0.00    -0.047 A 
ATOM      8  C   UNL     1       5.869   2.630  -8.196  0.00  0.00    +0.007 A 
ATOM      9  C   UNL     1       6.245   1.545  -7.437  0.00  0.00    +0.047 A 
ATOM     10  C   UNL     1       5.289   0.842  -6.703  0.00  0.00    +0.139 A 
ATOM     11  O   UNL     1       5.682  -0.216  -5.957  0.00  0.00    -0.450 OA
ATOM     12  C   UNL     1       4.755  -1.040  -5.430  0.00  0.00    +0.199 A 
ATOM     13  C   UNL     1       4.937  -2.356  -4.793  0.00  0.00    +0.283 C 
ATOM     14  O   UNL     1       6.005  -2.918  -4.649  0.00  0.00    -0.267 OA
ATOM     15  N   UNL     1       3.745  -2.848  -4.394  0.00  0.00    -0.279 N 
ENDROOT
BRANCH   1  19
ATOM     16  C   UNL     1       0.707  -0.490  -1.238  0.00  0.00    -0.048 A 
ATOM     17  C   UNL     1      -0.011  -0.719  -2.397  0.00  0.00    +0.004 A 
ATOM     18  C   UNL     1       0.636  -1.164  -3.534  0.00  0.00    +0.006 A 
ATOM     19  C   UNL     1       2.002  -1.381  -3.513  0.00  0.00    -0.022 A 
ATOM     20  C   UNL     1       2.720  -1.152  -2.354  0.00  0.00    +0.006 A 
ATOM     21  C   UNL     1       2.073  -0.702  -1.218  0.00  0.00    +0.004 A 
BRANCH  16  23
ATOM     22  C   UNL     1      -0.019   1.526   0.010  0.00  0.00    +0.009 C 
ATOM     23  C   UNL     1       0.002  -0.004   0.002  0.00  0.00    +0.032 C 
ENDBRANCH  16  23
ENDBRANCH   1  19
BRANCH   7  24
ATOM     24  C   UNL     1       4.157   4.233  -9.081  0.00  0.00    +0.032 C 
ATOM     25  C   UNL     1       4.253   5.503  -8.233  0.00  0.00    +0.009 C 
ENDBRANCH   7  24
BRANCH  15  26
ATOM     26  C   UNL     1       3.523  -4.131  -3.722  0.00  0.00    +0.144 C 
BRANCH  26  27
ATOM     27  C   UNL     1       3.284  -5.204  -4.753  0.00  0.00    -0.030 A 
ATOM     28  C   UNL     1       2.000  -5.468  -5.191  0.00  0.00    +0.005 A 
ATOM     29  C   UNL     1       1.781  -6.452  -6.137  0.00  0.00    +0.000 A 
ATOM     30  C   UNL     1       2.846  -7.172  -6.645  0.00  0.00    +0.000 A 
ATOM     31  C   UNL     1       4.131  -6.907  -6.207  0.00  0.00    +0.000 A 
ATOM     32  C   UNL     1       4.350  -5.920  -5.264  0.00  0.00    +0.005 A 
ENDBRANCH  26  27
ENDBRANCH  15  26
TORSDOF 5
