REMARK  Name = ZINC13498492
REMARK  13 active torsions:
REMARK  status: ('A' for Active; 'I' for Inactive)
REMARK    1  A    between atoms: C_1  and  C_2
REMARK    2  A    between atoms: C_7  and  C_14
REMARK    3  A    between atoms: C_14  and  N_71
REMARK    4  A    between atoms: C_15  and  N_71
REMARK    5  A    between atoms: C_21  and  C_23
REMARK    6  A    between atoms: C_21  and  C_32
REMARK    7  A    between atoms: C_21  and  N_71
REMARK    8  A    between atoms: N_27  and  C_28
REMARK    9  A    between atoms: C_28  and  C_29
REMARK   10  A    between atoms: C_28  and  C_30
REMARK   11  A    between atoms: C_28  and  C_31
REMARK   12  A    between atoms: C_32  and  C_33
REMARK   13  A    between atoms: C_32  and  C_34
REMARK                            x       y       z     vdW  Elec       q    Type
REMARK                         _______ _______ _______ _____ _____    ______ ____
ROOT
ATOM      1  N   UNL     1       2.374   1.049  -0.662  0.00  0.00    +0.391 N 
ATOM      2  H   UNL     1       2.190   0.056  -0.479  0.00  0.00    -0.080 HD
ENDROOT
BRANCH   1   3
ATOM      3  C   UNL     1       1.131   1.687  -1.144  0.00  0.00    -0.067 C 
ATOM      4  C   UNL     1       0.427   0.725  -2.103  0.00  0.00    -0.015 C 
ATOM      5  C   UNL     1      -0.873   1.360  -2.600  0.00  0.00    -0.002 C 
ATOM      6  C   UNL     1      -0.556   2.666  -3.330  0.00  0.00    -0.000 C 
ATOM      7  C   UNL     1       0.147   3.629  -2.371  0.00  0.00    -0.002 C 
ATOM      8  C   UNL     1       1.448   2.994  -1.874  0.00  0.00    -0.015 C 
ENDBRANCH   1   3
BRANCH   1   9
ATOM      9  C   UNL     1       3.430   1.161  -1.689  0.00  0.00    -0.036 C 
BRANCH   9  16
ATOM     10  C   UNL     1       1.722  -3.144  -8.183  0.00  0.00    +0.044 C 
ATOM     11  C   UNL     1       2.026  -2.145  -7.097  0.00  0.00    -0.048 A 
ATOM     12  C   UNL     1       2.049  -0.789  -7.396  0.00  0.00    +0.004 A 
ATOM     13  C   UNL     1       2.322   0.133  -6.427  0.00  0.00    +0.010 A 
ATOM     14  C   UNL     1       2.583  -0.292  -5.119  0.00  0.00    -0.001 A 
ATOM     15  C   UNL     1       2.873   0.669  -4.054  0.00  0.00    +0.017 A 
ATOM     16  C   UNL     1       3.122   0.199  -2.807  0.00  0.00    +0.001 A 
ATOM     17  C   UNL     1       3.088  -1.189  -2.551  0.00  0.00    +0.251 A 
ATOM     18  O   UNL     1       3.310  -1.590  -1.422  0.00  0.00    -0.268 OA
ATOM     19  N   UNL     1       2.817  -2.079  -3.522  0.00  0.00    -0.322 N 
ATOM     20  H   UNL     1       2.802  -3.026  -3.311  0.00  0.00    +0.169 HD
ATOM     21  C   UNL     1       2.561  -1.665  -4.812  0.00  0.00    +0.049 A 
ATOM     22  C   UNL     1       2.280  -2.586  -5.816  0.00  0.00    +0.029 A 
ENDBRANCH   9  16
ENDBRANCH   1   9
BRANCH   1  23
ATOM     23  C   UNL     1       2.818   1.693   0.592  0.00  0.00    +0.006 C 
BRANCH  23  24
ATOM     24  C   UNL     1       1.613   2.077   1.411  0.00  0.00    +0.139 A 
ATOM     25  N   UNL     1       0.522   1.370   1.577  0.00  0.00    -0.115 NA
ATOM     26  N   UNL     1      -0.272   2.037   2.342  0.00  0.00    -0.023 NA
ATOM     27  N   UNL     1       0.284   3.151   2.668  0.00  0.00    -0.043 NA
ATOM     28  N   UNL     1       1.448   3.213   2.114  0.00  0.00    -0.226 N 
BRANCH  28  29
ATOM     29  C   UNL     1       2.408   4.314   2.228  0.00  0.00    +0.059 C 
ATOM     30  C   UNL     1       1.864   5.367   3.195  0.00  0.00    +0.036 C 
ATOM     31  C   UNL     1       3.740   3.776   2.755  0.00  0.00    +0.036 C 
ATOM     32  C   UNL     1       2.623   4.947   0.852  0.00  0.00    +0.036 C 
ENDBRANCH  28  29
ENDBRANCH  23  24
BRANCH  23  33
ATOM     33  C   UNL     1       3.672   0.696   1.378  0.00  0.00    -0.024 C 
ATOM     34  C   UNL     1       2.885  -0.601   1.580  0.00  0.00    +0.006 C 
ATOM     35  C   UNL     1       4.955   0.398   0.599  0.00  0.00    +0.006 C 
ENDBRANCH  23  33
ENDBRANCH   1  23
TORSDOF 7
