REMARK  Name = ZINC11968398
REMARK  14 active torsions:
REMARK  status: ('A' for Active; 'I' for Inactive)
REMARK    1  A    between atoms: C_1  and  C_2
REMARK    2  A    between atoms: C_5  and  C_8
REMARK    3  A    between atoms: C_9  and  C_22
REMARK    4  A    between atoms: C_12  and  O_20
REMARK    5  A    between atoms: C_15  and  O_18
REMARK    6  A    between atoms: O_18  and  C_19
REMARK    7  A    between atoms: O_20  and  C_21
REMARK    8  A    between atoms: C_22  and  N_23
REMARK    9  A    between atoms: N_23  and  C_24
REMARK   10  A    between atoms: C_24  and  C_25
REMARK   11  A    between atoms: C_25  and  N_72
REMARK   12  A    between atoms: C_26  and  N_72
REMARK   13  A    between atoms: C_27  and  N_72
REMARK   14  A    between atoms: C_28  and  C_30
REMARK                            x       y       z     vdW  Elec       q    Type
REMARK                         _______ _______ _______ _____ _____    ______ ____
ROOT
ATOM      1  C   UNL     1       7.544  -3.503   6.178  0.00  0.00    +0.076 A 
ATOM      2  C   UNL     1       8.040  -2.528   5.300  0.00  0.00    -0.003 A 
ATOM      3  C   UNL     1       8.272  -1.263   5.753  0.00  0.00    +0.021 A 
ATOM      4  C   UNL     1       8.007  -0.979   7.106  0.00  0.00    +0.046 A 
ATOM      5  C   UNL     1       8.225   0.306   7.638  0.00  0.00    +0.129 A 
ATOM      6  C   UNL     1       7.954   0.545   8.967  0.00  0.00    +0.050 A 
ATOM      7  C   UNL     1       7.467  -0.469   9.787  0.00  0.00    +0.051 A 
ATOM      8  C   UNL     1       7.246  -1.724   9.299  0.00  0.00    +0.146 A 
ATOM      9  C   UNL     1       7.512  -2.009   7.944  0.00  0.00    +0.117 A 
ATOM     10  N   UNL     1       7.303  -3.231   7.446  0.00  0.00    -0.243 NA
ENDROOT
BRANCH   1  15
ATOM     11  C   UNL     1       6.561  -8.825   4.208  0.00  0.00    +0.044 C 
ATOM     12  C   UNL     1       6.818  -7.432   4.723  0.00  0.00    -0.050 A 
ATOM     13  C   UNL     1       7.672  -7.241   5.795  0.00  0.00    +0.004 A 
ATOM     14  C   UNL     1       7.911  -5.968   6.271  0.00  0.00    +0.010 A 
ATOM     15  C   UNL     1       7.291  -4.874   5.671  0.00  0.00    +0.001 A 
ATOM     16  C   UNL     1       6.427  -5.073   4.595  0.00  0.00    +0.010 A 
ATOM     17  C   UNL     1       6.200  -6.350   4.123  0.00  0.00    +0.004 A 
ENDBRANCH   1  15
BRANCH   8  18
ATOM     18  O   UNL     1       6.770  -2.699  10.119  0.00  0.00    -0.493 OA
ATOM     19  C   UNL     1       6.524  -2.339  11.480  0.00  0.00    +0.277 C 
ENDBRANCH   8  18
BRANCH   5  20
ATOM     20  O   UNL     1       8.700   1.303   6.846  0.00  0.00    -0.494 OA
ATOM     21  C   UNL     1       8.895   2.580   7.458  0.00  0.00    +0.277 C 
ENDBRANCH   5  20
BRANCH   2  22
ATOM     22  C   UNL     1       8.310  -2.875   3.858  0.00  0.00    +0.145 C 
BRANCH  22  23
ATOM     23  N   UNL     1       9.655  -3.444   3.736  0.00  0.00    -0.295 N 
ATOM     24  C   UNL     1       9.829  -4.779   3.795  0.00  0.00    +0.247 C 
ATOM     25  O   UNL     1       8.887  -5.524   3.609  0.00  0.00    -0.270 OA
BRANCH  24  26
ATOM     26  C   UNL     1      11.165  -5.336   4.085  0.00  0.00    +0.041 A 
ATOM     27  C   UNL     1      12.299  -4.525   3.989  0.00  0.00    +0.017 A 
ATOM     28  C   UNL     1      13.544  -5.047   4.260  0.00  0.00    +0.050 A 
ATOM     29  C   UNL     1      13.679  -6.379   4.630  0.00  0.00    +0.166 A 
ATOM     30  C   UNL     1      12.551  -7.194   4.728  0.00  0.00    +0.167 A 
ATOM     31  C   UNL     1      11.299  -6.676   4.457  0.00  0.00    +0.062 A 
ATOM     32  O   UNL     1      12.949  -8.445   5.104  0.00  0.00    -0.453 OA
ATOM     33  C   UNL     1      14.279  -8.282   5.631  0.00  0.00    +0.466 C 
ATOM     34  O   UNL     1      14.780  -7.120   4.944  0.00  0.00    -0.453 OA
ENDBRANCH  24  26
BRANCH  23  35
ATOM     35  C   UNL     1      10.809  -2.561   3.551  0.00  0.00    +0.090 C 
BRANCH  35  36
ATOM     36  C   UNL     1      11.584  -2.452   4.866  0.00  0.00    -0.060 C 
BRANCH  36  39
ATOM     37  C   UNL     1      12.630  -0.318   4.403  0.00  0.00    -0.097 C 
ATOM     38  C   UNL     1      13.790  -1.971   5.740  0.00  0.00    -0.097 C 
ATOM     39  N   UNL     1      12.866  -1.763   4.606  0.00  0.00    +0.377 N 
ATOM     40  H   UNL     1      13.288  -2.155   3.755  0.00  0.00    -0.083 HD
ENDBRANCH  36  39
ENDBRANCH  35  36
ENDBRANCH  23  35
ENDBRANCH  22  23
ENDBRANCH   2  22
TORSDOF 9
