REMARK  Name = ZINC39732696
REMARK  3 active torsions:
REMARK  status: ('A' for Active; 'I' for Inactive)
REMARK    1  A    between atoms: C_1  and  C_2
REMARK    2  A    between atoms: N_16  and  N_17
REMARK    3  A    between atoms: C_18  and  C_19
REMARK                            x       y       z     vdW  Elec       q    Type
REMARK                         _______ _______ _______ _____ _____    ______ ____
ROOT
ATOM      1  C   UNL     1      -0.018   1.503   0.010  0.00  0.00    +0.044 C 
ATOM      2  C   UNL     1       0.002  -0.004   0.002  0.00  0.00    -0.050 A 
ATOM      3  C   UNL     1       0.005  -0.672  -1.230  0.00  0.00    +0.005 A 
ATOM      4  C   UNL     1       0.030  -2.022  -1.308  0.00  0.00    +0.026 A 
ATOM      5  C   UNL     1       0.054  -2.812  -0.071  0.00  0.00    +0.046 A 
ATOM      6  N   UNL     1       0.047  -4.107   0.140  0.00  0.00    -0.358 N 
ATOM      7  C   UNL     1       0.206  -4.351   1.563  0.00  0.00    +0.253 C 
ATOM      8  C   UNL     1       0.045  -2.999   2.235  0.00  0.00    +0.115 C 
ATOM      9  C   UNL     1       0.037  -2.075   1.218  0.00  0.00    +0.025 A 
ATOM     10  C   UNL     1       0.022  -0.662   1.184  0.00  0.00    +0.015 A 
ATOM     11  N   UNL     1      -0.183  -2.889   3.546  0.00  0.00    -0.171 NA
ATOM     12  N   UNL     1      -0.778  -3.903   4.098  0.00  0.00    -0.247 N 
ATOM     13  C   UNL     1      -1.200  -4.970   3.377  0.00  0.00    +0.227 C 
ATOM     14  N   UNL     1      -0.802  -5.231   2.152  0.00  0.00    -0.220 NA
ATOM     15  N   UNL     1      -2.097  -5.837   3.965  0.00  0.00    -0.206 N 
ATOM     16  H   UNL     1      -2.408  -5.674   4.869  0.00  0.00    +0.177 HD
ATOM     17  H   UNL     1      -0.926  -3.896   5.056  0.00  0.00    +0.192 HD
ATOM     18  H   UNL     1      -0.048  -4.789  -0.543  0.00  0.00    +0.162 HD
ENDROOT
BRANCH  15  19
ATOM     19  N   UNL     1      -2.560  -6.954   3.256  0.00  0.00    -0.188 NA
ATOM     20  C   UNL     1      -3.404  -7.770   3.810  0.00  0.00    +0.139 C 
BRANCH  20  21
ATOM     21  C   UNL     1      -3.891  -8.944   3.065  0.00  0.00    +0.017 A 
ATOM     22  C   UNL     1      -4.804  -9.821   3.657  0.00  0.00    +0.060 A 
ATOM     23  C   UNL     1      -5.258 -10.921   2.954  0.00  0.00    +0.167 A 
ATOM     24  C   UNL     1      -4.805 -11.155   1.656  0.00  0.00    +0.168 A 
ATOM     25  C   UNL     1      -3.898 -10.286   1.068  0.00  0.00    +0.070 A 
ATOM     26  C   UNL     1      -3.444  -9.182   1.761  0.00  0.00    +0.053 A 
ATOM     27 CL   UNL     1      -2.315  -8.093   1.018  0.00  0.00    -0.083 Cl
ATOM     28  O   UNL     1      -5.397 -12.292   1.187  0.00  0.00    -0.453 OA
ATOM     29  C   UNL     1      -5.899 -12.974   2.352  0.00  0.00    +0.466 C 
ATOM     30  O   UNL     1      -6.133 -11.912   3.295  0.00  0.00    -0.453 OA
ENDBRANCH  20  21
ENDBRANCH  15  19
TORSDOF 2
