REMARK  Name = ZINC13495261
REMARK  12 active torsions:
REMARK  status: ('A' for Active; 'I' for Inactive)
REMARK    1  A    between atoms: C_1  and  C_2
REMARK    2  A    between atoms: C_2  and  C_3
REMARK    3  A    between atoms: C_3  and  C_5
REMARK    4  A    between atoms: C_3  and  N_16
REMARK    5  A    between atoms: N_9  and  C_10
REMARK    6  A    between atoms: C_10  and  C_11
REMARK    7  A    between atoms: N_16  and  C_17
REMARK    8  A    between atoms: N_16  and  C_27
REMARK    9  A    between atoms: C_17  and  C_18
REMARK   10  A    between atoms: C_27  and  C_28
REMARK   11  A    between atoms: C_32  and  C_41
REMARK   12  A    between atoms: C_34  and  C_40
REMARK                            x       y       z     vdW  Elec       q    Type
REMARK                         _______ _______ _______ _____ _____    ______ ____
ROOT
ATOM      1  N   UNL     1      -2.234  -0.408   1.637  0.00  0.00    -0.284 NA
ENDROOT
BRANCH   1   2
ATOM      2  C   UNL     1      -1.808  -1.312   0.560  0.00  0.00    +0.127 C 
BRANCH   2   3
ATOM      3  C   UNL     1      -2.078  -2.738   0.964  0.00  0.00    +0.169 A 
ATOM      4  N   UNL     1      -1.823  -3.284   2.127  0.00  0.00    -0.112 NA
ATOM      5  N   UNL     1      -2.198  -4.516   2.080  0.00  0.00    -0.023 NA
ATOM      6  N   UNL     1      -2.686  -4.770   0.916  0.00  0.00    -0.043 NA
ATOM      7  N   UNL     1      -2.635  -3.697   0.201  0.00  0.00    -0.220 N 
BRANCH   7   8
ATOM      8  C   UNL     1      -3.093  -3.552  -1.183  0.00  0.00    +0.221 C 
BRANCH   8   9
ATOM      9  C   UNL     1      -1.962  -3.879  -2.124  0.00  0.00    +0.126 A 
ATOM     10  C   UNL     1      -1.683  -5.095  -2.627  0.00  0.00    +0.046 A 
ATOM     11  C   UNL     1      -0.548  -4.945  -3.456  0.00  0.00    +0.041 A 
ATOM     12  C   UNL     1      -0.201  -3.646  -3.411  0.00  0.00    +0.195 A 
ATOM     13  O   UNL     1      -1.064  -3.004  -2.607  0.00  0.00    -0.466 OA
ENDBRANCH   8   9
ENDBRANCH   7   8
ENDBRANCH   2   3
BRANCH   2  15
ATOM     14  C   UNL     1      -0.043   0.303  -0.162  0.00  0.00    +0.006 C 
ATOM     15  C   UNL     1      -0.310  -1.129   0.304  0.00  0.00    +0.023 C 
ENDBRANCH   2  15
ENDBRANCH   1   2
BRANCH   1  16
ATOM     16  C   UNL     1      -1.228  -0.353   2.707  0.00  0.00    +0.120 C 
BRANCH  16  17
ATOM     17  C   UNL     1      -1.849   0.226   3.951  0.00  0.00    -0.030 A 
ATOM     18  C   UNL     1      -1.708   1.573   4.230  0.00  0.00    +0.009 A 
ATOM     19  C   UNL     1      -2.277   2.109   5.371  0.00  0.00    +0.050 A 
ATOM     20  C   UNL     1      -2.989   1.296   6.238  0.00  0.00    +0.166 A 
ATOM     21  C   UNL     1      -3.131  -0.060   5.957  0.00  0.00    +0.167 A 
ATOM     22  C   UNL     1      -2.563  -0.589   4.809  0.00  0.00    +0.054 A 
ATOM     23  O   UNL     1      -3.866  -0.637   6.952  0.00  0.00    -0.453 OA
ATOM     24  C   UNL     1      -3.826   0.294   8.049  0.00  0.00    +0.466 C 
ATOM     25  O   UNL     1      -3.636   1.569   7.408  0.00  0.00    -0.453 OA
ENDBRANCH  16  17
ENDBRANCH   1  16
BRANCH   1  26
ATOM     26  C   UNL     1      -2.522   0.934   1.116  0.00  0.00    +0.126 C 
BRANCH  26  27
ATOM     27  C   UNL     1      -3.866   0.930   0.433  0.00  0.00    +0.031 A 
ATOM     28  C   UNL     1      -4.979   1.265   1.130  0.00  0.00    +0.020 A 
ATOM     29  C   UNL     1      -6.269   1.252   0.438  0.00  0.00    -0.001 A 
ATOM     30  C   UNL     1      -7.452   1.589   1.104  0.00  0.00    +0.013 A 
ATOM     31  C   UNL     1      -8.639   1.567   0.429  0.00  0.00    -0.050 A 
ATOM     32  C   UNL     1      -8.682   1.212  -0.913  0.00  0.00    +0.008 A 
ATOM     33  C   UNL     1      -7.530   0.875  -1.589  0.00  0.00    -0.026 A 
ATOM     34  C   UNL     1      -6.309   0.892  -0.923  0.00  0.00    +0.052 A 
ATOM     35  N   UNL     1      -5.140   0.561  -1.575  0.00  0.00    -0.322 N 
ATOM     36  H   UNL     1      -5.170   0.313  -2.512  0.00  0.00    +0.169 HD
ATOM     37  C   UNL     1      -3.960   0.582  -0.931  0.00  0.00    +0.254 A 
ATOM     38  O   UNL     1      -2.946   0.288  -1.541  0.00  0.00    -0.268 OA
ATOM     39  C   UNL     1      -7.592   0.491  -3.045  0.00  0.00    +0.046 C 
ATOM     40  C   UNL     1      -9.913   1.930   1.147  0.00  0.00    +0.044 C 
ENDBRANCH  26  27
ENDBRANCH   1  26
TORSDOF 9
