REMARK  Name = ZINC08712850
REMARK  9 active torsions:
REMARK  status: ('A' for Active; 'I' for Inactive)
REMARK    1  A    between atoms: C_1  and  C_2
REMARK    2  A    between atoms: C_7  and  C_8
REMARK    3  A    between atoms: C_8  and  N_9
REMARK    4  A    between atoms: N_9  and  C_10
REMARK    5  A    between atoms: C_10  and  C_12
REMARK    6  A    between atoms: C_10  and  C_19
REMARK    7  A    between atoms: N_21  and  C_22
REMARK    8  A    between atoms: C_31  and  C_33
REMARK    9  A    between atoms: C_33  and  N_34
REMARK                            x       y       z     vdW  Elec       q    Type
REMARK                         _______ _______ _______ _____ _____    ______ ____
ROOT
ATOM      1  N   UNL     1      -0.696   1.026  -3.213  0.00  0.00    -0.280 N 
ATOM      2  C   UNL     1      -1.053   1.762  -2.142  0.00  0.00    +0.235 C 
ATOM      3  O   UNL     1      -1.677   2.790  -2.294  0.00  0.00    -0.274 OA
ENDROOT
BRANCH   1   4
ATOM      4  C   UNL     1      -0.049  -0.275  -3.025  0.00  0.00    +0.144 C 
BRANCH   4  11
ATOM      5  C   UNL     1      -2.441  -1.220  -4.342  0.00  0.00    +0.044 C 
ATOM      6  C   UNL     1      -2.134  -1.656  -2.933  0.00  0.00    -0.046 A 
ATOM      7  C   UNL     1      -2.997  -2.509  -2.270  0.00  0.00    +0.003 A 
ATOM      8  C   UNL     1      -2.715  -2.910  -0.977  0.00  0.00    +0.000 A 
ATOM      9  C   UNL     1      -1.571  -2.458  -0.347  0.00  0.00    +0.000 A 
ATOM     10  C   UNL     1      -0.705  -1.609  -1.012  0.00  0.00    +0.005 A 
ATOM     11  C   UNL     1      -0.990  -1.204  -2.303  0.00  0.00    -0.027 A 
ENDBRANCH   4  11
ENDBRANCH   1   4
BRANCH   1  12
ATOM     12  C   UNL     1      -0.955   1.527  -4.565  0.00  0.00    +0.193 C 
BRANCH  12  13
ATOM     13  C   UNL     1      -0.313   0.608  -5.573  0.00  0.00    -0.018 A 
ATOM     14  C   UNL     1       1.035   0.313  -5.479  0.00  0.00    +0.007 A 
ATOM     15  C   UNL     1       1.623  -0.534  -6.399  0.00  0.00    +0.020 A 
ATOM     16  C   UNL     1       0.865  -1.078  -7.421  0.00  0.00    +0.041 A 
ATOM     17  C   UNL     1      -0.482  -0.777  -7.518  0.00  0.00    +0.020 A 
ATOM     18  C   UNL     1      -1.070   0.065  -6.594  0.00  0.00    +0.007 A 
ATOM     19 CL   UNL     1       1.605  -2.135  -8.582  0.00  0.00    -0.084 Cl
ENDBRANCH  12  13
BRANCH  12  20
ATOM     20  C   UNL     1      -0.376   2.911  -4.707  0.00  0.00    +0.242 C 
ATOM     21  O   UNL     1       0.196   3.428  -3.771  0.00  0.00    -0.273 OA
ATOM     22  N   UNL     1      -0.494   3.574  -5.875  0.00  0.00    -0.284 N 
ATOM     23  H   UNL     1      -1.026   3.199  -6.594  0.00  0.00    +0.155 HD
BRANCH  22  24
ATOM     24  C   UNL     1       0.151   4.806  -6.049  0.00  0.00    +0.037 A 
ATOM     25  C   UNL     1      -0.430   5.788  -6.840  0.00  0.00    +0.027 A 
ATOM     26  C   UNL     1       0.203   7.004  -7.010  0.00  0.00    +0.051 A 
ATOM     27  C   UNL     1       1.423   7.244  -6.399  0.00  0.00    +0.166 A 
ATOM     28  C   UNL     1       2.011   6.259  -5.609  0.00  0.00    +0.168 A 
ATOM     29  C   UNL     1       1.373   5.042  -5.436  0.00  0.00    +0.072 A 
ATOM     30  O   UNL     1       3.195   6.736  -5.126  0.00  0.00    -0.453 OA
ATOM     31  C   UNL     1       3.522   7.866  -5.956  0.00  0.00    +0.466 C 
ATOM     32  O   UNL     1       2.240   8.339  -6.411  0.00  0.00    -0.453 OA
ENDBRANCH  22  24
ENDBRANCH  12  20
ENDBRANCH   1  12
BRANCH   2  33
ATOM     33  C   UNL     1      -0.676   1.307  -0.756  0.00  0.00    +0.210 C 
BRANCH  33  34
ATOM     34  N   UNL     1      -1.033   2.346   0.213  0.00  0.00    -0.255 N 
ATOM     35  C   UNL     1      -2.265   2.428   0.859  0.00  0.00    +0.048 A 
ATOM     36  C   UNL     1      -3.397   1.628   0.779  0.00  0.00    +0.024 A 
ATOM     37  C   UNL     1      -4.514   1.927   1.537  0.00  0.00    +0.002 A 
ATOM     38  C   UNL     1      -4.521   3.023   2.385  0.00  0.00    +0.001 A 
ATOM     39  C   UNL     1      -3.405   3.830   2.480  0.00  0.00    +0.014 A 
ATOM     40  C   UNL     1      -2.274   3.538   1.718  0.00  0.00    +0.048 A 
ATOM     41  C   UNL     1      -0.954   4.182   1.589  0.00  0.00    +0.250 C 
ATOM     42  O   UNL     1      -0.554   5.173   2.164  0.00  0.00    -0.282 OA
ATOM     43  C   UNL     1      -0.211   3.338   0.596  0.00  0.00    +0.292 C 
ATOM     44  O   UNL     1       0.924   3.520   0.207  0.00  0.00    -0.266 OA
ENDBRANCH  33  34
ENDBRANCH   2  33
TORSDOF 8
