REMARK  Name = ZINC24397825
REMARK  13 active torsions:
REMARK  status: ('A' for Active; 'I' for Inactive)
REMARK    1  A    between atoms: C_1  and  C_2
REMARK    2  A    between atoms: C_2  and  O_3
REMARK    3  A    between atoms: O_3  and  C_4
REMARK    4  A    between atoms: C_6  and  C_15
REMARK    5  A    between atoms: C_7  and  N_12
REMARK    6  A    between atoms: C_9  and  O_10
REMARK    7  A    between atoms: O_10  and  C_11
REMARK    8  A    between atoms: N_17  and  C_18
REMARK    9  A    between atoms: N_17  and  C_19
REMARK   10  A    between atoms: C_19  and  C_20
REMARK   11  A    between atoms: C_22  and  C_28
REMARK   12  A    between atoms: C_25  and  O_26
REMARK   13  A    between atoms: O_26  and  C_27
REMARK                            x       y       z     vdW  Elec       q    Type
REMARK                         _______ _______ _______ _____ _____    ______ ____
ROOT
ATOM      1  C   UNL     1       0.036  -2.271  -2.229  0.00  0.00    +0.163 A 
ATOM      2  C   UNL     1      -0.520  -3.113  -1.286  0.00  0.00    +0.064 A 
ATOM      3  C   UNL     1       0.284  -4.045  -0.625  0.00  0.00    +0.071 A 
ATOM      4  C   UNL     1       1.647  -4.122  -0.922  0.00  0.00    +0.142 A 
ATOM      5  C   UNL     1       2.196  -3.280  -1.864  0.00  0.00    +0.082 A 
ATOM      6  C   UNL     1       1.396  -2.357  -2.524  0.00  0.00    +0.164 A 
ENDROOT
BRANCH   3   7
ATOM      7  C   UNL     1      -0.306  -4.947   0.384  0.00  0.00    +0.249 C 
ATOM      8  O   UNL     1      -0.289  -6.150   0.209  0.00  0.00    -0.270 OA
ATOM      9  N   UNL     1      -0.863  -4.436   1.500  0.00  0.00    -0.296 N 
ATOM     10  C   UNL     1      -0.970  -2.985   1.667  0.00  0.00    +0.132 C 
BRANCH   9  11
ATOM     11  C   UNL     1      -1.361  -5.333   2.547  0.00  0.00    +0.146 C 
BRANCH  11  12
ATOM     12  C   UNL     1      -0.256  -5.618   3.531  0.00  0.00    +0.012 A 
ATOM     13  C   UNL     1       0.457  -6.799   3.448  0.00  0.00    +0.012 A 
ATOM     14  C   UNL     1       1.470  -7.061   4.351  0.00  0.00    -0.050 A 
ATOM     15  C   UNL     1       1.773  -6.143   5.340  0.00  0.00    +0.007 A 
ATOM     16  C   UNL     1       1.064  -4.961   5.427  0.00  0.00    +0.046 A 
ATOM     17  C   UNL     1       0.050  -4.693   4.518  0.00  0.00    +0.125 A 
ATOM     18  C   UNL     1       2.245  -8.350   4.259  0.00  0.00    +0.044 C 
BRANCH  17  19
ATOM     19  O   UNL     1      -0.645  -3.528   4.599  0.00  0.00    -0.495 OA
ATOM     20  C   UNL     1      -0.276  -2.622   5.640  0.00  0.00    +0.277 C 
ENDBRANCH  17  19
ENDBRANCH  11  12
ENDBRANCH   9  11
ENDBRANCH   3   7
BRANCH   4  21
ATOM     21  N   UNL     1       2.501  -5.109  -0.224  0.00  0.00    +0.057 N 
ATOM     22  O   UNL     1       3.694  -5.123  -0.421  0.00  0.00    -0.126 OA
ATOM     23  O   UNL     1       2.007  -5.901   0.545  0.00  0.00    -0.126 OA
ENDBRANCH   4  21
BRANCH   6  24
ATOM     24  O   UNL     1       1.941  -1.533  -3.456  0.00  0.00    -0.491 OA
ATOM     25  C   UNL     1       3.340  -1.674  -3.709  0.00  0.00    +0.277 C 
ENDBRANCH   6  24
BRANCH   1  26
ATOM     26  O   UNL     1      -0.744  -1.363  -2.875  0.00  0.00    -0.489 OA
BRANCH  26  28
ATOM     27  C   UNL     1      -2.838  -0.254  -3.346  0.00  0.00    +0.048 C 
ATOM     28  C   UNL     1      -2.128  -1.330  -2.522  0.00  0.00    +0.226 C 
ENDBRANCH  26  28
ENDBRANCH   1  26
TORSDOF 8
