REMARK  Name = ZINC44890430
REMARK  9 active torsions:
REMARK  status: ('A' for Active; 'I' for Inactive)
REMARK    1  A    between atoms: C_1  and  O_2
REMARK    2  A    between atoms: O_2  and  C_3
REMARK    3  A    between atoms: C_3  and  C_5
REMARK    4  A    between atoms: C_5  and  C_7
REMARK    5  A    between atoms: C_5  and  N_11
REMARK    6  A    between atoms: C_7  and  C_8
REMARK    7  A    between atoms: C_8  and  S_9
REMARK    8  A    between atoms: S_9  and  C_10
REMARK    9  A    between atoms: C_23  and  C_25
REMARK                            x       y       z     vdW  Elec       q    Type
REMARK                         _______ _______ _______ _____ _____    ______ ____
ROOT
ATOM      1  N   UNL     1      -2.687  -2.382   2.286  0.00  0.00    -0.286 N 
ATOM      2  C   UNL     1      -3.326  -2.696   1.142  0.00  0.00    +0.304 C 
ATOM      3  O   UNL     1      -2.774  -2.530   0.072  0.00  0.00    -0.253 OA
ATOM      4  N   UNL     1      -4.579  -3.192   1.185  0.00  0.00    -0.273 N 
ATOM      5  C   UNL     1      -5.252  -3.643  -0.042  0.00  0.00    +0.116 C 
ATOM      6  C   UNL     1      -5.508  -5.153   0.051  0.00  0.00    +0.074 C 
ATOM      7  C   UNL     1      -6.057  -5.468   1.418  0.00  0.00    +0.040 A 
ATOM      8  C   UNL     1      -5.968  -4.654   2.492  0.00  0.00    +0.062 A 
ATOM      9  N   UNL     1      -6.559  -5.262   3.523  0.00  0.00    -0.348 N 
ATOM     10  C   UNL     1      -7.015  -6.423   3.132  0.00  0.00    +0.171 A 
ATOM     11  N   UNL     1      -6.722  -6.587   1.821  0.00  0.00    -0.349 N 
ATOM     12  H   UNL     1      -6.943  -7.355   1.272  0.00  0.00    +0.166 HD
ATOM     13  C   UNL     1      -5.304  -3.303   2.463  0.00  0.00    +0.156 C 
ATOM     14  H   UNL     1      -3.153  -2.440   3.135  0.00  0.00    +0.151 HD
ATOM     15  H   UNL     1      -6.636  -4.900   4.420  0.00  0.00    +0.167 HD
ENDROOT
BRANCH  13  16
ATOM     16  C   UNL     1      -6.348  -2.221   2.556  0.00  0.00    -0.020 A 
ATOM     17  C   UNL     1      -7.403  -2.201   1.662  0.00  0.00    +0.009 A 
ATOM     18  C   UNL     1      -8.362  -1.210   1.746  0.00  0.00    +0.040 A 
ATOM     19  C   UNL     1      -8.267  -0.236   2.725  0.00  0.00    +0.142 A 
ATOM     20  C   UNL     1      -7.210  -0.256   3.620  0.00  0.00    +0.076 A 
ATOM     21  C   UNL     1      -6.254  -1.252   3.538  0.00  0.00    +0.028 A 
ATOM     22 CL   UNL     1      -7.089   0.965   4.849  0.00  0.00    -0.081 Cl
ATOM     23  F   UNL     1      -9.204   0.734   2.807  0.00  0.00    -0.204 F 
ENDBRANCH  13  16
BRANCH   1  24
ATOM     24  C   UNL     1      -1.286  -1.954   2.248  0.00  0.00    +0.184 C 
BRANCH  24  25
ATOM     25  C   UNL     1      -0.390  -3.166   2.249  0.00  0.00    +0.327 C 
ATOM     26  O   UNL     1      -0.872  -4.274   2.278  0.00  0.00    -0.249 OA
BRANCH  25  28
ATOM     27  C   UNL     1       1.731  -4.207   2.220  0.00  0.00    +0.280 C 
ATOM     28  O   UNL     1       0.943  -3.015   2.217  0.00  0.00    -0.467 OA
ENDBRANCH  25  28
ENDBRANCH  24  25
BRANCH  24  29
ATOM     29  C   UNL     1      -0.982  -1.095   3.477  0.00  0.00    +0.044 C 
BRANCH  29  30
ATOM     30  C   UNL     1      -1.802   0.196   3.412  0.00  0.00    +0.071 C 
BRANCH  30  31
ATOM     31  S   UNL     1      -1.441   1.215   4.869  0.00  0.00    -0.164 S 
ATOM     32  C   UNL     1      -2.478   2.686   4.643  0.00  0.00    +0.084 C 
ENDBRANCH  30  31
ENDBRANCH  29  30
ENDBRANCH  24  29
ENDBRANCH   1  24
TORSDOF 7
