REMARK  Name = ZINC40982603
REMARK  17 active torsions:
REMARK  status: ('A' for Active; 'I' for Inactive)
REMARK    1  A    between atoms: C_1  and  C_2
REMARK    2  A    between atoms: C_2  and  C_3
REMARK    3  A    between atoms: C_3  and  C_4
REMARK    4  A    between atoms: C_4  and  O_5
REMARK    5  A    between atoms: O_5  and  C_6
REMARK    6  A    between atoms: C_9  and  C_15
REMARK    7  A    between atoms: C_11  and  O_12
REMARK    8  A    between atoms: O_12  and  C_13
REMARK    9  A    between atoms: C_13  and  C_14
REMARK   10  A    between atoms: C_17  and  C_30
REMARK   11  A    between atoms: C_18  and  C_29
REMARK   12  A    between atoms: C_23  and  S_25
REMARK   13  A    between atoms: S_25  and  C_26
REMARK   14  A    between atoms: C_26  and  C_27
REMARK   15  A    between atoms: C_27  and  C_28
REMARK   16  A    between atoms: N_32  and  C_33
REMARK   17  A    between atoms: C_36  and  C_39
REMARK                            x       y       z     vdW  Elec       q    Type
REMARK                         _______ _______ _______ _____ _____    ______ ____
ROOT
ATOM      1  C   UNL     1       1.945  -8.114  -3.159  0.00  0.00    +0.177 C 
ATOM      2  C   UNL     1       0.537  -8.639  -3.248  0.00  0.00    +0.060 C 
ATOM      3  C   UNL     1      -0.045  -9.345  -2.268  0.00  0.00    +0.018 C 
ATOM      4  N   UNL     1       0.611  -9.656  -1.102  0.00  0.00    -0.287 N 
ATOM      5  C   UNL     1       1.983  -9.448  -1.065  0.00  0.00    +0.219 A 
ATOM      6  N   UNL     1       2.623  -8.732  -2.022  0.00  0.00    -0.220 N 
ATOM      7  N   UNL     1       3.975  -8.729  -1.682  0.00  0.00    -0.141 NA
ATOM      8  C   UNL     1       4.086  -9.417  -0.566  0.00  0.00    +0.210 A 
ATOM      9  N   UNL     1       2.871  -9.850  -0.197  0.00  0.00    -0.187 NA
ATOM     10  C   UNL     1      -1.465  -9.814  -2.452  0.00  0.00    +0.061 C 
ATOM     11  H   UNL     1       0.134 -10.007  -0.333  0.00  0.00    +0.155 HD
ENDROOT
BRANCH   1  15
ATOM     12  C   UNL     1       1.850  -3.872  -2.623  0.00  0.00    +0.162 A 
ATOM     13  C   UNL     1       1.249  -4.704  -1.693  0.00  0.00    +0.050 A 
ATOM     14  C   UNL     1       1.281  -6.075  -1.869  0.00  0.00    +0.010 A 
ATOM     15  C   UNL     1       1.913  -6.619  -2.972  0.00  0.00    -0.015 A 
ATOM     16  C   UNL     1       2.515  -5.794  -3.904  0.00  0.00    +0.055 A 
ATOM     17  C   UNL     1       2.481  -4.419  -3.736  0.00  0.00    +0.162 A 
BRANCH  12  18
ATOM     18  O   UNL     1       1.819  -2.523  -2.452  0.00  0.00    -0.488 OA
BRANCH  18  19
ATOM     19  C   UNL     1       1.154  -2.033  -1.286  0.00  0.00    +0.229 C 
BRANCH  19  20
ATOM     20  C   UNL     1       1.222  -0.504  -1.265  0.00  0.00    +0.041 C 
BRANCH  20  22
ATOM     21  C   UNL     1       0.578   1.549   0.004  0.00  0.00    +0.004 C 
ATOM     22  C   UNL     1       0.510   0.021  -0.017  0.00  0.00    -0.000 C 
ENDBRANCH  20  22
ENDBRANCH  19  20
ENDBRANCH  18  19
ENDBRANCH  12  18
BRANCH  17  23
ATOM     23  O   UNL     1       3.067  -3.606  -4.655  0.00  0.00    -0.489 OA
BRANCH  23  24
ATOM     24  C   UNL     1       3.696  -4.238  -5.773  0.00  0.00    +0.226 C 
ATOM     25  C   UNL     1       4.295  -3.171  -6.691  0.00  0.00    +0.048 C 
ENDBRANCH  23  24
ENDBRANCH  17  23
ENDBRANCH   1  15
BRANCH   2  26
ATOM     26  C   UNL     1      -0.207  -8.375  -4.422  0.00  0.00    +0.248 C 
ATOM     27  O   UNL     1       0.029  -8.992  -5.445  0.00  0.00    -0.270 OA
ATOM     28  N   UNL     1      -1.178  -7.441  -4.408  0.00  0.00    -0.282 N 
ATOM     29  H   UNL     1      -1.324  -6.904  -3.613  0.00  0.00    +0.155 HD
BRANCH  28  30
ATOM     30  C   UNL     1      -1.976  -7.245  -5.540  0.00  0.00    +0.034 A 
ATOM     31  C   UNL     1      -3.315  -6.904  -5.396  0.00  0.00    +0.023 A 
ATOM     32  C   UNL     1      -4.101  -6.711  -6.516  0.00  0.00    +0.005 A 
ATOM     33  C   UNL     1      -3.556  -6.857  -7.778  0.00  0.00    -0.050 A 
ATOM     34  C   UNL     1      -2.223  -7.197  -7.925  0.00  0.00    +0.005 A 
ATOM     35  C   UNL     1      -1.431  -7.384  -6.809  0.00  0.00    +0.023 A 
ATOM     36  C   UNL     1      -4.416  -6.646  -8.998  0.00  0.00    +0.044 C 
ENDBRANCH  28  30
ENDBRANCH   2  26
BRANCH   8  37
ATOM     37  S   UNL     1       5.588  -9.723   0.303  0.00  0.00    -0.084 S 
BRANCH  37  38
ATOM     38  C   UNL     1       5.074 -10.712   1.734  0.00  0.00    +0.077 C 
BRANCH  38  39
ATOM     39  C   UNL     1       6.298 -11.051   2.586  0.00  0.00    +0.008 C 
ATOM     40  C   UNL     1       5.864 -11.885   3.793  0.00  0.00    +0.004 C 
ENDBRANCH  38  39
ENDBRANCH  37  38
ENDBRANCH   8  37
TORSDOF 12
