REMARK  Name = ZINC51618520
REMARK  9 active torsions:
REMARK  status: ('A' for Active; 'I' for Inactive)
REMARK    1  A    between atoms: C_1  and  C_2
REMARK    2  A    between atoms: C_2  and  C_3
REMARK    3  A    between atoms: C_2  and  C_4
REMARK    4  A    between atoms: C_2  and  C_5
REMARK    5  A    between atoms: C_14  and  N_17
REMARK    6  A    between atoms: N_20  and  C_21
REMARK    7  A    between atoms: N_20  and  C_22
REMARK    8  A    between atoms: C_22  and  C_23
REMARK    9  A    between atoms: C_22  and  C_26
REMARK                            x       y       z     vdW  Elec       q    Type
REMARK                         _______ _______ _______ _____ _____    ______ ____
ROOT
ATOM      1  C   UNL     1       0.553  -0.211  -1.364  0.00  0.00    +0.225 C 
ATOM      2  O   UNL     1       1.397   0.459  -1.920  0.00  0.00    -0.275 OA
ATOM      3  N   UNL     1       0.422  -1.518  -1.667  0.00  0.00    -0.265 N 
ATOM      4  C   UNL     1      -0.662  -2.329  -1.088  0.00  0.00    +0.154 C 
ATOM      5  C   UNL     1      -0.065  -3.688  -0.695  0.00  0.00    +0.248 C 
ATOM      6  O   UNL     1       0.502  -4.296  -1.857  0.00  0.00    -0.489 OA
ATOM      7  C   UNL     1       1.339  -3.544  -2.621  0.00  0.00    +0.142 A 
ATOM      8  C   UNL     1       1.313  -2.152  -2.550  0.00  0.00    +0.080 A 
ATOM      9  C   UNL     1       2.162  -1.395  -3.340  0.00  0.00    +0.050 A 
ATOM     10  C   UNL     1       3.042  -2.026  -4.209  0.00  0.00    +0.037 A 
ATOM     11  C   UNL     1       3.069  -3.413  -4.282  0.00  0.00    +0.027 A 
ATOM     12  C   UNL     1       2.225  -4.169  -3.486  0.00  0.00    +0.049 A 
ENDROOT
BRANCH  10  13
ATOM     13  N   UNL     1       3.903  -1.265  -5.011  0.00  0.00    -0.269 N 
ATOM     14  C   UNL     1       5.144  -1.716  -5.285  0.00  0.00    +0.306 C 
ATOM     15  O   UNL     1       5.490  -2.815  -4.899  0.00  0.00    -0.252 OA
ATOM     16  N   UNL     1       6.000  -0.947  -5.987  0.00  0.00    -0.285 N 
ATOM     17  C   UNL     1       5.582   0.378  -6.452  0.00  0.00    +0.134 C 
ATOM     18  H   UNL     1       3.606  -0.414  -5.369  0.00  0.00    +0.156 HD
BRANCH  16  19
ATOM     19  C   UNL     1       7.348  -1.437  -6.285  0.00  0.00    +0.083 C 
BRANCH  19  20
ATOM     20  C   UNL     1       7.582  -1.398  -7.796  0.00  0.00    +0.010 C 
ATOM     21  C   UNL     1       7.583  -2.731  -8.546  0.00  0.00    +0.006 C 
ATOM     22  C   UNL     1       8.896  -1.979  -8.323  0.00  0.00    +0.006 C 
ENDBRANCH  19  20
BRANCH  19  23
ATOM     23  C   UNL     1       8.379  -0.549  -5.586  0.00  0.00    +0.010 C 
ATOM     24  C   UNL     1       9.441  -1.241  -4.729  0.00  0.00    +0.006 C 
ATOM     25  C   UNL     1       8.311  -0.455  -4.060  0.00  0.00    +0.006 C 
ENDBRANCH  19  23
ENDBRANCH  16  19
ENDBRANCH  10  13
BRANCH   1  27
ATOM     26  C   UNL     1      -0.049   1.915  -0.238  0.00  0.00    +0.020 C 
ATOM     27  C   UNL     1      -0.351   0.418  -0.335  0.00  0.00    +0.039 C 
ATOM     28  C   UNL     1      -0.111  -0.240   1.025  0.00  0.00    +0.020 C 
ATOM     29  C   UNL     1      -1.811   0.218  -0.748  0.00  0.00    +0.020 C 
ENDBRANCH   1  27
TORSDOF 5
