REMARK  Name = ZINC32957641
REMARK  13 active torsions:
REMARK  status: ('A' for Active; 'I' for Inactive)
REMARK    1  A    between atoms: C_1  and  C_2
REMARK    2  A    between atoms: C_4  and  C_35
REMARK    3  A    between atoms: C_8  and  C_34
REMARK    4  A    between atoms: C_12  and  S_15
REMARK    5  A    between atoms: S_15  and  C_16
REMARK    6  A    between atoms: C_16  and  C_17
REMARK    7  A    between atoms: N_19  and  C_20
REMARK    8  A    between atoms: C_22  and  C_30
REMARK    9  A    between atoms: C_24  and  C_26
REMARK   10  A    between atoms: C_26  and  O_28
REMARK   11  A    between atoms: O_28  and  C_29
REMARK   12  A    between atoms: C_30  and  O_32
REMARK   13  A    between atoms: O_32  and  C_33
REMARK                            x       y       z     vdW  Elec       q    Type
REMARK                         _______ _______ _______ _____ _____    ______ ____
ROOT
ATOM      1  C   UNL     1      -2.404   0.984   0.261  0.00  0.00    +0.173 C 
ENDROOT
BRANCH   1   2
ATOM      2  C   UNL     1      -1.121   1.768   0.150  0.00  0.00    +0.227 C 
ATOM      3  O   UNL     1      -1.156   2.975   0.045  0.00  0.00    -0.275 OA
ATOM      4  N   UNL     1       0.064   1.126   0.168  0.00  0.00    -0.285 N 
ATOM      5  H   UNL     1       0.094   0.027   0.191  0.00  0.00    +0.155 HD
BRANCH   4   6
ATOM      6  C   UNL     1       1.257   1.859   0.157  0.00  0.00    +0.035 A 
ATOM      7  C   UNL     1       1.336   3.041  -0.565  0.00  0.00    +0.038 A 
ATOM      8  C   UNL     1       2.522   3.777  -0.575  0.00  0.00    +0.062 A 
ATOM      9  C   UNL     1       3.631   3.318   0.134  0.00  0.00    +0.030 A 
ATOM     10  C   UNL     1       3.549   2.127   0.854  0.00  0.00    +0.062 A 
ATOM     11  C   UNL     1       2.358   1.399   0.863  0.00  0.00    +0.038 A 
BRANCH  10  12
ATOM     12  C   UNL     1       4.722   1.637   1.608  0.00  0.00    +0.339 C 
ATOM     13  O   UNL     1       4.650   0.600   2.236  0.00  0.00    -0.245 OA
BRANCH  12  14
ATOM     14  O   UNL     1       5.871   2.340   1.599  0.00  0.00    -0.464 OA
ATOM     15  C   UNL     1       6.981   1.799   2.361  0.00  0.00    +0.280 C 
ENDBRANCH  12  14
ENDBRANCH  10  12
BRANCH   8  16
ATOM     16  C   UNL     1       2.604   5.039  -1.340  0.00  0.00    +0.339 C 
ATOM     17  O   UNL     1       1.637   5.438  -1.957  0.00  0.00    -0.245 OA
BRANCH  16  18
ATOM     18  O   UNL     1       3.751   5.746  -1.352  0.00  0.00    -0.464 OA
ATOM     19  C   UNL     1       3.758   6.975  -2.124  0.00  0.00    +0.280 C 
ENDBRANCH  16  18
ENDBRANCH   8  16
ENDBRANCH   4   6
ENDBRANCH   1   2
BRANCH   1  20
ATOM     20  S   UNL     1      -3.812   2.120   0.207  0.00  0.00    -0.076 S 
BRANCH  20  32
ATOM     21  C   UNL     1      -9.606   5.908  -0.138  0.00  0.00    +0.044 C 
ATOM     22  C   UNL     1      -8.852   4.604  -0.152  0.00  0.00    -0.050 A 
ATOM     23  C   UNL     1      -7.691   4.479  -0.896  0.00  0.00    +0.008 A 
ATOM     24  C   UNL     1      -6.926   3.329  -0.821  0.00  0.00    -0.026 A 
ATOM     25  C   UNL     1      -7.284   2.310   0.048  0.00  0.00    +0.061 A 
ATOM     26  C   UNL     1      -8.596   2.337   0.575  0.00  0.00    +0.002 A 
ATOM     27  C   UNL     1      -9.319   3.531   0.577  0.00  0.00    +0.013 A 
ATOM     28  C   UNL     1      -9.180   1.095   1.086  0.00  0.00    -0.038 A 
ATOM     29  C   UNL     1      -8.421  -0.025   1.100  0.00  0.00    +0.052 A 
ATOM     30  C   UNL     1      -7.065   0.030   0.703  0.00  0.00    +0.162 A 
ATOM     31  N   UNL     1      -6.475   1.229   0.344  0.00  0.00    -0.270 N 
ATOM     32  C   UNL     1      -5.139   0.970   0.352  0.00  0.00    +0.197 A 
ATOM     33  N   UNL     1      -4.989  -0.337   0.462  0.00  0.00    -0.122 NA
ATOM     34  N   UNL     1      -6.125  -0.894   0.666  0.00  0.00    -0.129 NA
ATOM     35  C   UNL     1     -10.596   1.047   1.599  0.00  0.00    +0.044 C 
ATOM     36  C   UNL     1      -5.759   3.195  -1.765  0.00  0.00    +0.046 C 
ENDBRANCH  20  32
ENDBRANCH   1  20
TORSDOF 8
