REMARK  Name = ZINC35556232
REMARK  7 active torsions:
REMARK  status: ('A' for Active; 'I' for Inactive)
REMARK    1  A    between atoms: C_1  and  C_2
REMARK    2  A    between atoms: C_2  and  C_3
REMARK    3  A    between atoms: C_12  and  C_13
REMARK    4  A    between atoms: C_13  and  C_15
REMARK    5  A    between atoms: C_13  and  C_28
REMARK    6  A    between atoms: C_15  and  C_16
REMARK    7  A    between atoms: C_32  and  N_34
REMARK                            x       y       z     vdW  Elec       q    Type
REMARK                         _______ _______ _______ _____ _____    ______ ____
ROOT
ATOM      1  C   UNL     1      -5.233  -1.635  -3.040  0.00  0.00    +0.060 C 
ENDROOT
BRANCH   1  11
ATOM      2  C   UNL     1      -1.412  -0.526   0.013  0.00  0.00    -0.024 A 
ATOM      3  C   UNL     1      -2.015  -0.863   1.205  0.00  0.00    +0.005 A 
ATOM      4  C   UNL     1      -3.316  -1.345   1.228  0.00  0.00    +0.001 A 
ATOM      5  C   UNL     1      -4.023  -1.492   0.067  0.00  0.00    +0.010 A 
ATOM      6  C   UNL     1      -3.432  -1.155  -1.151  0.00  0.00    +0.004 A 
ATOM      7  C   UNL     1      -2.114  -0.662  -1.180  0.00  0.00    +0.050 A 
ATOM      8  N   UNL     1      -1.802  -0.414  -2.498  0.00  0.00    -0.360 N 
ATOM      9  H   UNL     1      -0.952  -0.069  -2.814  0.00  0.00    +0.165 HD
ATOM     10  C   UNL     1      -2.869  -0.725  -3.295  0.00  0.00    +0.088 A 
ATOM     11  C   UNL     1      -3.883  -1.186  -2.545  0.00  0.00    -0.015 A 
BRANCH   2  13
ATOM     12  C   UNL     1      -0.019   1.526   0.010  0.00  0.00    +0.009 C 
ATOM     13  C   UNL     1       0.002  -0.004   0.002  0.00  0.00    +0.034 C 
ENDBRANCH   2  13
ENDBRANCH   1  11
BRANCH   1  14
ATOM     14  C   UNL     1      -5.061  -2.796  -3.985  0.00  0.00    -0.037 A 
ATOM     15  C   UNL     1      -4.311  -2.645  -5.137  0.00  0.00    +0.004 A 
ATOM     16  C   UNL     1      -4.153  -3.710  -6.003  0.00  0.00    +0.003 A 
ATOM     17  C   UNL     1      -4.745  -4.926  -5.719  0.00  0.00    +0.033 A 
ATOM     18  C   UNL     1      -5.494  -5.078  -4.567  0.00  0.00    +0.126 A 
ATOM     19  C   UNL     1      -5.648  -4.014  -3.698  0.00  0.00    +0.037 A 
BRANCH  18  20
ATOM     20  N   UNL     1      -6.128  -6.380  -4.262  0.00  0.00    +0.056 N 
ATOM     21  O   UNL     1      -5.990  -7.312  -5.021  0.00  0.00    -0.126 OA
ATOM     22  O   UNL     1      -6.783  -6.513  -3.255  0.00  0.00    -0.126 OA
ENDBRANCH  18  20
ENDBRANCH   1  14
BRANCH   1  23
ATOM     23  C   UNL     1      -5.918  -0.479  -3.772  0.00  0.00    +0.109 C 
BRANCH  23  24
ATOM     24  C   UNL     1      -7.316  -0.888  -4.160  0.00  0.00    +0.217 C 
ATOM     25  O   UNL     1      -7.724  -1.995  -3.879  0.00  0.00    -0.276 OA
ATOM     26  N   UNL     1      -8.112  -0.023  -4.820  0.00  0.00    -0.297 N 
ATOM     27  C   UNL     1      -9.484  -0.390  -5.208  0.00  0.00    +0.113 C 
ATOM     28  C   UNL     1     -10.446   0.524  -4.450  0.00  0.00    +0.054 C 
ATOM     29  C   UNL     1     -10.009   1.962  -4.548  0.00  0.00    -0.041 A 
ATOM     30  C   UNL     1     -10.960   2.944  -4.299  0.00  0.00    +0.004 A 
ATOM     31  C   UNL     1     -10.624   4.280  -4.362  0.00  0.00    +0.000 A 
ATOM     32  C   UNL     1      -9.328   4.648  -4.675  0.00  0.00    +0.000 A 
ATOM     33  C   UNL     1      -8.382   3.676  -4.926  0.00  0.00    +0.005 A 
ATOM     34  C   UNL     1      -8.722   2.331  -4.868  0.00  0.00    -0.027 A 
ATOM     35  C   UNL     1      -7.649   1.323  -5.174  0.00  0.00    +0.143 C 
ENDBRANCH  23  24
ENDBRANCH   1  23
TORSDOF 6
