REMARK  Name = ZINC06322020
REMARK  13 active torsions:
REMARK  status: ('A' for Active; 'I' for Inactive)
REMARK    1  A    between atoms: C_1  and  C_2
REMARK    2  A    between atoms: C_5  and  C_39
REMARK    3  A    between atoms: C_9  and  C_14
REMARK    4  A    between atoms: C_14  and  C_16
REMARK    5  A    between atoms: C_14  and  N_69
REMARK    6  A    between atoms: N_20  and  C_21
REMARK    7  A    between atoms: C_21  and  C_22
REMARK    8  A    between atoms: C_21  and  C_23
REMARK    9  A    between atoms: C_21  and  C_24
REMARK   10  A    between atoms: C_25  and  C_26
REMARK   11  A    between atoms: C_25  and  N_69
REMARK   12  A    between atoms: C_33  and  C_34
REMARK   13  A    between atoms: C_33  and  N_69
REMARK                            x       y       z     vdW  Elec       q    Type
REMARK                         _______ _______ _______ _____ _____    ______ ____
ROOT
ATOM      1  C   UNL     1       4.001   1.503   0.390  0.00  0.00    +0.040 C 
ENDROOT
BRANCH   1  10
ATOM      2  C   UNL     1       7.166  -0.871   3.775  0.00  0.00    +0.044 C 
ATOM      3  C   UNL     1       7.205   0.603   4.084  0.00  0.00    -0.041 A 
ATOM      4  C   UNL     1       7.984   1.070   5.105  0.00  0.00    +0.004 A 
ATOM      5  C   UNL     1       8.026   2.426   5.398  0.00  0.00    +0.005 A 
ATOM      6  C   UNL     1       7.283   3.328   4.667  0.00  0.00    -0.026 A 
ATOM      7  C   UNL     1       6.482   2.876   3.623  0.00  0.00    +0.052 A 
ATOM      8  C   UNL     1       6.443   1.500   3.328  0.00  0.00    +0.002 A 
ATOM      9  C   UNL     1       5.594   1.034   2.230  0.00  0.00    +0.018 A 
ATOM     10  C   UNL     1       4.881   1.949   1.529  0.00  0.00    +0.011 A 
ATOM     11  C   UNL     1       4.956   3.318   1.865  0.00  0.00    +0.251 A 
ATOM     12  O   UNL     1       4.304   4.124   1.224  0.00  0.00    -0.268 OA
ATOM     13  N   UNL     1       5.729   3.755   2.874  0.00  0.00    -0.322 N 
ATOM     14  H   UNL     1       5.758   4.703   3.079  0.00  0.00    +0.169 HD
ATOM     15  C   UNL     1       7.337   4.797   4.997  0.00  0.00    +0.046 C 
ENDBRANCH   1  10
BRANCH   1  16
ATOM     16  C   UNL     1       2.559   1.777   0.732  0.00  0.00    +0.143 A 
ATOM     17  N   UNL     1       1.961   2.944   0.728  0.00  0.00    -0.115 NA
ATOM     18  N   UNL     1       0.734   2.764   1.077  0.00  0.00    -0.023 NA
ATOM     19  N   UNL     1       0.534   1.513   1.304  0.00  0.00    -0.043 NA
ATOM     20  N   UNL     1       1.635   0.871   1.103  0.00  0.00    -0.225 N 
BRANCH  20  21
ATOM     21  C   UNL     1       1.841  -0.572   1.249  0.00  0.00    +0.059 C 
ATOM     22  C   UNL     1       0.565  -1.216   1.795  0.00  0.00    +0.036 C 
ATOM     23  C   UNL     1       2.177  -1.180  -0.114  0.00  0.00    +0.036 C 
ATOM     24  C   UNL     1       2.996  -0.826   2.220  0.00  0.00    +0.036 C 
ENDBRANCH  20  21
ENDBRANCH   1  16
BRANCH   1  25
ATOM     25  N   UNL     1       4.357   2.269  -0.823  0.00  0.00    +0.397 N 
ATOM     26  H   UNL     1       4.119   3.257  -0.676  0.00  0.00    -0.079 HD
BRANCH  25  27
ATOM     27  C   UNL     1       3.596   1.760  -1.984  0.00  0.00    -0.041 C 
BRANCH  27  28
ATOM     28  C   UNL     1       2.239   2.415  -1.994  0.00  0.00    -0.064 A 
ATOM     29  C   UNL     1       1.147   1.753  -1.462  0.00  0.00    +0.003 A 
ATOM     30  C   UNL     1      -0.096   2.356  -1.466  0.00  0.00    +0.020 A 
ATOM     31  C   UNL     1      -0.251   3.618  -2.012  0.00  0.00    +0.041 A 
ATOM     32  C   UNL     1       0.840   4.277  -2.548  0.00  0.00    +0.020 A 
ATOM     33  C   UNL     1       2.084   3.676  -2.539  0.00  0.00    +0.003 A 
ATOM     34 CL   UNL     1      -1.815   4.373  -2.023  0.00  0.00    -0.084 Cl
ENDBRANCH  27  28
ENDBRANCH  25  27
BRANCH  25  35
ATOM     35  C   UNL     1       5.808   2.158  -1.083  0.00  0.00    -0.001 C 
BRANCH  35  36
ATOM     36  C   UNL     1       6.203   3.215  -2.082  0.00  0.00    +0.089 A 
ATOM     37  C   UNL     1       6.595   4.468  -1.789  0.00  0.00    +0.042 A 
ATOM     38  C   UNL     1       6.867   5.110  -3.018  0.00  0.00    +0.041 A 
ATOM     39  C   UNL     1       6.626   4.211  -3.989  0.00  0.00    +0.195 A 
ATOM     40  O   UNL     1       6.229   3.063  -3.416  0.00  0.00    -0.470 OA
ENDBRANCH  35  36
ENDBRANCH  25  35
ENDBRANCH   1  25
TORSDOF 8
