REMARK  Name = ZINC24215851
REMARK  11 active torsions:
REMARK  status: ('A' for Active; 'I' for Inactive)
REMARK    1  A    between atoms: C_1  and  C_2
REMARK    2  A    between atoms: C_2  and  C_3
REMARK    3  A    between atoms: C_3  and  C_4
REMARK    4  A    between atoms: C_3  and  C_5
REMARK    5  A    between atoms: C_3  and  N_6
REMARK    6  A    between atoms: C_7  and  C_9
REMARK    7  A    between atoms: C_9  and  N_10
REMARK    8  A    between atoms: C_16  and  C_18
REMARK    9  A    between atoms: C_19  and  C_30
REMARK   10  A    between atoms: N_21  and  C_24
REMARK   11  A    between atoms: C_22  and  C_23
REMARK                            x       y       z     vdW  Elec       q    Type
REMARK                         _______ _______ _______ _____ _____    ______ ____
ROOT
ATOM      1  N   UNL     1       1.067  -0.462  -0.930  0.00  0.00    +0.397 N 
ATOM      2  C   UNL     1       1.246  -1.917  -0.802  0.00  0.00    -0.058 C 
ATOM      3  C   UNL     1       1.822  -2.222   0.582  0.00  0.00    +0.085 C 
ATOM      4  N   UNL     1       1.033  -1.551   1.611  0.00  0.00    -0.318 N 
ATOM      5  C   UNL     1       0.209  -0.532   1.347  0.00  0.00    +0.204 C 
ATOM      6  O   UNL     1      -0.386  -0.012   2.267  0.00  0.00    -0.277 OA
ATOM      7  C   UNL     1      -0.010  -0.004  -0.043  0.00  0.00    +0.054 C 
ATOM      8  H   UNL     1       1.102  -1.880   2.659  0.00  0.00    +0.149 HD
ATOM      9  H   UNL     1       2.001   0.034  -0.627  0.00  0.00    -0.079 HD
ENDROOT
BRANCH   7  10
ATOM     10  C   UNL     1      -0.024   1.503  -0.009  0.00  0.00    -0.009 A 
ATOM     11  C   UNL     1       1.094   2.333   0.133  0.00  0.00    +0.063 A 
ATOM     12  N   UNL     1       0.685   3.576   0.117  0.00  0.00    -0.171 NA
ATOM     13  N   UNL     1      -0.707   3.578  -0.037  0.00  0.00    -0.237 N 
ATOM     14  C   UNL     1      -1.118   2.292  -0.116  0.00  0.00    +0.044 A 
ATOM     15  C   UNL     1      -2.539   1.822  -0.290  0.00  0.00    +0.066 C 
ATOM     16  C   UNL     1       2.522   1.875   0.279  0.00  0.00    +0.068 C 
BRANCH  13  17
ATOM     17  C   UNL     1      -1.529   4.712  -0.102  0.00  0.00    +0.066 A 
ATOM     18  C   UNL     1      -1.128   5.821  -0.835  0.00  0.00    +0.028 A 
ATOM     19  C   UNL     1      -1.942   6.935  -0.900  0.00  0.00    +0.002 A 
ATOM     20  C   UNL     1      -3.150   6.950  -0.228  0.00  0.00    +0.000 A 
ATOM     21  C   UNL     1      -3.550   5.849   0.507  0.00  0.00    +0.002 A 
ATOM     22  C   UNL     1      -2.743   4.731   0.572  0.00  0.00    +0.028 A 
ENDBRANCH  13  17
ENDBRANCH   7  10
BRANCH   1  23
ATOM     23  C   UNL     1       0.798  -0.085  -2.324  0.00  0.00    +0.020 C 
BRANCH  23  25
ATOM     24  N   UNL     1       2.008  -0.076  -4.481  0.00  0.00    -0.312 N 
ATOM     25  C   UNL     1       2.022  -0.348  -3.161  0.00  0.00    +0.197 C 
ATOM     26  O   UNL     1       3.022  -0.805  -2.648  0.00  0.00    -0.278 OA
ATOM     27  H   UNL     1       1.101   0.338  -4.947  0.00  0.00    +0.149 HD
BRANCH  24  28
ATOM     28  C   UNL     1       3.198  -0.332  -5.295  0.00  0.00    +0.029 C 
ATOM     29  C   UNL     1       4.369   0.495  -4.761  0.00  0.00    +0.031 C 
ATOM     30  C   UNL     1       3.552  -1.819  -5.228  0.00  0.00    +0.031 C 
BRANCH  28  32
ATOM     31  C   UNL     1       4.161  -0.207  -7.598  0.00  0.00    +0.006 C 
ATOM     32  C   UNL     1       2.917   0.060  -6.747  0.00  0.00    +0.022 C 
ENDBRANCH  28  32
ENDBRANCH  24  28
ENDBRANCH  23  25
ENDBRANCH   1  23
TORSDOF 6
