REMARK  Name = ZINC39466512
REMARK  6 active torsions:
REMARK  status: ('A' for Active; 'I' for Inactive)
REMARK    1  A    between atoms: C_1  and  O_2
REMARK    2  A    between atoms: O_2  and  C_3
REMARK    3  A    between atoms: C_15  and  C_16
REMARK    4  A    between atoms: C_21  and  O_22
REMARK    5  A    between atoms: P_25  and  C_28
REMARK    6  A    between atoms: C_28  and  C_29
REMARK                            x       y       z     vdW  Elec       q    Type
REMARK                         _______ _______ _______ _____ _____    ______ ____
ROOT
ATOM      1  C   UNL     1       0.606  -0.607  -1.056  0.00  0.00    +0.124 C 
ATOM      2  C   UNL     1       1.153   0.126  -2.027  0.00  0.00    +0.021 C 
ATOM      3  C   UNL     1       1.808  -0.558  -3.196  0.00  0.00    +0.008 C 
ATOM      4  C   UNL     1       1.852   0.368  -4.403  0.00  0.00    -0.046 C 
ATOM      5  N   UNL     1       0.495   0.734  -4.842  0.00  0.00    +0.397 N 
ATOM      6  C   UNL     1      -0.255  -0.463  -5.229  0.00  0.00    -0.020 C 
ATOM      7  C   UNL     1      -0.362  -1.427  -4.042  0.00  0.00    -0.003 C 
ATOM      8  C   UNL     1       1.017  -1.816  -3.566  0.00  0.00    +0.016 C 
ATOM      9  C   UNL     1       0.853  -2.671  -2.333  0.00  0.00    -0.011 C 
ATOM     10  C   UNL     1       0.668  -2.085  -1.139  0.00  0.00    +0.023 C 
ATOM     11  C   UNL     1      -1.688  -0.117  -5.653  0.00  0.00    +0.156 C 
ATOM     12  O   UNL     1      -1.654   0.750  -6.801  0.00  0.00    -0.319 OA
ATOM     13  P   UNL     1      -0.703   2.068  -6.722  0.00  0.00    +0.262 P 
ATOM     14  O   UNL     1      -1.381   3.146  -5.968  0.00  0.00    -0.274 OA
ATOM     15  N   UNL     1       0.659   1.573  -5.924  0.00  0.00    -0.291 NA
ATOM     16  H   UNL     1       1.542   1.864  -6.202  0.00  0.00    +0.111 HD
ATOM     17  H   UNL     1       0.018   1.225  -4.100  0.00  0.00    -0.055 HD
ENDROOT
BRANCH  10  18
ATOM     18  C   UNL     1       0.522  -2.908   0.086  0.00  0.00    +0.027 A 
ATOM     19  C   UNL     1       1.638  -3.512   0.661  0.00  0.00    +0.012 A 
ATOM     20  C   UNL     1       1.497  -4.277   1.801  0.00  0.00    +0.001 A 
ATOM     21  C   UNL     1       0.250  -4.448   2.376  0.00  0.00    +0.004 A 
ATOM     22  C   UNL     1      -0.864  -3.854   1.813  0.00  0.00    +0.046 A 
ATOM     23  C   UNL     1      -0.736  -3.078   0.672  0.00  0.00    +0.125 A 
BRANCH  23  24
ATOM     24  O   UNL     1      -1.830  -2.489   0.122  0.00  0.00    -0.506 OA
ATOM     25  H   UNL     1      -2.282  -3.036  -0.535  0.00  0.00    +0.292 HD
ENDBRANCH  23  24
ENDBRANCH  10  18
BRANCH   1  27
ATOM     26  C   UNL     1      -0.017   1.425   0.010  0.00  0.00    +0.277 C 
ATOM     27  O   UNL     1       0.002  -0.004   0.002  0.00  0.00    -0.495 OA
ENDBRANCH   1  27
BRANCH  13  28
ATOM     28  C   UNL     1      -0.280   2.643  -8.400  0.00  0.00    +0.147 C 
BRANCH  28  29
ATOM     29  C   UNL     1      -1.542   2.990  -9.145  0.00  0.00    -0.037 A 
ATOM     30  C   UNL     1      -2.196   2.024  -9.886  0.00  0.00    +0.004 A 
ATOM     31  C   UNL     1      -3.354   2.342 -10.570  0.00  0.00    +0.000 A 
ATOM     32  C   UNL     1      -3.859   3.628 -10.513  0.00  0.00    +0.000 A 
ATOM     33  C   UNL     1      -3.205   4.595  -9.772  0.00  0.00    +0.000 A 
ATOM     34  C   UNL     1      -2.050   4.275  -9.084  0.00  0.00    +0.004 A 
ENDBRANCH  28  29
ENDBRANCH  13  28
TORSDOF 5
