REMARK  Name = ZINC23438086
REMARK  10 active torsions:
REMARK  status: ('A' for Active; 'I' for Inactive)
REMARK    1  A    between atoms: C_1  and  C_2
REMARK    2  A    between atoms: C_4  and  C_8
REMARK    3  A    between atoms: C_5  and  C_7
REMARK    4  A    between atoms: N_13  and  C_16
REMARK    5  A    between atoms: C_16  and  C_17
REMARK    6  A    between atoms: C_17  and  C_19
REMARK    7  A    between atoms: C_17  and  O_26
REMARK    8  A    between atoms: O_26  and  C_27
REMARK    9  A    between atoms: C_27  and  C_28
REMARK   10  A    between atoms: C_31  and  C_34
REMARK                            x       y       z     vdW  Elec       q    Type
REMARK                         _______ _______ _______ _____ _____    ______ ____
ROOT
ATOM      1  C   UNL     1       0.028   5.889  -1.007  0.00  0.00    +0.132 C 
ENDROOT
BRANCH   1   2
ATOM      2  C   UNL     1      -0.143   6.855  -2.151  0.00  0.00    -0.021 A 
ATOM      3  C   UNL     1       0.954   7.249  -2.894  0.00  0.00    +0.007 A 
ATOM      4  C   UNL     1       0.796   8.130  -3.947  0.00  0.00    +0.020 A 
ATOM      5  C   UNL     1      -0.459   8.627  -4.250  0.00  0.00    +0.041 A 
ATOM      6  C   UNL     1      -1.556   8.237  -3.504  0.00  0.00    +0.020 A 
ATOM      7  C   UNL     1      -1.398   7.351  -2.455  0.00  0.00    +0.007 A 
ATOM      8 CL   UNL     1      -0.656   9.739  -5.569  0.00  0.00    -0.084 Cl
ENDBRANCH   1   2
BRANCH   1   9
ATOM      9  C   UNL     1       0.116   4.463  -1.553  0.00  0.00    -0.042 C 
BRANCH   9  15
ATOM     10  C   UNL     1      -0.934   0.459   1.961  0.00  0.00    +0.250 C 
ATOM     11  O   UNL     1      -0.721  -0.693   1.636  0.00  0.00    -0.270 OA
ATOM     12  N   UNL     1      -0.264   1.463   1.362  0.00  0.00    -0.301 N 
ATOM     13  C   UNL     1       0.651   1.197   0.242  0.00  0.00    +0.089 C 
ATOM     14  C   UNL     1       0.293   2.133  -0.918  0.00  0.00    -0.059 C 
ATOM     15  N   UNL     1       0.285   3.521  -0.438  0.00  0.00    +0.384 N 
ATOM     16  C   UNL     1      -0.748   3.726   0.585  0.00  0.00    -0.059 C 
ATOM     17  C   UNL     1      -0.433   2.856   1.806  0.00  0.00    +0.089 C 
ATOM     18  H   UNL     1       1.262   3.719   0.028  0.00  0.00    -0.082 HD
BRANCH  10  22
ATOM     19  C   UNL     1      -4.473   2.796   4.798  0.00  0.00    +0.086 C 
ATOM     20  C   UNL     1      -3.483   1.802   4.247  0.00  0.00    +0.103 A 
ATOM     21  C   UNL     1      -2.721   1.985   3.158  0.00  0.00    +0.057 A 
ATOM     22  C   UNL     1      -1.926   0.757   3.010  0.00  0.00    +0.078 A 
ATOM     23  C   UNL     1      -2.293  -0.045   4.050  0.00  0.00    +0.114 A 
ATOM     24  O   UNL     1      -3.218   0.595   4.771  0.00  0.00    -0.464 OA
ATOM     25  C   UNL     1      -1.748  -1.421   4.337  0.00  0.00    +0.087 C 
ENDBRANCH  10  22
ENDBRANCH   9  15
ENDBRANCH   1   9
BRANCH   1  26
ATOM     26  O   UNL     1       1.228   6.202  -0.296  0.00  0.00    -0.369 OA
BRANCH  26  27
ATOM     27  C   UNL     1       1.044   7.133   0.773  0.00  0.00    +0.195 C 
BRANCH  27  28
ATOM     28  C   UNL     1       2.366   7.388   1.449  0.00  0.00    -0.022 A 
ATOM     29  C   UNL     1       2.759   6.602   2.517  0.00  0.00    +0.006 A 
ATOM     30  C   UNL     1       3.974   6.834   3.135  0.00  0.00    +0.013 A 
ATOM     31  C   UNL     1       4.790   7.857   2.692  0.00  0.00    +0.055 A 
ATOM     32  C   UNL     1       4.395   8.646   1.627  0.00  0.00    +0.013 A 
ATOM     33  C   UNL     1       3.183   8.411   1.007  0.00  0.00    +0.006 A 
BRANCH  31  34
ATOM     34  C   UNL     1       6.113   8.112   3.368  0.00  0.00    +0.417 C 
ATOM     35  F   UNL     1       5.933   9.024   4.414  0.00  0.00    -0.166 F 
ATOM     36  F   UNL     1       6.615   6.910   3.879  0.00  0.00    -0.166 F 
ATOM     37  F   UNL     1       7.017   8.639   2.441  0.00  0.00    -0.166 F 
ENDBRANCH  31  34
ENDBRANCH  27  28
ENDBRANCH  26  27
ENDBRANCH   1  26
TORSDOF 8
