REMARK  Name = ZINC60342207
REMARK  6 active torsions:
REMARK  status: ('A' for Active; 'I' for Inactive)
REMARK    1  A    between atoms: C_1  and  C_2
REMARK    2  A    between atoms: C_2  and  C_3
REMARK    3  A    between atoms: C_2  and  C_4
REMARK    4  A    between atoms: C_2  and  C_5
REMARK    5  A    between atoms: C_12  and  C_14
REMARK    6  A    between atoms: C_26  and  C_28
REMARK                            x       y       z     vdW  Elec       q    Type
REMARK                         _______ _______ _______ _____ _____    ______ ____
ROOT
ATOM      1  C   UNL     1       5.661  -0.820  -4.294  0.00  0.00    +0.254 C 
ATOM      2  O   UNL     1       6.216   0.109  -3.736  0.00  0.00    -0.269 OA
ATOM      3  N   UNL     1       6.177  -1.331  -5.429  0.00  0.00    -0.282 N 
ATOM      4  C   UNL     1       7.398  -0.877  -6.101  0.00  0.00    +0.080 C 
ATOM      5  C   UNL     1       7.664   0.599  -5.910  0.00  0.00    +0.023 C 
ATOM      6  C   UNL     1       6.597   1.448  -6.601  0.00  0.00    +0.002 C 
ATOM      7  C   UNL     1       6.602   1.110  -8.095  0.00  0.00    +0.000 C 
ATOM      8  C   UNL     1       6.211  -0.356  -8.266  0.00  0.00    +0.005 C 
ATOM      9  C   UNL     1       7.221  -1.256  -7.583  0.00  0.00    +0.012 C 
ATOM     10  C   UNL     1       6.530  -2.647  -7.441  0.00  0.00    +0.037 C 
ATOM     11  C   UNL     1       5.618  -2.449  -6.209  0.00  0.00    +0.163 C 
ENDROOT
BRANCH   1  18
ATOM     12  C   UNL     1       0.350  -2.038  -1.267  0.00  0.00    -0.001 C 
ATOM     13  C   UNL     1       0.490  -3.520  -1.624  0.00  0.00    +0.009 C 
ATOM     14  C   UNL     1       1.063  -3.634  -3.044  0.00  0.00    +0.043 C 
ATOM     15  C   UNL     1       2.252  -2.725  -3.151  0.00  0.00    -0.006 A 
ATOM     16  C   UNL     1       2.592  -1.723  -2.290  0.00  0.00    -0.036 A 
ATOM     17  C   UNL     1       3.743  -1.009  -2.590  0.00  0.00    +0.024 A 
ATOM     18  C   UNL     1       4.430  -1.382  -3.730  0.00  0.00    +0.075 A 
ATOM     19  S   UNL     1       3.427  -2.726  -4.337  0.00  0.00    -0.088 S 
ATOM     20  C   UNL     1       1.734  -1.421  -1.064  0.00  0.00    +0.040 C 
BRANCH  12  22
ATOM     21  C   UNL     1      -0.606  -0.419   0.379  0.00  0.00    +0.011 C 
ATOM     22  C   UNL     1      -0.462  -1.900   0.022  0.00  0.00    -0.035 C 
ATOM     23  C   UNL     1       0.258  -2.630   1.158  0.00  0.00    +0.011 C 
ATOM     24  C   UNL     1      -1.849  -2.514  -0.180  0.00  0.00    +0.011 C 
ENDBRANCH  12  22
ENDBRANCH   1  18
BRANCH  11  25
ATOM     25  C   UNL     1       4.219  -2.112  -6.658  0.00  0.00    +0.231 C 
ATOM     26  O   UNL     1       3.790  -0.987  -6.511  0.00  0.00    -0.274 OA
ATOM     27  N   UNL     1       3.446  -3.060  -7.224  0.00  0.00    -0.328 N 
ATOM     28  H   UNL     1       3.790  -3.959  -7.342  0.00  0.00    +0.145 HD
ATOM     29  H   UNL     1       2.546  -2.843  -7.513  0.00  0.00    +0.145 HD
ENDBRANCH  11  25
TORSDOF 3
