REMARK  Name = ZINC08867612
REMARK  9 active torsions:
REMARK  status: ('A' for Active; 'I' for Inactive)
REMARK    1  A    between atoms: C_1  and  C_2
REMARK    2  A    between atoms: C_6  and  C_34
REMARK    3  A    between atoms: C_7  and  N_8
REMARK    4  A    between atoms: C_9  and  C_13
REMARK    5  A    between atoms: C_13  and  N_63
REMARK    6  A    between atoms: C_19  and  C_20
REMARK    7  A    between atoms: C_19  and  N_63
REMARK    8  A    between atoms: C_20  and  C_21
REMARK    9  A    between atoms: C_22  and  C_33
REMARK                            x       y       z     vdW  Elec       q    Type
REMARK                         _______ _______ _______ _____ _____    ______ ____
ROOT
ATOM      1  C   UNL     1       4.770  -4.282  -2.124  0.00  0.00    -0.005 C 
ATOM      2  C   UNL     1       3.314  -4.390  -1.665  0.00  0.00    -0.005 C 
ATOM      3  C   UNL     1       3.265  -5.004  -0.265  0.00  0.00    -0.001 C 
ATOM      4  C   UNL     1       3.894  -6.398  -0.297  0.00  0.00    -0.000 C 
ATOM      5  C   UNL     1       5.349  -6.291  -0.756  0.00  0.00    -0.001 C 
ATOM      6  C   UNL     1       5.399  -5.677  -2.157  0.00  0.00    -0.005 C 
ENDROOT
BRANCH   1   8
ATOM      7  N   UNL     1       5.372  -4.233  -4.603  0.00  0.00    -0.198 N 
ATOM      8  C   UNL     1       4.818  -3.677  -3.504  0.00  0.00    +0.146 A 
ATOM      9  N   UNL     1       4.336  -2.515  -3.858  0.00  0.00    -0.114 NA
ATOM     10  N   UNL     1       4.543  -2.300  -5.107  0.00  0.00    -0.023 NA
ATOM     11  N   UNL     1       5.166  -3.299  -5.633  0.00  0.00    -0.039 NA
BRANCH   7  18
ATOM     12  C   UNL     1       8.176  -4.341  -4.123  0.00  0.00    +0.046 C 
ATOM     13  C   UNL     1       7.380  -5.573  -4.470  0.00  0.00    -0.025 A 
ATOM     14  C   UNL     1       8.009  -6.800  -4.558  0.00  0.00    +0.005 A 
ATOM     15  C   UNL     1       7.280  -7.930  -4.883  0.00  0.00    +0.001 A 
ATOM     16  C   UNL     1       5.920  -7.836  -5.115  0.00  0.00    +0.005 A 
ATOM     17  C   UNL     1       5.286  -6.612  -5.023  0.00  0.00    -0.025 A 
ATOM     18  C   UNL     1       6.014  -5.477  -4.697  0.00  0.00    +0.075 A 
ATOM     19  C   UNL     1       3.804  -6.511  -5.277  0.00  0.00    +0.046 C 
ENDBRANCH   7  18
ENDBRANCH   1   8
BRANCH   1  20
ATOM     20  N   UNL     1       5.524  -3.433  -1.183  0.00  0.00    +0.388 N 
ATOM     21  H   UNL     1       6.519  -3.446  -1.439  0.00  0.00    -0.084 HD
ATOM     22  H   UNL     1       5.411  -3.800  -0.231  0.00  0.00    -0.084 HD
BRANCH  20  23
ATOM     23  C   UNL     1       5.026  -2.046  -1.233  0.00  0.00    -0.076 C 
BRANCH  23  24
ATOM     24  C   UNL     1       5.719  -1.225  -0.144  0.00  0.00    +0.018 C 
BRANCH  24  25
ATOM     25  C   UNL     1       5.136   0.165  -0.114  0.00  0.00    -0.021 A 
ATOM     26  C   UNL     1       4.136   0.594   0.671  0.00  0.00    +0.017 A 
ATOM     27  N   UNL     1       3.879   1.914   0.418  0.00  0.00    -0.357 N 
ATOM     28  H   UNL     1       3.199   2.445   0.862  0.00  0.00    +0.166 HD
ATOM     29  C   UNL     1       4.730   2.378  -0.560  0.00  0.00    +0.067 A 
ATOM     30  C   UNL     1       5.555   1.302  -0.937  0.00  0.00    +0.005 A 
ATOM     31  C   UNL     1       6.527   1.481  -1.922  0.00  0.00    +0.012 A 
ATOM     32  C   UNL     1       6.674   2.702  -2.518  0.00  0.00    +0.022 A 
ATOM     33  C   UNL     1       5.863   3.768  -2.152  0.00  0.00    +0.061 A 
ATOM     34  C   UNL     1       4.896   3.613  -1.180  0.00  0.00    +0.083 A 
ATOM     35 CL   UNL     1       3.884   4.953  -0.736  0.00  0.00    -0.080 Cl
ATOM     36 CL   UNL     1       6.067   5.309  -2.923  0.00  0.00    -0.082 Cl
ATOM     37  C   UNL     1       3.404  -0.252   1.680  0.00  0.00    +0.063 C 
ENDBRANCH  24  25
ENDBRANCH  23  24
ENDBRANCH  20  23
ENDBRANCH   1  20
TORSDOF 6
