REMARK  Name = ZINC13095978
REMARK  9 active torsions:
REMARK  status: ('A' for Active; 'I' for Inactive)
REMARK    1  A    between atoms: C_1  and  C_2
REMARK    2  A    between atoms: C_2  and  C_3
REMARK    3  A    between atoms: C_2  and  C_4
REMARK    4  A    between atoms: C_4  and  C_6
REMARK    5  A    between atoms: C_4  and  N_17
REMARK    6  A    between atoms: C_18  and  C_20
REMARK    7  A    between atoms: C_23  and  S_29
REMARK    8  A    between atoms: C_24  and  N_26
REMARK    9  A    between atoms: S_29  and  C_30
REMARK                            x       y       z     vdW  Elec       q    Type
REMARK                         _______ _______ _______ _____ _____    ______ ____
ROOT
ATOM      1  N   UNL     1       5.360  -1.058   0.738  0.00  0.00    -0.304 N 
ATOM      2  C   UNL     1       6.425  -1.538   1.412  0.00  0.00    +0.245 C 
ATOM      3  O   UNL     1       6.745  -2.704   1.292  0.00  0.00    -0.270 OA
ATOM      4  H   UNL     1       5.104  -0.128   0.834  0.00  0.00    +0.150 HD
ENDROOT
BRANCH   2   5
ATOM      5  C   UNL     1       7.200  -0.647   2.296  0.00  0.00    +0.039 A 
ATOM      6  C   UNL     1       6.836   0.697   2.430  0.00  0.00    +0.014 A 
ATOM      7  C   UNL     1       7.551   1.520   3.252  0.00  0.00    +0.018 A 
ATOM      8  C   UNL     1       8.652   1.029   3.950  0.00  0.00    +0.043 A 
ATOM      9  C   UNL     1       9.025  -0.306   3.818  0.00  0.00    +0.141 A 
ATOM     10  C   UNL     1       8.305  -1.142   2.995  0.00  0.00    +0.047 A 
BRANCH   9  11
ATOM     11  N   UNL     1      10.194  -0.826   4.561  0.00  0.00    +0.058 N 
ATOM     12  O   UNL     1      10.520  -1.994   4.445  0.00  0.00    -0.126 OA
ATOM     13  O   UNL     1      10.832  -0.085   5.289  0.00  0.00    -0.126 OA
ENDBRANCH   9  11
BRANCH   8  14
ATOM     14  S   UNL     1       9.573   2.099   5.004  0.00  0.00    -0.087 S 
BRANCH  14  15
ATOM     15  C   UNL     1       9.037   1.667   6.625  0.00  0.00    +0.013 A 
ATOM     16  C   UNL     1       7.995   0.764   6.796  0.00  0.00    +0.018 A 
ATOM     17  C   UNL     1       7.580   0.423   8.068  0.00  0.00    +0.039 A 
ATOM     18  C   UNL     1       8.194   0.988   9.173  0.00  0.00    +0.123 A 
ATOM     19  C   UNL     1       9.229   1.893   9.005  0.00  0.00    +0.039 A 
ATOM     20  C   UNL     1       9.652   2.233   7.735  0.00  0.00    +0.018 A 
ATOM     21  F   UNL     1       7.783   0.657  10.416  0.00  0.00    -0.205 F 
ENDBRANCH  14  15
ENDBRANCH   8  14
ENDBRANCH   2   5
BRANCH   1  22
ATOM     22  C   UNL     1       4.590  -1.943  -0.139  0.00  0.00    +0.106 C 
BRANCH  22  23
ATOM     23  C   UNL     1       3.186  -1.415  -0.278  0.00  0.00    -0.023 A 
ATOM     24  C   UNL     1       2.970  -0.055  -0.399  0.00  0.00    +0.009 A 
ATOM     25  C   UNL     1       1.683   0.438  -0.527  0.00  0.00    +0.050 A 
ATOM     26  C   UNL     1       0.611  -0.438  -0.533  0.00  0.00    +0.162 A 
ATOM     27  C   UNL     1       0.827  -1.803  -0.412  0.00  0.00    +0.162 A 
ATOM     28  C   UNL     1       2.116  -2.292  -0.284  0.00  0.00    +0.055 A 
ATOM     29  O   UNL     1      -0.237  -2.657  -0.419  0.00  0.00    -0.488 OA
ATOM     30  C   UNL     1      -0.937  -2.772  -1.659  0.00  0.00    +0.232 C 
ATOM     31  C   UNL     1      -1.969  -1.665  -1.800  0.00  0.00    +0.082 C 
ATOM     32  C   UNL     1      -1.332  -0.286  -1.880  0.00  0.00    +0.232 C 
ATOM     33  O   UNL     1      -0.664   0.035  -0.653  0.00  0.00    -0.488 OA
ENDBRANCH  22  23
BRANCH  22  35
ATOM     34  C   UNL     1       4.448  -2.923  -2.433  0.00  0.00    +0.009 C 
ATOM     35  C   UNL     1       5.253  -1.998  -1.517  0.00  0.00    +0.008 C 
ATOM     36  C   UNL     1       5.294  -0.593  -2.119  0.00  0.00    +0.009 C 
ENDBRANCH  22  35
ENDBRANCH   1  22
TORSDOF 7
