REMARK  Name = ZINC00717262
REMARK  14 active torsions:
REMARK  status: ('A' for Active; 'I' for Inactive)
REMARK    1  A    between atoms: C_1  and  C_2
REMARK    2  A    between atoms: C_2  and  C_3
REMARK    3  A    between atoms: C_2  and  C_4
REMARK    4  A    between atoms: C_2  and  C_5
REMARK    5  A    between atoms: C_8  and  O_11
REMARK    6  A    between atoms: O_11  and  C_12
REMARK    7  A    between atoms: C_12  and  C_13
REMARK    8  A    between atoms: C_16  and  S_24
REMARK    9  A    between atoms: N_17  and  C_18
REMARK   10  A    between atoms: S_24  and  C_25
REMARK   11  A    between atoms: C_25  and  C_26
REMARK   12  A    between atoms: N_28  and  C_29
REMARK   13  A    between atoms: C_29  and  C_30
REMARK   14  A    between atoms: C_30  and  C_32
REMARK                            x       y       z     vdW  Elec       q    Type
REMARK                         _______ _______ _______ _____ _____    ______ ____
ROOT
ATOM      1  C   UNL     1      -2.482  -9.327  -0.025  0.00  0.00    +0.176 A 
ATOM      2  N   UNL     1      -1.295  -8.790  -0.034  0.00  0.00    -0.130 NA
ATOM      3  N   UNL     1      -1.389  -7.508  -0.031  0.00  0.00    -0.122 NA
ATOM      4  C   UNL     1      -2.652  -7.153  -0.011  0.00  0.00    +0.197 A 
ATOM      5  N   UNL     1      -3.392  -8.304  -0.010  0.00  0.00    -0.271 N 
ENDROOT
BRANCH   5   6
ATOM      6  C   UNL     1      -4.790  -8.413   0.003  0.00  0.00    +0.050 A 
ATOM      7  C   UNL     1      -5.432  -8.984   1.093  0.00  0.00    +0.026 A 
ATOM      8  C   UNL     1      -6.810  -9.084   1.107  0.00  0.00    +0.002 A 
ATOM      9  C   UNL     1      -7.548  -8.628   0.030  0.00  0.00    +0.000 A 
ATOM     10  C   UNL     1      -6.911  -8.063  -1.059  0.00  0.00    +0.002 A 
ATOM     11  C   UNL     1      -5.534  -7.955  -1.075  0.00  0.00    +0.026 A 
ENDBRANCH   5   6
BRANCH   1  12
ATOM     12  C   UNL     1      -2.795 -10.801  -0.029  0.00  0.00    +0.305 C 
BRANCH  12  13
ATOM     13  O   UNL     1      -2.908 -11.260  -1.378  0.00  0.00    -0.484 OA
BRANCH  13  17
ATOM     14  C   UNL     1      -3.765 -15.258  -1.930  0.00  0.00    -0.042 A 
ATOM     15  C   UNL     1      -3.601 -14.429  -3.025  0.00  0.00    +0.008 A 
ATOM     16  C   UNL     1      -3.314 -13.090  -2.843  0.00  0.00    +0.046 A 
ATOM     17  C   UNL     1      -3.191 -12.577  -1.560  0.00  0.00    +0.121 A 
ATOM     18  C   UNL     1      -3.350 -13.412  -0.463  0.00  0.00    +0.046 A 
ATOM     19  C   UNL     1      -3.643 -14.749  -0.650  0.00  0.00    +0.008 A 
BRANCH  14  21
ATOM     20  C   UNL     1      -2.950 -17.376  -2.929  0.00  0.00    +0.015 C 
ATOM     21  C   UNL     1      -4.078 -16.718  -2.132  0.00  0.00    -0.013 C 
ATOM     22  C   UNL     1      -4.208 -17.404  -0.771  0.00  0.00    +0.015 C 
ATOM     23  C   UNL     1      -5.394 -16.856  -2.901  0.00  0.00    +0.015 C 
ENDBRANCH  14  21
ENDBRANCH  13  17
ENDBRANCH  12  13
ENDBRANCH   1  12
BRANCH   4  24
ATOM     24  S   UNL     1      -3.277  -5.505   0.004  0.00  0.00    -0.076 S 
BRANCH  24  25
ATOM     25  C   UNL     1      -1.722  -4.579  -0.006  0.00  0.00    +0.173 C 
BRANCH  25  26
ATOM     26  C   UNL     1      -2.018  -3.102   0.005  0.00  0.00    +0.224 C 
ATOM     27  O   UNL     1      -3.167  -2.713   0.018  0.00  0.00    -0.275 OA
ATOM     28  N   UNL     1      -1.005  -2.212  -0.000  0.00  0.00    -0.307 N 
ATOM     29  H   UNL     1      -0.087  -2.523  -0.011  0.00  0.00    +0.149 HD
BRANCH  28  30
ATOM     30  C   UNL     1      -1.293  -0.775   0.010  0.00  0.00    +0.184 C 
BRANCH  30  31
ATOM     31  C   UNL     1       0.002  -0.004   0.002  0.00  0.00    +0.180 C 
ATOM     32  O   UNL     1       1.060  -0.596  -0.011  0.00  0.00    -0.290 OA
BRANCH  31  33
ATOM     33  C   UNL     1      -0.018   1.467   0.010  0.00  0.00    +0.019 A 
ATOM     34  C   UNL     1      -1.236   2.154   0.020  0.00  0.00    +0.011 A 
ATOM     35  C   UNL     1      -1.247   3.533   0.033  0.00  0.00    +0.001 A 
ATOM     36  C   UNL     1      -0.055   4.237   0.026  0.00  0.00    +0.000 A 
ATOM     37  C   UNL     1       1.154   3.565   0.010  0.00  0.00    +0.001 A 
ATOM     38  C   UNL     1       1.181   2.187   0.003  0.00  0.00    +0.011 A 
ENDBRANCH  31  33
ENDBRANCH  30  31
ENDBRANCH  28  30
ENDBRANCH  25  26
ENDBRANCH  24  25
ENDBRANCH   4  24
TORSDOF 11
