REMARK  Name = ZINC22633650
REMARK  3 active torsions:
REMARK  status: ('A' for Active; 'I' for Inactive)
REMARK    1  A    between atoms: C_4  and  C_7
REMARK    2  A    between atoms: C_7  and  N_8
REMARK    3  A    between atoms: C_19  and  C_22
REMARK                            x       y       z     vdW  Elec       q    Type
REMARK                         _______ _______ _______ _____ _____    ______ ____
ROOT
ATOM      1  N   UNL     1       2.858   4.194  -1.389  0.00  0.00    +0.386 N 
ATOM      2  C   UNL     1       4.221   4.740  -1.445  0.00  0.00    -0.073 C 
ATOM      3  C   UNL     1       4.766   4.650  -2.873  0.00  0.00    +0.018 C 
ATOM      4  C   UNL     1       3.742   5.277  -3.814  0.00  0.00    -0.027 A 
ATOM      5  C   UNL     1       2.467   5.461  -3.399  0.00  0.00    -0.021 A 
ATOM      6  S   UNL     1       1.643   6.213  -4.776  0.00  0.00    -0.080 S 
ATOM      7  C   UNL     1       2.958   6.278  -5.871  0.00  0.00    +0.080 A 
ATOM      8  C   UNL     1       4.033   5.712  -5.168  0.00  0.00    +0.068 A 
ATOM      9  C   UNL     1       5.336   5.626  -5.866  0.00  0.00    +0.248 C 
ATOM     10  O   UNL     1       6.343   5.264  -5.286  0.00  0.00    -0.270 OA
ATOM     11  N   UNL     1       5.362   5.967  -7.171  0.00  0.00    -0.289 N 
ATOM     12  C   UNL     1       4.161   6.184  -7.971  0.00  0.00    +0.190 C 
ATOM     13  N   UNL     1       3.070   6.746  -7.155  0.00  0.00    -0.316 N 
ATOM     14  C   UNL     1       1.906   5.099  -2.060  0.00  0.00    -0.035 C 
ATOM     15  H   UNL     1       6.356   6.081  -7.629  0.00  0.00    +0.151 HD
ATOM     16  H   UNL     1       2.395   7.502  -7.583  0.00  0.00    +0.149 HD
ATOM     17  H   UNL     1       2.855   3.232  -1.922  0.00  0.00    -0.081 HD
ENDROOT
BRANCH  12  18
ATOM     18  C   UNL     1       3.714   4.869  -8.556  0.00  0.00    -0.006 A 
ATOM     19  C   UNL     1       2.372   4.645  -8.803  0.00  0.00    +0.011 A 
ATOM     20  C   UNL     1       1.957   3.440  -9.339  0.00  0.00    +0.050 A 
ATOM     21  C   UNL     1       2.885   2.454  -9.632  0.00  0.00    +0.166 A 
ATOM     22  C   UNL     1       4.237   2.680  -9.383  0.00  0.00    +0.167 A 
ATOM     23  C   UNL     1       4.646   3.892  -8.850  0.00  0.00    +0.056 A 
ATOM     24  O   UNL     1       4.940   1.570  -9.753  0.00  0.00    -0.453 OA
ATOM     25  C   UNL     1       3.967   0.513  -9.847  0.00  0.00    +0.466 C 
ATOM     26  O   UNL     1       2.742   1.203 -10.157  0.00  0.00    -0.453 OA
ENDBRANCH  12  18
BRANCH   1  27
ATOM     27  C   UNL     1       2.451   3.937  -0.001  0.00  0.00    -0.043 C 
BRANCH  27  31
ATOM     28  C   UNL     1      -1.219   1.751   0.017  0.00  0.00    +0.000 A 
ATOM     29  C   UNL     1      -0.013   1.076   0.008  0.00  0.00    +0.000 A 
ATOM     30  C   UNL     1       1.175   1.783   0.000  0.00  0.00    +0.002 A 
ATOM     31  C   UNL     1       1.156   3.165   0.008  0.00  0.00    -0.064 A 
ATOM     32  C   UNL     1      -0.050   3.840   0.022  0.00  0.00    +0.002 A 
ATOM     33  C   UNL     1      -1.238   3.133   0.030  0.00  0.00    +0.000 A 
ENDBRANCH  27  31
ENDBRANCH   1  27
TORSDOF 3
