REMARK  Name = ZINC02405464
REMARK  8 active torsions:
REMARK  status: ('A' for Active; 'I' for Inactive)
REMARK    1  A    between atoms: C_1  and  O_2
REMARK    2  A    between atoms: O_2  and  C_3
REMARK    3  A    between atoms: C_8  and  N_9
REMARK    4  A    between atoms: C_14  and  C_28
REMARK    5  A    between atoms: N_16  and  C_22
REMARK    6  A    between atoms: C_31  and  O_34
REMARK    7  A    between atoms: O_34  and  C_35
REMARK    8  A    between atoms: C_35  and  C_37
REMARK                            x       y       z     vdW  Elec       q    Type
REMARK                         _______ _______ _______ _____ _____    ______ ____
ROOT
ATOM      1  N   UNL     1      -0.121  -2.678   0.194  0.00  0.00    -0.204 N 
ATOM      2  C   UNL     1       0.595  -3.139   1.269  0.00  0.00    +0.235 C 
ATOM      3  O   UNL     1       0.258  -3.144   2.434  0.00  0.00    -0.274 OA
ATOM      4  C   UNL     1       1.837  -3.615   0.710  0.00  0.00    +0.145 C 
ATOM      5  C   UNL     1       2.940  -4.534   1.036  0.00  0.00    +0.157 C 
ATOM      6  N   UNL     1       3.494  -4.859  -0.317  0.00  0.00    -0.244 N 
ATOM      7  O   UNL     1       2.660  -4.203  -1.299  0.00  0.00    -0.257 OA
ATOM      8  C   UNL     1       1.360  -4.193  -0.682  0.00  0.00    +0.249 C 
ATOM      9  C   UNL     1       0.408  -3.072  -1.001  0.00  0.00    +0.259 C 
ATOM     10  O   UNL     1       0.164  -2.613  -2.096  0.00  0.00    -0.272 OA
ENDROOT
BRANCH   1  16
ATOM     11  C   UNL     1      -1.176  -0.501   0.337  0.00  0.00    +0.142 A 
ATOM     12  C   UNL     1      -2.321   0.272   0.446  0.00  0.00    +0.047 A 
ATOM     13  C   UNL     1      -3.559  -0.335   0.531  0.00  0.00    +0.004 A 
ATOM     14  C   UNL     1      -3.660  -1.714   0.509  0.00  0.00    +0.002 A 
ATOM     15  C   UNL     1      -2.523  -2.492   0.401  0.00  0.00    +0.027 A 
ATOM     16  C   UNL     1      -1.277  -1.890   0.309  0.00  0.00    +0.086 A 
BRANCH  11  18
ATOM     17  C   UNL     1       0.071   1.523   0.288  0.00  0.00    +0.277 C 
ATOM     18  O   UNL     1       0.043   0.095   0.253  0.00  0.00    -0.493 OA
ENDBRANCH  11  18
ENDBRANCH   1  16
BRANCH   6  19
ATOM     19  C   UNL     1       4.613  -5.652  -0.582  0.00  0.00    +0.065 A 
ATOM     20  C   UNL     1       5.322  -6.227   0.465  0.00  0.00    +0.028 A 
ATOM     21  C   UNL     1       6.428  -7.010   0.199  0.00  0.00    +0.002 A 
ATOM     22  C   UNL     1       6.830  -7.222  -1.107  0.00  0.00    +0.000 A 
ATOM     23  C   UNL     1       6.127  -6.651  -2.151  0.00  0.00    +0.002 A 
ATOM     24  C   UNL     1       5.016  -5.871  -1.893  0.00  0.00    +0.028 A 
ENDBRANCH   6  19
BRANCH   5  25
ATOM     25  C   UNL     1       2.422  -5.772   1.720  0.00  0.00    -0.022 A 
ATOM     26  C   UNL     1       1.868  -6.794   0.972  0.00  0.00    +0.009 A 
ATOM     27  C   UNL     1       1.392  -7.931   1.596  0.00  0.00    +0.047 A 
ATOM     28  C   UNL     1       1.471  -8.046   2.977  0.00  0.00    +0.132 A 
ATOM     29  C   UNL     1       2.028  -7.020   3.726  0.00  0.00    +0.047 A 
ATOM     30  C   UNL     1       2.507  -5.888   3.096  0.00  0.00    +0.009 A 
BRANCH  28  31
ATOM     31  O   UNL     1       1.003  -9.163   3.594  0.00  0.00    -0.422 OA
BRANCH  31  32
ATOM     32  C   UNL     1       1.677 -10.316   3.411  0.00  0.00    +0.344 C 
ATOM     33  O   UNL     1       2.726 -10.316   2.799  0.00  0.00    -0.245 OA
BRANCH  32  34
ATOM     34  C   UNL     1       1.139 -11.579   3.955  0.00  0.00    +0.059 A 
ATOM     35  C   UNL     1      -0.070 -11.584   4.654  0.00  0.00    +0.015 A 
ATOM     36  C   UNL     1      -0.567 -12.768   5.159  0.00  0.00    +0.001 A 
ATOM     37  C   UNL     1       0.130 -13.949   4.975  0.00  0.00    +0.000 A 
ATOM     38  C   UNL     1       1.329 -13.951   4.284  0.00  0.00    +0.001 A 
ATOM     39  C   UNL     1       1.834 -12.776   3.768  0.00  0.00    +0.015 A 
ENDBRANCH  32  34
ENDBRANCH  31  32
ENDBRANCH  28  31
ENDBRANCH   5  25
TORSDOF 7
