REMARK  Name = ZINC08871868
REMARK  5 active torsions:
REMARK  status: ('A' for Active; 'I' for Inactive)
REMARK    1  A    between atoms: C_3  and  S_6
REMARK    2  A    between atoms: S_6  and  N_9
REMARK    3  A    between atoms: N_9  and  C_10
REMARK    4  A    between atoms: N_18  and  S_19
REMARK    5  A    between atoms: S_19  and  C_22
REMARK                            x       y       z     vdW  Elec       q    Type
REMARK                         _______ _______ _______ _____ _____    ______ ____
ROOT
ATOM      1  C   UNL     1       3.854  -0.875   4.708  0.00  0.00    +0.049 A 
ATOM      2  C   UNL     1       4.692   0.234   4.738  0.00  0.00    +0.026 A 
ATOM      3  C   UNL     1       4.570   1.272   3.832  0.00  0.00    +0.030 A 
ATOM      4  C   UNL     1       3.564   1.167   2.874  0.00  0.00    +0.073 A 
ATOM      5  C   UNL     1       2.709   0.037   2.841  0.00  0.00    +0.014 A 
ATOM      6  C   UNL     1       2.844  -1.002   3.761  0.00  0.00    +0.035 A 
ATOM      7  C   UNL     1       1.799   0.266   1.731  0.00  0.00    +0.048 A 
ATOM      8  C   UNL     1       2.150   1.494   1.179  0.00  0.00    +0.054 A 
ATOM      9  N   UNL     1       3.190   2.008   1.856  0.00  0.00    -0.214 N 
ATOM     10  C   UNL     1       1.411   2.080  -0.000  0.00  0.00    +0.056 C 
ATOM     11  C   UNL     1      -0.019   1.524   0.010  0.00  0.00    +0.014 C 
ATOM     12  C   UNL     1       0.002  -0.004   0.002  0.00  0.00    +0.080 C 
ATOM     13  C   UNL     1       0.738  -0.520   1.219  0.00  0.00    +0.166 C 
ATOM     14  O   UNL     1       0.429  -1.572   1.740  0.00  0.00    -0.292 OA
ENDROOT
BRANCH   9  15
ATOM     15  S   UNL     1       3.919   3.454   1.510  0.00  0.00    +0.091 S 
ATOM     16  O   UNL     1       5.239   3.378   2.028  0.00  0.00    -0.147 OA
ATOM     17  O   UNL     1       3.652   3.726   0.141  0.00  0.00    -0.147 OA
BRANCH  15  18
ATOM     18  C   UNL     1       3.083   4.695   2.441  0.00  0.00    +0.148 A 
ATOM     19  C   UNL     1       3.349   5.149   3.691  0.00  0.00    +0.037 A 
ATOM     20  C   UNL     1       2.550   6.141   4.228  0.00  0.00    +0.010 A 
ATOM     21  C   UNL     1       1.525   6.631   3.489  0.00  0.00    +0.047 A 
ATOM     22  S   UNL     1       1.671   5.686   1.982  0.00  0.00    -0.077 S 
ENDBRANCH  15  18
ENDBRANCH   9  15
BRANCH   1  23
ATOM     23  N   UNL     1       4.032  -1.890   5.654  0.00  0.00    -0.216 N 
ATOM     24  H   UNL     1       4.020  -2.820   5.377  0.00  0.00    +0.174 HD
BRANCH  23  25
ATOM     25  S   UNL     1       4.263  -1.504   7.248  0.00  0.00    +0.079 S 
ATOM     26  O   UNL     1       4.383  -2.734   7.950  0.00  0.00    -0.149 OA
ATOM     27  O   UNL     1       5.274  -0.506   7.282  0.00  0.00    -0.149 OA
BRANCH  25  30
ATOM     28  C   UNL     1       0.629  -0.508   8.757  0.00  0.00    +0.010 A 
ATOM     29  C   UNL     1       1.688  -1.313   8.379  0.00  0.00    +0.036 A 
ATOM     30  C   UNL     1       2.782  -0.741   7.819  0.00  0.00    +0.146 A 
ATOM     31  S   UNL     1       2.336   0.988   7.819  0.00  0.00    -0.077 S 
ATOM     32  C   UNL     1       0.717   0.830   8.556  0.00  0.00    +0.047 A 
ENDBRANCH  25  30
ENDBRANCH  23  25
ENDBRANCH   1  23
TORSDOF 5
