REMARK  Name = ZINC16945556
REMARK  9 active torsions:
REMARK  status: ('A' for Active; 'I' for Inactive)
REMARK    1  A    between atoms: C_1  and  C_2
REMARK    2  A    between atoms: C_3  and  C_34
REMARK    3  A    between atoms: N_9  and  C_29
REMARK    4  A    between atoms: C_10  and  S_12
REMARK    5  A    between atoms: S_12  and  C_13
REMARK    6  A    between atoms: C_13  and  C_15
REMARK    7  A    between atoms: C_13  and  C_16
REMARK    8  A    between atoms: N_18  and  C_19
REMARK    9  A    between atoms: C_24  and  C_25
REMARK                            x       y       z     vdW  Elec       q    Type
REMARK                         _______ _______ _______ _____ _____    ______ ____
ROOT
ATOM      1  C   UNL     1       2.645   5.905  -0.881  0.00  0.00    +0.045 C 
ATOM      2  C   UNL     1       3.595   4.784  -0.546  0.00  0.00    -0.026 A 
ATOM      3  C   UNL     1       4.869   5.049  -0.221  0.00  0.00    -0.008 A 
ATOM      4  S   UNL     1       5.564   3.435   0.080  0.00  0.00    -0.073 S 
ATOM      5  C   UNL     1       4.123   2.450  -0.240  0.00  0.00    +0.117 A 
ATOM      6  C   UNL     1       3.142   3.404  -0.572  0.00  0.00    +0.075 A 
ATOM      7  C   UNL     1       1.847   2.882  -0.885  0.00  0.00    +0.263 A 
ATOM      8  O   UNL     1       0.934   3.632  -1.184  0.00  0.00    -0.267 OA
ATOM      9  N   UNL     1       1.650   1.551  -0.846  0.00  0.00    -0.284 N 
ATOM     10  C   UNL     1       2.659   0.696  -0.508  0.00  0.00    +0.174 A 
ATOM     11  N   UNL     1       3.862   1.149  -0.220  0.00  0.00    -0.216 NA
ATOM     12  C   UNL     1       5.550   6.390  -0.131  0.00  0.00    +0.052 C 
ENDROOT
BRANCH   9  13
ATOM     13  C   UNL     1       0.327   1.011  -1.166  0.00  0.00    +0.093 C 
ATOM     14  C   UNL     1      -0.696   1.452  -0.098  0.00  0.00    +0.025 C 
ATOM     15  C   UNL     1      -1.363   2.710  -0.709  0.00  0.00    +0.002 C 
ATOM     16  C   UNL     1      -1.470   2.347  -2.211  0.00  0.00    +0.002 C 
ATOM     17  C   UNL     1      -0.164   1.580  -2.508  0.00  0.00    +0.025 C 
ENDBRANCH   9  13
BRANCH  10  18
ATOM     18  S   UNL     1       2.349  -1.038  -0.463  0.00  0.00    -0.075 S 
BRANCH  18  19
ATOM     19  C   UNL     1       3.986  -1.637   0.027  0.00  0.00    +0.137 C 
ATOM     20  C   UNL     1       4.995  -1.325  -1.080  0.00  0.00    +0.029 C 
BRANCH  19  21
ATOM     21  C   UNL     1       3.929  -3.126   0.251  0.00  0.00    +0.230 C 
ATOM     22  O   UNL     1       3.084  -3.792  -0.308  0.00  0.00    -0.274 OA
ATOM     23  N   UNL     1       4.819  -3.718   1.073  0.00  0.00    -0.284 N 
ATOM     24  H   UNL     1       5.441  -3.177   1.585  0.00  0.00    +0.155 HD
BRANCH  23  25
ATOM     25  C   UNL     1       4.844  -5.112   1.189  0.00  0.00    +0.045 A 
ATOM     26  C   UNL     1       4.289  -5.904   0.192  0.00  0.00    +0.024 A 
ATOM     27  C   UNL     1       4.320  -7.279   0.307  0.00  0.00    +0.002 A 
ATOM     28  C   UNL     1       4.893  -7.869   1.419  0.00  0.00    +0.001 A 
ATOM     29  C   UNL     1       5.442  -7.084   2.416  0.00  0.00    +0.014 A 
ATOM     30  C   UNL     1       5.418  -5.707   2.304  0.00  0.00    +0.076 A 
BRANCH  30  31
ATOM     31  C   UNL     1       6.015  -4.852   3.392  0.00  0.00    +0.419 C 
ATOM     32  F   UNL     1       6.529  -5.673   4.402  0.00  0.00    -0.166 F 
ATOM     33  F   UNL     1       7.045  -4.070   2.858  0.00  0.00    -0.166 F 
ATOM     34  F   UNL     1       5.027  -4.019   3.926  0.00  0.00    -0.166 F 
ENDBRANCH  30  31
ENDBRANCH  23  25
ENDBRANCH  19  21
ENDBRANCH  18  19
ENDBRANCH  10  18
TORSDOF 6
