REMARK  Name = ZINC02644942
REMARK  7 active torsions:
REMARK  status: ('A' for Active; 'I' for Inactive)
REMARK    1  A    between atoms: C_1  and  C_2
REMARK    2  A    between atoms: C_11  and  N_13
REMARK    3  A    between atoms: C_14  and  C_16
REMARK    4  A    between atoms: C_18  and  S_24
REMARK    5  A    between atoms: C_21  and  O_22
REMARK    6  A    between atoms: O_22  and  C_23
REMARK    7  A    between atoms: S_24  and  N_27
REMARK                            x       y       z     vdW  Elec       q    Type
REMARK                         _______ _______ _______ _____ _____    ______ ____
ROOT
ATOM      1  C   UNL     1      -1.596  -2.584  -3.671  0.00  0.00    +0.080 A 
ATOM      2  C   UNL     1      -1.238  -2.341  -2.343  0.00  0.00    +0.045 A 
ATOM      3  C   UNL     1      -1.758  -1.251  -1.679  0.00  0.00    +0.110 A 
ATOM      4  C   UNL     1      -2.639  -0.396  -2.322  0.00  0.00    +0.032 A 
ATOM      5  C   UNL     1      -2.997  -0.622  -3.636  0.00  0.00    +0.048 A 
ATOM      6  C   UNL     1      -2.483  -1.714  -4.320  0.00  0.00    +0.132 A 
ENDROOT
BRANCH   1   8
ATOM      7  N   UNL     1      -0.189  -4.582  -3.761  0.00  0.00    -0.281 N 
ATOM      8  C   UNL     1      -1.042  -3.748  -4.388  0.00  0.00    +0.252 C 
ATOM      9  O   UNL     1      -1.356  -3.956  -5.544  0.00  0.00    -0.270 OA
ATOM     10  H   UNL     1       0.113  -4.380  -2.861  0.00  0.00    +0.155 HD
BRANCH   7  21
ATOM     11  C   UNL     1       1.874 -10.511  -5.592  0.00  0.00    +0.045 C 
ATOM     12  C   UNL     1       1.622  -9.234  -6.352  0.00  0.00    -0.033 A 
ATOM     13  C   UNL     1       1.825  -9.169  -7.694  0.00  0.00    +0.096 A 
ATOM     14  C   UNL     1       1.583  -7.963  -8.383  0.00  0.00    +0.337 A 
ATOM     15  O   UNL     1       1.769  -7.919  -9.585  0.00  0.00    -0.245 OA
ATOM     16  O   UNL     1       1.151  -6.863  -7.747  0.00  0.00    -0.422 OA
ATOM     17  C   UNL     1       0.928  -6.860  -6.415  0.00  0.00    +0.141 A 
ATOM     18  C   UNL     1       1.151  -8.030  -5.665  0.00  0.00    +0.021 A 
ATOM     19  C   UNL     1       0.921  -8.032  -4.284  0.00  0.00    +0.013 A 
ATOM     20  C   UNL     1       0.487  -6.896  -3.667  0.00  0.00    +0.024 A 
ATOM     21  C   UNL     1       0.260  -5.734  -4.405  0.00  0.00    +0.037 A 
ATOM     22  C   UNL     1       0.482  -5.715  -5.774  0.00  0.00    +0.070 A 
ENDBRANCH   7  21
ENDBRANCH   1   8
BRANCH   3  23
ATOM     23  S   UNL     1      -1.306  -0.947  -0.004  0.00  0.00    +0.075 S 
ATOM     24  O   UNL     1      -0.902  -2.195   0.541  0.00  0.00    -0.150 OA
ATOM     25  O   UNL     1      -2.352  -0.171   0.564  0.00  0.00    -0.150 OA
BRANCH  23  26
ATOM     26  N   UNL     1       0.040   0.018  -0.027  0.00  0.00    -0.202 N 
ATOM     27  C   UNL     1       0.022   1.483  -0.028  0.00  0.00    +0.136 C 
ATOM     28  C   UNL     1       1.501   1.903  -0.053  0.00  0.00    +0.058 C 
ATOM     29  C   UNL     1       2.266   0.599  -0.066  0.00  0.00    -0.023 A 
ATOM     30  C   UNL     1       1.356  -0.446  -0.049  0.00  0.00    +0.054 A 
ATOM     31  C   UNL     1       1.831  -1.759  -0.057  0.00  0.00    +0.025 A 
ATOM     32  C   UNL     1       3.187  -2.007  -0.080  0.00  0.00    +0.002 A 
ATOM     33  C   UNL     1       4.087  -0.958  -0.097  0.00  0.00    +0.000 A 
ATOM     34  C   UNL     1       3.624   0.345  -0.089  0.00  0.00    +0.005 A 
ENDBRANCH  23  26
ENDBRANCH   3  23
BRANCH   6  35
ATOM     35  O   UNL     1      -2.838  -1.939  -5.609  0.00  0.00    -0.494 OA
ATOM     36  C   UNL     1      -3.747  -1.010  -6.204  0.00  0.00    +0.277 C 
ENDBRANCH   6  35
TORSDOF 5
