REMARK  Name = ZINC43287676
REMARK  12 active torsions:
REMARK  status: ('A' for Active; 'I' for Inactive)
REMARK    1  A    between atoms: C_1  and  C_2
REMARK    2  A    between atoms: C_2  and  C_3
REMARK    3  A    between atoms: C_3  and  C_5
REMARK    4  A    between atoms: C_3  and  N_22
REMARK    5  A    between atoms: C_5  and  C_7
REMARK    6  A    between atoms: C_5  and  N_13
REMARK    7  A    between atoms: N_13  and  C_14
REMARK    8  A    between atoms: N_13  and  C_18
REMARK    9  A    between atoms: C_14  and  C_15
REMARK   10  A    between atoms: C_15  and  C_16
REMARK   11  A    between atoms: C_15  and  C_17
REMARK   12  A    between atoms: C_18  and  C_19
REMARK                            x       y       z     vdW  Elec       q    Type
REMARK                         _______ _______ _______ _____ _____    ______ ____
ROOT
ATOM      1  C   UNL     1       0.956  -1.995  -1.623  0.00  0.00    -0.045 C 
ENDROOT
BRANCH   1   2
ATOM      2  C   UNL     1      -0.039  -2.511  -2.631  0.00  0.00    -0.024 A 
ATOM      3  C   UNL     1       0.083  -2.610  -3.977  0.00  0.00    +0.024 A 
ATOM      4  C   UNL     1      -0.972  -3.120  -4.710  0.00  0.00    +0.025 A 
ATOM      5  C   UNL     1      -2.097  -3.507  -4.060  0.00  0.00    +0.060 A 
ATOM      6  S   UNL     1      -1.680  -3.159  -2.360  0.00  0.00    -0.102 S 
ATOM      7 BR   UNL     1      -0.848  -3.276  -6.590  0.00  0.00    -0.050 Br
ENDBRANCH   1   2
BRANCH   1   8
ATOM      8  N   UNL     1       1.096  -2.968  -0.531  0.00  0.00    +0.389 N 
ATOM      9  H   UNL     1       0.184  -3.199  -0.167  0.00  0.00    -0.080 HD
BRANCH   8  10
ATOM     10  C   UNL     1       1.743  -4.185  -1.039  0.00  0.00    -0.074 C 
BRANCH  10  11
ATOM     11  C   UNL     1       0.714  -5.035  -1.786  0.00  0.00    -0.034 C 
ATOM     12  C   UNL     1       1.403  -6.268  -2.376  0.00  0.00    +0.005 C 
ATOM     13  C   UNL     1      -0.382  -5.479  -0.816  0.00  0.00    +0.005 C 
ENDBRANCH  10  11
ENDBRANCH   8  10
BRANCH   8  14
ATOM     14  C   UNL     1       1.918  -2.387   0.539  0.00  0.00    +0.019 C 
BRANCH  14  15
ATOM     15  C   UNL     1       1.923  -3.313   1.728  0.00  0.00    +0.194 C 
ATOM     16  O   UNL     1       1.289  -4.347   1.694  0.00  0.00    -0.278 OA
ATOM     17  N   UNL     1       2.632  -2.994   2.828  0.00  0.00    -0.331 N 
ATOM     18  H   UNL     1       3.139  -2.167   2.856  0.00  0.00    +0.145 HD
ATOM     19  H   UNL     1       2.636  -3.591   3.593  0.00  0.00    +0.145 HD
ENDBRANCH  14  15
ENDBRANCH   8  14
ENDBRANCH   1   8
BRANCH   1  20
ATOM     20  C   UNL     1       0.464  -0.661  -1.058  0.00  0.00    -0.085 C 
BRANCH  20  21
ATOM     21  N   UNL     1       0.233   0.282  -2.160  0.00  0.00    +0.379 N 
ATOM     22  H   UNL     1      -0.091   1.162  -1.788  0.00  0.00    -0.090 HD
ATOM     23  H   UNL     1       1.095   0.428  -2.665  0.00  0.00    -0.090 HD
ATOM     24  H   UNL     1      -0.463  -0.096  -2.785  0.00  0.00    -0.090 HD
ENDBRANCH  20  21
BRANCH  20  26
ATOM     25  C   UNL     1      -1.251   0.417   0.404  0.00  0.00    +0.002 C 
ATOM     26  C   UNL     1      -0.842  -0.882  -0.293  0.00  0.00    -0.021 C 
ENDBRANCH  20  26
ENDBRANCH   1  20
TORSDOF 9
