REMARK  Name = ZINC18057124
REMARK  9 active torsions:
REMARK  status: ('A' for Active; 'I' for Inactive)
REMARK    1  A    between atoms: C_1  and  C_2
REMARK    2  A    between atoms: C_3  and  O_24
REMARK    3  A    between atoms: C_6  and  C_9
REMARK    4  A    between atoms: C_7  and  O_8
REMARK    5  A    between atoms: C_10  and  C_16
REMARK    6  A    between atoms: C_11  and  C_15
REMARK    7  A    between atoms: C_19  and  O_22
REMARK    8  A    between atoms: O_22  and  C_23
REMARK    9  A    between atoms: O_24  and  C_25
REMARK                            x       y       z     vdW  Elec       q    Type
REMARK                         _______ _______ _______ _____ _____    ______ ____
ROOT
ATOM      1  C   UNL     1       0.185  -2.869   2.460  0.00  0.00    +0.104 A 
ATOM      2  C   UNL     1      -0.022  -4.264   2.600  0.00  0.00    +0.030 A 
ATOM      3  C   UNL     1      -0.103  -4.535   3.933  0.00  0.00    +0.041 A 
ATOM      4  N   UNL     1       0.045  -3.372   4.600  0.00  0.00    -0.281 N 
ATOM      5  H   UNL     1       0.030  -3.266   5.564  0.00  0.00    +0.189 HD
ATOM      6  N   UNL     1       0.229  -2.346   3.666  0.00  0.00    -0.173 NA
ATOM      7  C   UNL     1      -0.320  -5.892   4.551  0.00  0.00    +0.065 C 
ENDROOT
BRANCH   1  13
ATOM      8  C   UNL     1      -1.011   1.011  -0.459  0.00  0.00    +0.051 C 
ATOM      9  C   UNL     1      -0.243  -0.264  -0.226  0.00  0.00    +0.033 A 
ATOM     10  C   UNL     1       0.607  -0.752  -1.208  0.00  0.00    +0.126 A 
ATOM     11  C   UNL     1       1.317  -1.926  -0.997  0.00  0.00    +0.047 A 
ATOM     12  C   UNL     1       1.182  -2.615   0.191  0.00  0.00    +0.017 A 
ATOM     13  C   UNL     1       0.332  -2.131   1.183  0.00  0.00    +0.045 A 
ATOM     14  C   UNL     1      -0.380  -0.945   0.971  0.00  0.00    +0.132 A 
BRANCH  14  15
ATOM     15  O   UNL     1      -1.207  -0.466   1.937  0.00  0.00    -0.506 OA
ATOM     16  H   UNL     1      -2.115  -0.793   1.875  0.00  0.00    +0.292 HD
ENDBRANCH  14  15
BRANCH  10  17
ATOM     17  O   UNL     1       0.744  -0.079  -2.381  0.00  0.00    -0.495 OA
ATOM     18  C   UNL     1       1.634  -0.637  -3.349  0.00  0.00    +0.277 C 
ENDBRANCH  10  17
ENDBRANCH   1  13
BRANCH   2  19
ATOM     19  C   UNL     1      -0.131  -5.250   1.496  0.00  0.00    -0.014 A 
ATOM     20  C   UNL     1      -1.214  -5.200   0.620  0.00  0.00    +0.012 A 
ATOM     21  C   UNL     1      -1.313  -6.118  -0.405  0.00  0.00    +0.046 A 
ATOM     22  C   UNL     1      -0.335  -7.090  -0.565  0.00  0.00    +0.120 A 
ATOM     23  C   UNL     1       0.745  -7.141   0.305  0.00  0.00    +0.046 A 
ATOM     24  C   UNL     1       0.852  -6.223   1.329  0.00  0.00    +0.012 A 
BRANCH  22  25
ATOM     25  O   UNL     1      -0.435  -7.993  -1.576  0.00  0.00    -0.495 OA
ATOM     26  C   UNL     1       0.606  -8.965  -1.683  0.00  0.00    +0.277 C 
ENDBRANCH  22  25
ENDBRANCH   2  19
TORSDOF 5
