REMARK  Name = ZINC35815639
REMARK  11 active torsions:
REMARK  status: ('A' for Active; 'I' for Inactive)
REMARK    1  A    between atoms: C_1  and  C_2
REMARK    2  A    between atoms: C_5  and  C_8
REMARK    3  A    between atoms: C_8  and  N_9
REMARK    4  A    between atoms: N_9  and  C_10
REMARK    5  A    between atoms: N_9  and  C_25
REMARK    6  A    between atoms: C_10  and  C_11
REMARK    7  A    between atoms: C_11  and  C_12
REMARK    8  A    between atoms: C_12  and  C_13
REMARK    9  A    between atoms: C_12  and  C_19
REMARK   10  A    between atoms: C_25  and  C_26
REMARK   11  A    between atoms: C_28  and  C_31
REMARK                            x       y       z     vdW  Elec       q    Type
REMARK                         _______ _______ _______ _____ _____    ______ ____
ROOT
ATOM      1  N   UNL     1       3.172  -5.416   1.226  0.00  0.00    +0.386 N 
ATOM      2  H   UNL     1       3.678  -4.737   0.677  0.00  0.00    -0.081 HD
ENDROOT
BRANCH   1   3
ATOM      3  C   UNL     1       2.216  -4.723   2.100  0.00  0.00    -0.042 C 
BRANCH   3   8
ATOM      4  C   UNL     1       5.013  -0.808   5.300  0.00  0.00    +0.044 C 
ATOM      5  C   UNL     1       4.283  -1.829   4.465  0.00  0.00    -0.050 A 
ATOM      6  C   UNL     1       3.902  -1.521   3.173  0.00  0.00    +0.003 A 
ATOM      7  C   UNL     1       3.233  -2.457   2.407  0.00  0.00    +0.002 A 
ATOM      8  C   UNL     1       2.946  -3.703   2.934  0.00  0.00    -0.064 A 
ATOM      9  C   UNL     1       3.328  -4.011   4.226  0.00  0.00    +0.002 A 
ATOM     10  C   UNL     1       4.000  -3.076   4.990  0.00  0.00    +0.003 A 
ENDBRANCH   3   8
ENDBRANCH   1   3
BRANCH   1  11
ATOM     11  C   UNL     1       2.446  -6.326   0.330  0.00  0.00    -0.077 C 
BRANCH  11  12
ATOM     12  C   UNL     1       1.554  -5.512  -0.610  0.00  0.00    -0.006 C 
BRANCH  12  13
ATOM     13  C   UNL     1       0.798  -6.460  -1.543  0.00  0.00    +0.047 C 
BRANCH  13  14
ATOM     14  C   UNL     1      -0.147  -7.313  -0.736  0.00  0.00    -0.040 A 
ATOM     15  C   UNL     1      -0.085  -8.691  -0.827  0.00  0.00    +0.004 A 
ATOM     16  C   UNL     1      -0.951  -9.472  -0.086  0.00  0.00    +0.000 A 
ATOM     17  C   UNL     1      -1.880  -8.876   0.746  0.00  0.00    +0.000 A 
ATOM     18  C   UNL     1      -1.941  -7.498   0.839  0.00  0.00    +0.000 A 
ATOM     19  C   UNL     1      -1.072  -6.717   0.101  0.00  0.00    +0.004 A 
ENDBRANCH  13  14
BRANCH  13  20
ATOM     20  C   UNL     1       0.014  -5.656  -2.549  0.00  0.00    -0.040 A 
ATOM     21  C   UNL     1      -0.819  -4.639  -2.122  0.00  0.00    +0.004 A 
ATOM     22  C   UNL     1      -1.538  -3.901  -3.044  0.00  0.00    +0.000 A 
ATOM     23  C   UNL     1      -1.423  -4.181  -4.393  0.00  0.00    +0.000 A 
ATOM     24  C   UNL     1      -0.590  -5.198  -4.820  0.00  0.00    +0.000 A 
ATOM     25  C   UNL     1       0.133  -5.933  -3.898  0.00  0.00    +0.004 A 
ENDBRANCH  13  20
ENDBRANCH  12  13
ENDBRANCH  11  12
ENDBRANCH   1  11
BRANCH   1  26
ATOM     26  C   UNL     1       4.116  -6.186   2.046  0.00  0.00    -0.014 C 
BRANCH  26  27
ATOM     27  C   UNL     1       5.172  -6.794   1.159  0.00  0.00    +0.063 A 
ATOM     28  N   UNL     1       6.274  -6.243   0.726  0.00  0.00    -0.241 NA
ATOM     29  C   UNL     1       7.079  -6.967  -0.058  0.00  0.00    +0.133 A 
ATOM     30  C   UNL     1       6.662  -8.241  -0.336  0.00  0.00    +0.079 A 
ATOM     31  S   UNL     1       5.211  -8.339   0.504  0.00  0.00    -0.082 S 
BRANCH  29  32
ATOM     32  C   UNL     1       8.340  -6.425  -0.592  0.00  0.00    +0.265 C 
ATOM     33  O   UNL     1       8.993  -7.074  -1.387  0.00  0.00    -0.268 OA
ATOM     34  N   UNL     1       8.772  -5.210  -0.198  0.00  0.00    -0.296 N 
ATOM     35  C   UNL     1       8.142  -4.369   0.831  0.00  0.00    +0.108 C 
ATOM     36  C   UNL     1       8.964  -3.066   0.922  0.00  0.00    +0.020 C 
ATOM     37  C   UNL     1       9.675  -3.006  -0.455  0.00  0.00    +0.020 C 
ATOM     38  C   UNL     1       9.956  -4.508  -0.724  0.00  0.00    +0.108 C 
ENDBRANCH  29  32
ENDBRANCH  26  27
ENDBRANCH   1  26
TORSDOF 10
