REMARK  Name = ZINC11634424
REMARK  8 active torsions:
REMARK  status: ('A' for Active; 'I' for Inactive)
REMARK    1  A    between atoms: C_1  and  C_2
REMARK    2  A    between atoms: C_2  and  N_3
REMARK    3  A    between atoms: N_16  and  C_17
REMARK    4  A    between atoms: C_17  and  C_19
REMARK    5  A    between atoms: C_22  and  S_25
REMARK    6  A    between atoms: S_25  and  N_28
REMARK    7  A    between atoms: C_30  and  C_37
REMARK    8  A    between atoms: C_33  and  C_36
REMARK                            x       y       z     vdW  Elec       q    Type
REMARK                         _______ _______ _______ _____ _____    ______ ____
ROOT
ATOM      1  C   UNL     1      -5.154   4.824   5.901  0.00  0.00    +0.269 C 
ATOM      2  O   UNL     1      -6.299   5.210   5.741  0.00  0.00    -0.268 OA
ENDROOT
BRANCH   1  16
ATOM      3  N   UNL     1      -4.438   6.619   8.948  0.00  0.00    -0.321 N 
ATOM      4  C   UNL     1      -5.168   7.482   9.739  0.00  0.00    +0.065 A 
ATOM      5  C   UNL     1      -4.763   8.137  10.938  0.00  0.00    +0.007 A 
ATOM      6  C   UNL     1      -3.473   7.932  11.452  0.00  0.00    +0.010 A 
ATOM      7  C   UNL     1      -3.096   8.564  12.598  0.00  0.00    +0.001 A 
ATOM      8  C   UNL     1      -3.976   9.411  13.270  0.00  0.00    +0.001 A 
ATOM      9  C   UNL     1      -5.234   9.630  12.799  0.00  0.00    +0.008 A 
ATOM     10  C   UNL     1      -5.657   8.995  11.617  0.00  0.00    -0.016 A 
ATOM     11  C   UNL     1      -6.954   9.210  11.114  0.00  0.00    +0.010 A 
ATOM     12  C   UNL     1      -7.337   8.582   9.968  0.00  0.00    +0.018 A 
ATOM     13  C   UNL     1      -6.463   7.739   9.297  0.00  0.00    +0.039 A 
ATOM     14  S   UNL     1      -6.585   6.774   7.811  0.00  0.00    -0.052 S 
ATOM     15  C   UNL     1      -4.994   6.085   7.827  0.00  0.00    +0.167 A 
ATOM     16  N   UNL     1      -4.448   5.245   6.954  0.00  0.00    -0.152 NA
BRANCH   3  18
ATOM     17  C   UNL     1      -2.574   5.119   8.443  0.00  0.00    +0.027 C 
ATOM     18  C   UNL     1      -3.062   6.277   9.316  0.00  0.00    +0.121 C 
ENDBRANCH   3  18
ENDBRANCH   1  16
BRANCH   1  19
ATOM     19  C   UNL     1      -4.546   3.887   4.928  0.00  0.00    +0.039 A 
ATOM     20  C   UNL     1      -5.281   3.446   3.827  0.00  0.00    +0.015 A 
ATOM     21  C   UNL     1      -4.708   2.573   2.925  0.00  0.00    +0.029 A 
ATOM     22  C   UNL     1      -3.409   2.136   3.109  0.00  0.00    +0.106 A 
ATOM     23  C   UNL     1      -2.677   2.566   4.201  0.00  0.00    +0.029 A 
ATOM     24  C   UNL     1      -3.236   3.443   5.108  0.00  0.00    +0.015 A 
BRANCH  22  25
ATOM     25  S   UNL     1      -2.686   1.021   1.952  0.00  0.00    +0.061 S 
ATOM     26  O   UNL     1      -3.760   0.338   1.320  0.00  0.00    -0.153 OA
ATOM     27  O   UNL     1      -1.649   0.336   2.642  0.00  0.00    -0.153 OA
BRANCH  25  28
ATOM     28  N   UNL     1      -1.952   1.935   0.783  0.00  0.00    -0.172 NA
ATOM     29  C   UNL     1      -0.548   2.353   0.918  0.00  0.00    +0.140 C 
ATOM     30  C   UNL     1       0.190   1.992  -0.377  0.00  0.00    +0.131 C 
ATOM     31  O   UNL     1      -0.526   2.528  -1.492  0.00  0.00    -0.371 OA
ATOM     32  C   UNL     1      -1.844   1.995  -1.651  0.00  0.00    +0.131 C 
ATOM     33  C   UNL     1      -2.686   2.356  -0.421  0.00  0.00    +0.140 C 
ATOM     34  C   UNL     1      -2.489   2.590  -2.904  0.00  0.00    +0.039 C 
ATOM     35  C   UNL     1       1.600   2.585  -0.343  0.00  0.00    +0.039 C 
ENDBRANCH  25  28
ENDBRANCH  22  25
ENDBRANCH   1  19
TORSDOF 5
