REMARK  Name = ZINC62794568
REMARK  4 active torsions:
REMARK  status: ('A' for Active; 'I' for Inactive)
REMARK    1  A    between atoms: C_3  and  N_12
REMARK    2  A    between atoms: C_6  and  C_7
REMARK    3  A    between atoms: N_8  and  O_9
REMARK    4  A    between atoms: C_16  and  O_19
REMARK                            x       y       z     vdW  Elec       q    Type
REMARK                         _______ _______ _______ _____ _____    ______ ____
ROOT
ATOM      1  C   UNL     1       0.005   1.379   0.028  0.00  0.00    +0.013 A 
ATOM      2  C   UNL     1       1.195   2.072  -0.007  0.00  0.00    +0.025 A 
ATOM      3  C   UNL     1       2.400   1.384  -0.100  0.00  0.00    +0.048 A 
ATOM      4  C   UNL     1       2.407  -0.007  -0.157  0.00  0.00    +0.063 A 
ATOM      5  C   UNL     1       1.219  -0.705  -0.121  0.00  0.00    +0.033 A 
ATOM      6  C   UNL     1       0.009  -0.016  -0.028  0.00  0.00    +0.019 A 
ATOM      7 CL   UNL     1       3.913  -0.863  -0.274  0.00  0.00    -0.082 Cl
ENDROOT
BRANCH   3   8
ATOM      8  N   UNL     1       3.603   2.088  -0.136  0.00  0.00    -0.326 N 
ATOM      9  C   UNL     1       4.178   2.522  -1.416  0.00  0.00    +0.105 C 
ATOM     10  C   UNL     1       5.621   2.016  -1.506  0.00  0.00    +0.021 C 
ATOM     11  C   UNL     1       6.399   2.487  -0.275  0.00  0.00    +0.034 C 
ATOM     12  C   UNL     1       5.761   1.905   0.988  0.00  0.00    +0.132 C 
ATOM     13  C   UNL     1       4.316   2.415   1.106  0.00  0.00    +0.136 C 
BRANCH  12  14
ATOM     14  O   UNL     1       6.507   2.320   2.134  0.00  0.00    -0.390 OA
ATOM     15  H   UNL     1       7.431   2.037   2.126  0.00  0.00    +0.210 HD
ENDBRANCH  12  14
ENDBRANCH   3   8
BRANCH   6  16
ATOM     16  C   UNL     1      -1.268  -0.762   0.011  0.00  0.00    +0.162 C 
ATOM     17  N   UNL     1      -1.298  -1.975   0.481  0.00  0.00    -0.072 NA
ATOM     18  N   UNL     1      -2.430  -0.170  -0.453  0.00  0.00    -0.340 N 
ATOM     19  H   UNL     1      -2.408   0.734  -0.804  0.00  0.00    +0.144 HD
ATOM     20  H   UNL     1      -3.268  -0.659  -0.428  0.00  0.00    +0.144 HD
BRANCH  17  21
ATOM     21  O   UNL     1      -0.142  -2.531   1.080  0.00  0.00    -0.408 OA
ATOM     22  H   UNL     1      -0.262  -3.437   1.399  0.00  0.00    +0.328 HD
ENDBRANCH  17  21
ENDBRANCH   6  16
TORSDOF 4
