REMARK  Name = ZINC60271451
REMARK  11 active torsions:
REMARK  status: ('A' for Active; 'I' for Inactive)
REMARK    1  A    between atoms: C_1  and  C_2
REMARK    2  A    between atoms: C_2  and  C_3
REMARK    3  A    between atoms: C_2  and  S_4
REMARK    4  A    between atoms: S_4  and  N_7
REMARK    5  A    between atoms: N_7  and  C_8
REMARK    6  A    between atoms: C_8  and  C_9
REMARK    7  A    between atoms: C_16  and  C_18
REMARK    8  A    between atoms: C_25  and  C_28
REMARK    9  A    between atoms: C_28  and  C_29
REMARK   10  A    between atoms: C_28  and  C_30
REMARK   11  A    between atoms: C_28  and  C_31
REMARK                            x       y       z     vdW  Elec       q    Type
REMARK                         _______ _______ _______ _____ _____    ______ ____
ROOT
ATOM      1  C   UNL     1      -1.354  -4.387   1.261  0.00  0.00    +0.022 C 
ATOM      2  C   UNL     1      -0.558  -5.080   2.369  0.00  0.00    +0.008 C 
ATOM      3  C   UNL     1      -0.999  -6.541   2.480  0.00  0.00    +0.019 C 
ATOM      4  C   UNL     1      -2.485  -6.595   2.847  0.00  0.00    +0.108 C 
ATOM      5  N   UNL     1      -3.244  -5.809   1.865  0.00  0.00    -0.297 N 
ATOM      6  C   UNL     1      -2.845  -4.417   1.613  0.00  0.00    +0.113 C 
ATOM      7  C   UNL     1      -4.285  -6.353   1.206  0.00  0.00    +0.253 C 
ATOM      8  O   UNL     1      -4.843  -5.726   0.324  0.00  0.00    -0.269 OA
ENDROOT
BRANCH   7   9
ATOM      9  C   UNL     1      -4.747  -7.701   1.551  0.00  0.00    +0.075 A 
ATOM     10  C   UNL     1      -5.521  -8.575   0.809  0.00  0.00    +0.024 A 
ATOM     11  C   UNL     1      -5.810  -9.801   1.388  0.00  0.00    -0.036 A 
ATOM     12  C   UNL     1      -5.301 -10.026   2.633  0.00  0.00    -0.006 A 
ATOM     13  S   UNL     1      -4.450  -8.646   3.034  0.00  0.00    -0.088 S 
ATOM     14  C   UNL     1      -5.471 -11.265   3.462  0.00  0.00    +0.043 C 
ATOM     15  C   UNL     1      -5.984 -12.390   2.553  0.00  0.00    +0.009 C 
ATOM     16  C   UNL     1      -7.160 -11.859   1.727  0.00  0.00    -0.001 C 
ATOM     17  C   UNL     1      -6.653 -10.862   0.685  0.00  0.00    +0.040 C 
BRANCH  16  18
ATOM     18  C   UNL     1      -7.852 -13.025   1.019  0.00  0.00    -0.035 C 
ATOM     19  C   UNL     1      -8.367 -14.021   2.060  0.00  0.00    +0.011 C 
ATOM     20  C   UNL     1      -9.027 -12.496   0.194  0.00  0.00    +0.011 C 
ATOM     21  C   UNL     1      -6.854 -13.725   0.094  0.00  0.00    +0.011 C 
ENDBRANCH  16  18
ENDBRANCH   7   9
BRANCH   1  22
ATOM     22  C   UNL     1      -0.889  -2.936   1.129  0.00  0.00    +0.110 C 
BRANCH  22  23
ATOM     23  N   UNL     1      -1.567  -2.307  -0.008  0.00  0.00    -0.194 NA
ATOM     24  H   UNL     1      -2.022  -2.857  -0.665  0.00  0.00    +0.148 HD
BRANCH  23  25
ATOM     25  S   UNL     1      -1.556  -0.659  -0.171  0.00  0.00    +0.032 S 
ATOM     26  O   UNL     1      -1.976  -0.167   1.094  0.00  0.00    -0.158 OA
ATOM     27  O   UNL     1      -2.325  -0.406  -1.339  0.00  0.00    -0.158 OA
BRANCH  25  29
ATOM     28  C   UNL     1       0.679  -0.945  -1.721  0.00  0.00    +0.033 C 
ATOM     29  C   UNL     1       0.183  -0.232  -0.462  0.00  0.00    +0.142 C 
ATOM     30  C   UNL     1       0.311   1.282  -0.649  0.00  0.00    +0.033 C 
ENDBRANCH  25  29
ENDBRANCH  23  25
ENDBRANCH  22  23
ENDBRANCH   1  22
TORSDOF 6
