REMARK  Name = ZINC05182800
REMARK  9 active torsions:
REMARK  status: ('A' for Active; 'I' for Inactive)
REMARK    1  A    between atoms: C_1  and  C_2
REMARK    2  A    between atoms: C_4  and  C_29
REMARK    3  A    between atoms: C_6  and  O_8
REMARK    4  A    between atoms: O_8  and  C_9
REMARK    5  A    between atoms: C_10  and  C_28
REMARK    6  A    between atoms: C_18  and  O_27
REMARK    7  A    between atoms: C_19  and  C_20
REMARK    8  A    between atoms: C_20  and  N_59
REMARK    9  A    between atoms: C_23  and  C_26
REMARK                            x       y       z     vdW  Elec       q    Type
REMARK                         _______ _______ _______ _____ _____    ______ ____
ROOT
ATOM      1  C   UNL     1       2.899   6.089  -5.987  0.00  0.00    +0.213 A 
ATOM      2  C   UNL     1       3.275   5.752  -4.737  0.00  0.00    +0.148 A 
ATOM      3  O   UNL     1       2.413   5.684  -3.715  0.00  0.00    -0.456 OA
ATOM      4  C   UNL     1       1.098   5.948  -3.859  0.00  0.00    +0.144 A 
ATOM      5  C   UNL     1       0.592   6.305  -5.122  0.00  0.00    +0.068 A 
ATOM      6  C   UNL     1       1.531   6.377  -6.255  0.00  0.00    +0.235 A 
ATOM      7  O   UNL     1       1.153   6.686  -7.373  0.00  0.00    -0.283 OA
ATOM      8  C   UNL     1      -0.765   6.586  -5.282  0.00  0.00    +0.019 A 
ATOM      9  C   UNL     1      -1.604   6.508  -4.207  0.00  0.00    +0.046 A 
ATOM     10  C   UNL     1      -1.113   6.150  -2.954  0.00  0.00    +0.122 A 
ATOM     11  C   UNL     1       0.232   5.868  -2.778  0.00  0.00    +0.020 A 
ATOM     12  C   UNL     1       4.727   5.439  -4.479  0.00  0.00    +0.090 C 
ENDROOT
BRANCH  10  13
ATOM     13  O   UNL     1      -1.960   6.077  -1.895  0.00  0.00    -0.506 OA
ATOM     14  H   UNL     1      -2.050   6.906  -1.406  0.00  0.00    +0.292 HD
ENDBRANCH  10  13
BRANCH   1  15
ATOM     15  O   UNL     1       3.819   6.141  -6.989  0.00  0.00    -0.449 OA
BRANCH  15  21
ATOM     16  C   UNL     1       2.821   1.438  -7.825  0.00  0.00    +0.044 C 
ATOM     17  C   UNL     1       3.579   2.700  -8.145  0.00  0.00    -0.047 A 
ATOM     18  C   UNL     1       4.505   2.709  -9.172  0.00  0.00    +0.007 A 
ATOM     19  C   UNL     1       5.202   3.866  -9.468  0.00  0.00    -0.047 A 
ATOM     20  C   UNL     1       4.974   5.017  -8.738  0.00  0.00    +0.049 A 
ATOM     21  C   UNL     1       4.045   5.011  -7.707  0.00  0.00    +0.129 A 
ATOM     22  C   UNL     1       3.352   3.847  -7.409  0.00  0.00    +0.049 A 
ATOM     23  C   UNL     1       6.211   3.872 -10.587  0.00  0.00    +0.044 C 
ENDBRANCH  15  21
ENDBRANCH   1  15
BRANCH  11  24
ATOM     24  C   UNL     1       0.752   5.481  -1.418  0.00  0.00    -0.036 C 
BRANCH  24  31
ATOM     25  C   UNL     1       1.390   3.586  -0.053  0.00  0.00    -0.078 C 
ATOM     26  C   UNL     1       1.417   2.057  -0.000  0.00  0.00    -0.016 C 
ATOM     27  C   UNL     1      -0.019   1.526   0.010  0.00  0.00    -0.018 C 
ATOM     28  C   UNL     1      -0.752   2.034  -1.234  0.00  0.00    -0.016 C 
ATOM     29  C   UNL     1      -0.717   3.564  -1.251  0.00  0.00    -0.078 C 
ATOM     30  C   UNL     1       0.002  -0.004   0.002  0.00  0.00    +0.007 C 
ATOM     31  N   UNL     1       0.692   4.011  -1.286  0.00  0.00    +0.383 N 
ATOM     32  H   UNL     1       1.157   3.584  -2.095  0.00  0.00    -0.081 HD
ENDBRANCH  24  31
ENDBRANCH  11  24
TORSDOF 5
