REMARK  Name = ZINC36643544
REMARK  8 active torsions:
REMARK  status: ('A' for Active; 'I' for Inactive)
REMARK    1  A    between atoms: C_1  and  N_2
REMARK    2  A    between atoms: N_2  and  C_3
REMARK    3  A    between atoms: N_2  and  C_4
REMARK    4  A    between atoms: C_4  and  C_5
REMARK    5  A    between atoms: C_5  and  C_6
REMARK    6  A    between atoms: C_6  and  N_7
REMARK    7  A    between atoms: C_20  and  C_22
REMARK    8  A    between atoms: C_24  and  C_32
REMARK                            x       y       z     vdW  Elec       q    Type
REMARK                         _______ _______ _______ _____ _____    ______ ____
ROOT
ATOM      1  N   UNL     1      -2.755  -4.042   0.005  0.00  0.00    -0.246 N 
ATOM      2  C   UNL     1      -2.740  -4.742   1.200  0.00  0.00    +0.168 A 
ATOM      3  N   UNL     1      -2.748  -4.276   2.427  0.00  0.00    -0.224 NA
ATOM      4  C   UNL     1      -2.732  -5.083   3.511  0.00  0.00    +0.084 A 
ATOM      5  C   UNL     1      -2.738  -4.710   4.875  0.00  0.00    +0.078 A 
ATOM      6  C   UNL     1      -2.719  -5.660   5.870  0.00  0.00    +0.168 A 
ATOM      7  C   UNL     1      -2.694  -7.022   5.559  0.00  0.00    +0.167 A 
ATOM      8  C   UNL     1      -2.688  -7.419   4.233  0.00  0.00    +0.066 A 
ATOM      9  C   UNL     1      -2.706  -6.470   3.241  0.00  0.00    +0.044 A 
ATOM     10  S   UNL     1      -2.714  -6.509   1.464  0.00  0.00    -0.052 S 
ATOM     11  O   UNL     1      -2.678  -7.739   6.720  0.00  0.00    -0.453 OA
ATOM     12  C   UNL     1      -2.281  -6.804   7.741  0.00  0.00    +0.466 C 
ATOM     13  O   UNL     1      -2.721  -5.532   7.232  0.00  0.00    -0.453 OA
ATOM     14  C   UNL     1      -2.750  -4.709  -1.166  0.00  0.00    +0.253 C 
ATOM     15  O   UNL     1      -2.632  -5.918  -1.176  0.00  0.00    -0.270 OA
ENDROOT
BRANCH  14  16
ATOM     16  C   UNL     1      -2.889  -3.969  -2.438  0.00  0.00    +0.048 A 
ATOM     17  C   UNL     1      -3.959  -3.117  -2.664  0.00  0.00    +0.042 A 
ATOM     18  C   UNL     1      -4.051  -2.433  -3.888  0.00  0.00    +0.079 A 
ATOM     19  N   UNL     1      -3.148  -2.572  -4.841  0.00  0.00    -0.246 NA
ATOM     20  C   UNL     1      -2.088  -3.370  -4.707  0.00  0.00    +0.072 A 
ATOM     21  C   UNL     1      -1.897  -4.102  -3.507  0.00  0.00    +0.013 A 
ATOM     22  C   UNL     1      -0.781  -4.933  -3.370  0.00  0.00    +0.011 A 
ATOM     23  C   UNL     1       0.118  -5.029  -4.390  0.00  0.00    +0.001 A 
ATOM     24  C   UNL     1      -0.061  -4.308  -5.569  0.00  0.00    +0.002 A 
ATOM     25  C   UNL     1      -1.141  -3.498  -5.740  0.00  0.00    +0.028 A 
BRANCH  18  26
ATOM     26  C   UNL     1      -5.194  -1.530  -4.117  0.00  0.00    +0.038 A 
ATOM     27  C   UNL     1      -5.541  -0.844  -5.253  0.00  0.00    +0.017 A 
ATOM     28  C   UNL     1      -6.665  -0.052  -5.229  0.00  0.00    +0.008 A 
ATOM     29  C   UNL     1      -7.396   0.028  -4.086  0.00  0.00    +0.046 A 
ATOM     30  S   UNL     1      -6.492  -1.050  -2.988  0.00  0.00    -0.095 S 
ENDBRANCH  18  26
ENDBRANCH  14  16
BRANCH   1  31
ATOM     31  C   UNL     1      -2.776  -2.577   0.014  0.00  0.00    +0.114 C 
BRANCH  31  32
ATOM     32  C   UNL     1      -1.347  -2.046  -0.116  0.00  0.00    +0.001 C 
BRANCH  32  33
ATOM     33  C   UNL     1      -1.355  -0.522   0.018  0.00  0.00    -0.078 C 
BRANCH  33  35
ATOM     34  C   UNL     1       0.016   1.446   0.018  0.00  0.00    -0.097 C 
ATOM     35  N   UNL     1       0.027  -0.023   0.010  0.00  0.00    +0.376 N 
ATOM     36  C   UNL     1       0.732  -0.514   1.202  0.00  0.00    -0.097 C 
ATOM     37  H   UNL     1       0.498  -0.351  -0.819  0.00  0.00    -0.083 HD
ENDBRANCH  33  35
ENDBRANCH  32  33
ENDBRANCH  31  32
ENDBRANCH   1  31
TORSDOF 6
