REMARK  Name = ZINC20079653
REMARK  9 active torsions:
REMARK  status: ('A' for Active; 'I' for Inactive)
REMARK    1  A    between atoms: C_1  and  C_2
REMARK    2  A    between atoms: C_6  and  N_9
REMARK    3  A    between atoms: C_7  and  C_8
REMARK    4  A    between atoms: N_12  and  C_15
REMARK    5  A    between atoms: C_15  and  C_17
REMARK    6  A    between atoms: C_15  and  C_31
REMARK    7  A    between atoms: C_20  and  C_30
REMARK    8  A    between atoms: C_22  and  C_29
REMARK    9  A    between atoms: N_35  and  C_36
REMARK                            x       y       z     vdW  Elec       q    Type
REMARK                         _______ _______ _______ _____ _____    ______ ____
ROOT
ATOM      1  C   UNL     1      -0.013   1.086   0.008  0.00  0.00    +0.162 C 
ENDROOT
BRANCH   1   2
ATOM      2  C   UNL     1      -0.718   1.572   1.248  0.00  0.00    +0.042 A 
ATOM      3  C   UNL     1      -1.122   0.682   2.188  0.00  0.00    +0.021 A 
ATOM      4  C   UNL     1      -1.805   1.187   3.381  0.00  0.00    +0.002 A 
ATOM      5  C   UNL     1      -2.244   0.317   4.385  0.00  0.00    -0.041 A 
ATOM      6  C   UNL     1      -2.877   0.820   5.486  0.00  0.00    +0.007 A 
ATOM      7  C   UNL     1      -3.089   2.186   5.618  0.00  0.00    -0.048 A 
ATOM      8  C   UNL     1      -2.665   3.060   4.641  0.00  0.00    +0.029 A 
ATOM      9  C   UNL     1      -2.017   2.572   3.511  0.00  0.00    +0.050 A 
ATOM     10  N   UNL     1      -1.581   3.424   2.519  0.00  0.00    -0.322 N 
ATOM     11  H   UNL     1      -1.748   4.507   2.612  0.00  0.00    +0.169 HD
ATOM     12  C   UNL     1      -0.951   2.952   1.429  0.00  0.00    +0.254 A 
ATOM     13  O   UNL     1      -0.575   3.735   0.574  0.00  0.00    -0.268 OA
ATOM     14  C   UNL     1      -3.790   2.717   6.841  0.00  0.00    +0.044 C 
ATOM     15  C   UNL     1      -2.020  -1.167   4.252  0.00  0.00    +0.044 C 
ENDBRANCH   1   2
BRANCH   1  19
ATOM     16  N   UNL     1      -2.194   1.294  -3.604  0.00  0.00    -0.327 N 
ATOM     17  C   UNL     1      -0.784   1.709  -3.626  0.00  0.00    +0.120 C 
ATOM     18  C   UNL     1      -0.062   1.117  -2.413  0.00  0.00    +0.104 C 
ATOM     19  N   UNL     1      -0.723   1.572  -1.182  0.00  0.00    -0.286 NA
ATOM     20  C   UNL     1      -2.133   1.158  -1.160  0.00  0.00    +0.104 C 
ATOM     21  C   UNL     1      -2.855   1.750  -2.373  0.00  0.00    +0.120 C 
BRANCH  16  27
ATOM     22  C   UNL     1      -4.774   0.337  -7.676  0.00  0.00    +0.044 C 
ATOM     23  C   UNL     1      -4.129   1.315  -6.728  0.00  0.00    -0.046 A 
ATOM     24  C   UNL     1      -4.207   2.673  -6.977  0.00  0.00    +0.004 A 
ATOM     25  C   UNL     1      -3.618   3.574  -6.109  0.00  0.00    +0.002 A 
ATOM     26  C   UNL     1      -2.950   3.120  -4.989  0.00  0.00    +0.023 A 
ATOM     27  C   UNL     1      -2.869   1.757  -4.735  0.00  0.00    +0.033 A 
ATOM     28  C   UNL     1      -3.458   0.854  -5.613  0.00  0.00    -0.027 A 
ATOM     29  C   UNL     1      -3.368  -0.626  -5.345  0.00  0.00    +0.046 C 
ENDBRANCH  16  27
ENDBRANCH   1  19
BRANCH   1  30
ATOM     30  C   UNL     1       1.401   1.607  -0.003  0.00  0.00    +0.173 A 
ATOM     31  N   UNL     1       1.781   2.833  -0.271  0.00  0.00    -0.111 NA
ATOM     32  N   UNL     1       3.065   2.881  -0.176  0.00  0.00    -0.023 NA
ATOM     33  N   UNL     1       3.514   1.718   0.146  0.00  0.00    -0.044 NA
ATOM     34  N   UNL     1       2.518   0.907   0.268  0.00  0.00    -0.224 N 
BRANCH  34  35
ATOM     35  C   UNL     1       2.590  -0.511   0.628  0.00  0.00    +0.111 C 
ATOM     36  C   UNL     1       3.230  -0.654   2.011  0.00  0.00    +0.027 C 
ATOM     37  C   UNL     1       3.305  -2.135   2.388  0.00  0.00    +0.002 C 
ATOM     38  C   UNL     1       4.151  -2.882   1.355  0.00  0.00    +0.000 C 
ATOM     39  C   UNL     1       3.511  -2.739  -0.028  0.00  0.00    +0.002 C 
ATOM     40  C   UNL     1       3.436  -1.258  -0.405  0.00  0.00    +0.027 C 
ENDBRANCH  34  35
ENDBRANCH   1  30
TORSDOF 5
