REMARK  Name = ZINC32998677
REMARK  10 active torsions:
REMARK  status: ('A' for Active; 'I' for Inactive)
REMARK    1  A    between atoms: C_1  and  C_2
REMARK    2  A    between atoms: C_5  and  C_7
REMARK    3  A    between atoms: C_7  and  N_8
REMARK    4  A    between atoms: C_9  and  C_11
REMARK    5  A    between atoms: C_13  and  C_21
REMARK    6  A    between atoms: N_24  and  C_27
REMARK    7  A    between atoms: C_25  and  C_26
REMARK    8  A    between atoms: C_30  and  C_33
REMARK    9  A    between atoms: C_33  and  C_34
REMARK   10  A    between atoms: C_33  and  C_35
REMARK                            x       y       z     vdW  Elec       q    Type
REMARK                         _______ _______ _______ _____ _____    ______ ____
ROOT
ATOM      1  C   UNL     1       1.552   5.750   3.096  0.00  0.00    +0.048 A 
ATOM      2  C   UNL     1       1.458   4.853   4.150  0.00  0.00    +0.042 A 
ATOM      3  C   UNL     1       1.783   5.279   5.447  0.00  0.00    +0.076 A 
ATOM      4  N   UNL     1       2.166   6.511   5.708  0.00  0.00    -0.247 NA
ATOM      5  C   UNL     1       2.278   7.439   4.756  0.00  0.00    +0.072 A 
ATOM      6  C   UNL     1       1.980   7.113   3.409  0.00  0.00    +0.013 A 
ATOM      7  C   UNL     1       2.099   8.089   2.414  0.00  0.00    +0.011 A 
ATOM      8  C   UNL     1       2.502   9.348   2.750  0.00  0.00    +0.001 A 
ATOM      9  C   UNL     1       2.796   9.674   4.072  0.00  0.00    +0.002 A 
ATOM     10  C   UNL     1       2.691   8.749   5.064  0.00  0.00    +0.028 A 
ENDROOT
BRANCH   3  11
ATOM     11  C   UNL     1       1.685   4.309   6.564  0.00  0.00    +0.041 A 
ATOM     12  C   UNL     1       1.287   2.960   6.464  0.00  0.00    +0.145 A 
ATOM     13  N   UNL     1       1.331   2.434   7.659  0.00  0.00    -0.174 NA
ATOM     14  N   UNL     1       1.745   3.418   8.565  0.00  0.00    -0.236 N 
ATOM     15  C   UNL     1       1.957   4.561   7.879  0.00  0.00    +0.051 A 
ATOM     16  C   UNL     1       2.412   5.875   8.458  0.00  0.00    +0.066 C 
BRANCH  14  17
ATOM     17  C   UNL     1       1.910   3.247   9.946  0.00  0.00    +0.066 A 
ATOM     18  C   UNL     1       2.502   2.091  10.437  0.00  0.00    +0.028 A 
ATOM     19  C   UNL     1       2.668   1.927  11.799  0.00  0.00    +0.006 A 
ATOM     20  C   UNL     1       2.235   2.907  12.672  0.00  0.00    -0.045 A 
ATOM     21  C   UNL     1       1.640   4.057  12.186  0.00  0.00    +0.006 A 
ATOM     22  C   UNL     1       1.476   4.229  10.826  0.00  0.00    +0.028 A 
BRANCH  20  23
ATOM     23  C   UNL     1       2.412   2.722  14.158  0.00  0.00    +0.013 C 
ATOM     24  C   UNL     1       1.663   1.467  14.608  0.00  0.00    +0.012 C 
ATOM     25  C   UNL     1       3.901   2.570  14.479  0.00  0.00    +0.012 C 
ENDBRANCH  20  23
ENDBRANCH  14  17
ENDBRANCH   3  11
BRANCH   1  27
ATOM     26  N   UNL     1       0.929   4.059   1.436  0.00  0.00    -0.304 N 
ATOM     27  C   UNL     1       1.225   5.345   1.711  0.00  0.00    +0.245 C 
ATOM     28  O   UNL     1       1.224   6.173   0.821  0.00  0.00    -0.270 OA
ATOM     29  H   UNL     1       0.930   3.311   2.242  0.00  0.00    +0.149 HD
BRANCH  26  30
ATOM     30  C   UNL     1       0.606   3.659   0.065  0.00  0.00    +0.179 C 
BRANCH  30  35
ATOM     31  C   UNL     1       1.272  -1.325  -0.333  0.00  0.00    +0.086 C 
ATOM     32  C   UNL     1       0.606   0.013  -0.145  0.00  0.00    +0.102 A 
ATOM     33  C   UNL     1      -0.704   0.214   0.087  0.00  0.00    +0.045 A 
ATOM     34  C   UNL     1      -0.891   1.611   0.199  0.00  0.00    +0.046 A 
ATOM     35  C   UNL     1       0.316   2.181   0.028  0.00  0.00    +0.122 A 
ATOM     36  O   UNL     1       1.218   1.208  -0.179  0.00  0.00    -0.463 OA
ENDBRANCH  30  35
ENDBRANCH  26  30
ENDBRANCH   1  27
TORSDOF 6
