REMARK  Name = ZINC08789594
REMARK  12 active torsions:
REMARK  status: ('A' for Active; 'I' for Inactive)
REMARK    1  A    between atoms: C_1  and  C_2
REMARK    2  A    between atoms: C_2  and  C_4
REMARK    3  A    between atoms: C_8  and  C_40
REMARK    4  A    between atoms: C_17  and  C_39
REMARK    5  A    between atoms: C_20  and  O_35
REMARK    6  A    between atoms: C_22  and  C_33
REMARK    7  A    between atoms: C_22  and  C_34
REMARK    8  A    between atoms: C_27  and  C_32
REMARK    9  A    between atoms: C_28  and  C_31
REMARK   10  A    between atoms: O_35  and  C_36
REMARK   11  A    between atoms: C_36  and  C_38
REMARK   12  A    between atoms: C_40  and  O_41
REMARK                            x       y       z     vdW  Elec       q    Type
REMARK                         _______ _______ _______ _____ _____    ______ ____
ROOT
ATOM      1  C   UNL     1      -8.883  -1.894   1.161  0.00  0.00    +0.018 C 
ATOM      2  C   UNL     1     -10.083  -1.218   1.875  0.00  0.00    +0.009 C 
ATOM      3  C   UNL     1      -9.639   0.244   2.162  0.00  0.00    +0.010 C 
ATOM      4  C   UNL     1      -8.114   0.085   2.302  0.00  0.00    -0.002 C 
ATOM      5  C   UNL     1      -7.808  -0.812   1.074  0.00  0.00    +0.008 C 
ATOM      6  C   UNL     1      -6.364  -1.250   1.138  0.00  0.00    -0.000 C 
ATOM      7  C   UNL     1      -6.017  -2.216   0.005  0.00  0.00    +0.005 C 
ATOM      8  C   UNL     1      -4.544  -2.636   0.107  0.00  0.00    +0.005 C 
ATOM      9  C   UNL     1      -3.662  -1.392   0.058  0.00  0.00    +0.002 C 
ATOM     10  C   UNL     1      -2.180  -1.750  -0.074  0.00  0.00    -0.025 C 
ATOM     11  C   UNL     1      -1.985  -2.457  -1.429  0.00  0.00    +0.011 C 
ATOM     12  C   UNL     1      -0.505  -2.761  -1.636  0.00  0.00    +0.046 C 
ATOM     13  C   UNL     1       0.309  -1.476  -1.682  0.00  0.00    +0.182 C 
ATOM     14  C   UNL     1       0.089  -0.598  -0.451  0.00  0.00    +0.005 C 
ATOM     15  C   UNL     1      -1.375  -0.457  -0.102  0.00  0.00    +0.004 C 
ATOM     16  C   UNL     1      -1.613   0.338   1.180  0.00  0.00    +0.005 C 
ATOM     17  C   UNL     1      -3.085   0.780   1.190  0.00  0.00    +0.008 C 
ATOM     18  C   UNL     1      -3.995  -0.448   1.201  0.00  0.00    -0.023 C 
ATOM     19  C   UNL     1      -5.466  -0.008   1.074  0.00  0.00    -0.023 C 
ATOM     20  C   UNL     1      -5.815   1.003   2.161  0.00  0.00    +0.008 C 
ATOM     21  C   UNL     1      -7.309   1.359   2.166  0.00  0.00    +0.010 C 
ATOM     22  C   UNL     1      -5.663   0.698  -0.273  0.00  0.00    +0.012 C 
ATOM     23  C   UNL     1      -3.838  -1.136   2.566  0.00  0.00    +0.012 C 
ATOM     24  C   UNL     1       0.634   0.806  -0.817  0.00  0.00    +0.015 C 
ATOM     25  C   UNL     1       0.933  -1.111   0.716  0.00  0.00    +0.015 C 
ATOM     26  C   UNL     1      -1.740  -2.711   1.022  0.00  0.00    +0.012 C 
ENDROOT
BRANCH   1  28
ATOM     27  C   UNL     1      -9.820  -1.302  -1.204  0.00  0.00    +0.039 C 
ATOM     28  C   UNL     1      -9.303  -2.323  -0.224  0.00  0.00    -0.076 C 
ATOM     29  C   UNL     1      -9.219  -3.583  -0.573  0.00  0.00    +0.007 C 
ENDBRANCH   1  28
BRANCH  13  30
ATOM     30  O   UNL     1      -0.040  -0.721  -2.876  0.00  0.00    -0.461 OA
BRANCH  30  31
ATOM     31  C   UNL     1       0.622  -1.025  -4.004  0.00  0.00    +0.304 C 
ATOM     32  O   UNL     1       1.464  -1.892  -3.996  0.00  0.00    -0.251 OA
ATOM     33  C   UNL     1       0.315  -0.285  -5.280  0.00  0.00    +0.136 C 
ENDBRANCH  30  31
ENDBRANCH  13  30
BRANCH   4  34
ATOM     34  C   UNL     1      -7.808  -0.618   3.624  0.00  0.00    +0.163 C 
BRANCH  34  35
ATOM     35  O   UNL     1      -8.122   0.255   4.711  0.00  0.00    -0.394 OA
ATOM     36  H   UNL     1      -7.952  -0.126   5.584  0.00  0.00    +0.209 HD
ENDBRANCH  34  35
ENDBRANCH   4  34
TORSDOF 5
