REMARK  Name = ZINC08922412
REMARK  7 active torsions:
REMARK  status: ('A' for Active; 'I' for Inactive)
REMARK    1  A    between atoms: C_1  and  C_2
REMARK    2  A    between atoms: C_2  and  C_35
REMARK    3  A    between atoms: C_6  and  C_28
REMARK    4  A    between atoms: C_13  and  S_17
REMARK    5  A    between atoms: S_17  and  C_18
REMARK    6  A    between atoms: C_18  and  C_19
REMARK    7  A    between atoms: N_21  and  C_22
REMARK                            x       y       z     vdW  Elec       q    Type
REMARK                         _______ _______ _______ _____ _____    ______ ____
ROOT
ATOM      1  C   UNL     1     -11.139  -4.398   0.462  0.00  0.00    +0.041 C 
ATOM      2  C   UNL     1     -11.225  -2.871   0.465  0.00  0.00    +0.068 C 
ATOM      3  C   UNL     1      -9.890  -2.278   0.009  0.00  0.00    +0.070 C 
ATOM      4  C   UNL     1     -10.054  -0.807  -0.261  0.00  0.00    -0.025 A 
ATOM      5  C   UNL     1     -11.277  -0.238  -0.434  0.00  0.00    +0.011 A 
ATOM      6  C   UNL     1     -11.376   1.137  -0.698  0.00  0.00    +0.113 A 
ATOM      7  N   UNL     1     -10.282   1.887  -0.774  0.00  0.00    -0.236 NA
ATOM      8  C   UNL     1      -9.087   1.366  -0.607  0.00  0.00    +0.112 A 
ATOM      9  C   UNL     1      -8.891  -0.002  -0.342  0.00  0.00    +0.037 A 
ATOM     10  C   UNL     1      -7.490  -0.432  -0.180  0.00  0.00    +0.092 A 
ATOM     11  C   UNL     1      -6.522   0.572  -0.307  0.00  0.00    +0.072 A 
ATOM     12  S   UNL     1      -7.447   2.047  -0.635  0.00  0.00    -0.064 S 
ATOM     13  C   UNL     1      -5.171   0.282  -0.174  0.00  0.00    +0.115 A 
ATOM     14  N   UNL     1      -4.817  -0.979   0.074  0.00  0.00    -0.228 NA
ATOM     15  C   UNL     1      -5.742  -1.913   0.195  0.00  0.00    +0.223 A 
ATOM     16  N   UNL     1      -7.024  -1.676   0.076  0.00  0.00    -0.234 NA
ATOM     17  C   UNL     1     -12.543  -1.051  -0.343  0.00  0.00    +0.198 C 
ATOM     18  O   UNL     1     -12.244  -2.443  -0.446  0.00  0.00    -0.369 OA
ATOM     19  C   UNL     1     -11.553  -2.376   1.876  0.00  0.00    +0.041 C 
ENDROOT
BRANCH   6  20
ATOM     20  C   UNL     1     -12.703   1.752  -0.892  0.00  0.00    +0.153 A 
ATOM     21  C   UNL     1     -13.067   3.005  -0.504  0.00  0.00    +0.051 A 
ATOM     22  C   UNL     1     -14.412   3.173  -0.886  0.00  0.00    +0.042 A 
ATOM     23  C   UNL     1     -14.800   2.027  -1.481  0.00  0.00    +0.196 A 
ATOM     24  O   UNL     1     -13.764   1.174  -1.488  0.00  0.00    -0.461 OA
ENDBRANCH   6  20
BRANCH  13  25
ATOM     25  S   UNL     1      -3.955   1.547  -0.334  0.00  0.00    -0.095 S 
BRANCH  25  26
ATOM     26  C   UNL     1      -2.452   0.575  -0.066  0.00  0.00    +0.172 C 
BRANCH  26  27
ATOM     27  C   UNL     1      -1.248   1.475  -0.160  0.00  0.00    +0.227 C 
ATOM     28  O   UNL     1      -1.391   2.658  -0.386  0.00  0.00    -0.275 OA
ATOM     29  N   UNL     1      -0.011   0.966   0.007  0.00  0.00    -0.285 N 
ATOM     30  H   UNL     1       0.110   0.009   0.111  0.00  0.00    +0.155 HD
BRANCH  29  31
ATOM     31  C   UNL     1       1.099   1.817   0.026  0.00  0.00    +0.033 A 
ATOM     32  C   UNL     1       2.318   1.382  -0.478  0.00  0.00    +0.023 A 
ATOM     33  C   UNL     1       3.410   2.227  -0.464  0.00  0.00    +0.002 A 
ATOM     34  C   UNL     1       3.295   3.500   0.063  0.00  0.00    +0.000 A 
ATOM     35  C   UNL     1       2.085   3.934   0.572  0.00  0.00    +0.002 A 
ATOM     36  C   UNL     1       0.987   3.096   0.555  0.00  0.00    +0.023 A 
ENDBRANCH  29  31
ENDBRANCH  26  27
ENDBRANCH  25  26
ENDBRANCH  13  25
TORSDOF 5
