REMARK  Name = ZINC39197252
REMARK  7 active torsions:
REMARK  status: ('A' for Active; 'I' for Inactive)
REMARK    1  A    between atoms: C_1  and  C_2
REMARK    2  A    between atoms: C_2  and  C_3
REMARK    3  A    between atoms: C_8  and  N_9
REMARK    4  A    between atoms: C_10  and  C_29
REMARK    5  A    between atoms: C_12  and  C_14
REMARK    6  A    between atoms: C_19  and  C_22
REMARK    7  A    between atoms: C_19  and  O_28
REMARK                            x       y       z     vdW  Elec       q    Type
REMARK                         _______ _______ _______ _____ _____    ______ ____
ROOT
ATOM      1  N   UNL     1       2.723  -0.746  -0.137  0.00  0.00    -0.231 N 
ATOM      2  C   UNL     1       4.071  -0.520  -0.133  0.00  0.00    +0.075 A 
ATOM      3  C   UNL     1       4.370   0.060   1.069  0.00  0.00    +0.063 A 
ATOM      4  C   UNL     1       3.140   0.160   1.755  0.00  0.00    +0.148 A 
ATOM      5  N   UNL     1       2.207  -0.337   0.966  0.00  0.00    -0.161 NA
ENDROOT
BRANCH   2   6
ATOM      6  C   UNL     1       5.023  -0.843  -1.218  0.00  0.00    +0.002 A 
ATOM      7  C   UNL     1       4.560  -1.035  -2.520  0.00  0.00    +0.014 A 
ATOM      8  C   UNL     1       5.447  -1.335  -3.534  0.00  0.00    +0.048 A 
ATOM      9  C   UNL     1       6.801  -1.446  -3.261  0.00  0.00    +0.142 A 
ATOM     10  C   UNL     1       7.270  -1.255  -1.961  0.00  0.00    +0.076 A 
ATOM     11  C   UNL     1       6.387  -0.949  -0.942  0.00  0.00    +0.037 A 
ATOM     12  N   UNL     1       8.644  -1.373  -1.705  0.00  0.00    -0.280 N 
ATOM     13  C   UNL     1       9.508  -1.351  -2.743  0.00  0.00    +0.255 C 
ATOM     14  O   UNL     1      10.698  -1.482  -2.547  0.00  0.00    -0.272 OA
ATOM     15  C   UNL     1       8.987  -1.165  -4.145  0.00  0.00    +0.325 C 
ATOM     16  O   UNL     1       7.683  -1.740  -4.254  0.00  0.00    -0.481 OA
ATOM     17  H   UNL     1       8.969  -1.469  -0.796  0.00  0.00    +0.155 HD
ENDBRANCH   2   6
BRANCH   4  18
ATOM     18  C   UNL     1       2.935   0.722   3.106  0.00  0.00    +0.267 C 
ATOM     19  O   UNL     1       3.853   1.277   3.679  0.00  0.00    -0.268 OA
ATOM     20  N   UNL     1       1.732   0.619   3.703  0.00  0.00    -0.296 N 
ATOM     21  C   UNL     1       0.654  -0.166   3.084  0.00  0.00    +0.111 C 
ATOM     22  C   UNL     1      -0.592   0.718   2.964  0.00  0.00    +0.058 C 
ATOM     23  C   UNL     1      -0.941   1.290   4.340  0.00  0.00    +0.094 C 
ATOM     24  C   UNL     1       0.217   2.155   4.843  0.00  0.00    +0.058 C 
ATOM     25  C   UNL     1       1.474   1.283   4.987  0.00  0.00    +0.111 C 
BRANCH  23  26
ATOM     26  C   UNL     1      -2.186   2.132   4.232  0.00  0.00    -0.016 A 
ATOM     27  C   UNL     1      -2.476   2.789   3.051  0.00  0.00    +0.006 A 
ATOM     28  C   UNL     1      -3.618   3.562   2.952  0.00  0.00    +0.000 A 
ATOM     29  C   UNL     1      -4.471   3.677   4.034  0.00  0.00    +0.000 A 
ATOM     30  C   UNL     1      -4.181   3.020   5.215  0.00  0.00    +0.000 A 
ATOM     31  C   UNL     1      -3.041   2.244   5.312  0.00  0.00    +0.006 A 
ENDBRANCH  23  26
BRANCH  23  32
ATOM     32  O   UNL     1      -1.169   0.219   5.258  0.00  0.00    -0.384 OA
ATOM     33  H   UNL     1      -1.396   0.509   6.152  0.00  0.00    +0.211 HD
ENDBRANCH  23  32
ENDBRANCH   4  18
BRANCH   1  39
ATOM     34  C   UNL     1       1.122  -0.566  -1.937  0.00  0.00    -0.022 A 
ATOM     35  C   UNL     1       0.424  -1.143  -2.980  0.00  0.00    +0.006 A 
ATOM     36  C   UNL     1       0.603  -2.482  -3.277  0.00  0.00    +0.000 A 
ATOM     37  C   UNL     1       1.483  -3.247  -2.531  0.00  0.00    +0.002 A 
ATOM     38  C   UNL     1       2.184  -2.675  -1.488  0.00  0.00    +0.028 A 
ATOM     39  C   UNL     1       2.010  -1.329  -1.191  0.00  0.00    +0.069 A 
BRANCH  34  41
ATOM     40  C   UNL     1       1.966   1.726  -2.365  0.00  0.00    +0.009 C 
ATOM     41  C   UNL     1       0.925   0.893  -1.614  0.00  0.00    +0.034 C 
ENDBRANCH  34  41
ENDBRANCH   1  39
TORSDOF 6
