REMARK  Name = ZINC59105487
REMARK  10 active torsions:
REMARK  status: ('A' for Active; 'I' for Inactive)
REMARK    1  A    between atoms: C_1  and  C_2
REMARK    2  A    between atoms: C_2  and  O_3
REMARK    3  A    between atoms: O_3  and  C_4
REMARK    4  A    between atoms: C_10  and  C_11
REMARK    5  A    between atoms: N_13  and  C_20
REMARK    6  A    between atoms: C_20  and  C_21
REMARK    7  A    between atoms: C_24  and  C_27
REMARK    8  A    between atoms: N_30  and  C_31
REMARK    9  A    between atoms: C_34  and  O_37
REMARK   10  A    between atoms: O_37  and  C_38
REMARK                            x       y       z     vdW  Elec       q    Type
REMARK                         _______ _______ _______ _____ _____    ______ ____
ROOT
ATOM      1  C   UNL     1       1.565  -1.813   0.937  0.00  0.00    +0.346 C 
ATOM      2  O   UNL     1       1.378  -2.608  -0.132  0.00  0.00    -0.245 OA
ATOM      3  C   UNL     1       2.159  -2.321   2.086  0.00  0.00    +0.139 C 
ATOM      4  C   UNL     1       2.600  -3.719   2.181  0.00  0.00    +0.120 C 
ATOM      5  S   UNL     1       3.276  -3.841   3.824  0.00  0.00    -0.065 S 
ATOM      6  C   UNL     1       3.017  -2.175   4.395  0.00  0.00    +0.062 C 
ATOM      7  C   UNL     1       3.337  -1.645   5.606  0.00  0.00    +0.029 C 
ATOM      8  C   UNL     1       2.386  -1.505   3.255  0.00  0.00    +0.209 C 
ATOM      9  O   UNL     1       2.068  -0.328   3.293  0.00  0.00    -0.286 OA
ATOM     10  N   UNL     1       2.514  -4.663   1.264  0.00  0.00    -0.240 NA
ENDROOT
BRANCH   7  11
ATOM     11  C   UNL     1       3.852  -2.509   6.670  0.00  0.00    +0.001 A 
ATOM     12  C   UNL     1       3.864  -3.875   6.680  0.00  0.00    +0.095 A 
ATOM     13  N   UNL     1       4.421  -4.319   7.837  0.00  0.00    -0.342 N 
ATOM     14  C   UNL     1       4.796  -3.254   8.630  0.00  0.00    +0.050 A 
ATOM     15  C   UNL     1       4.465  -2.076   7.940  0.00  0.00    +0.007 A 
ATOM     16  C   UNL     1       4.738  -0.835   8.507  0.00  0.00    +0.010 A 
ATOM     17  C   UNL     1       5.336  -0.767   9.747  0.00  0.00    +0.001 A 
ATOM     18  C   UNL     1       5.667  -1.929  10.428  0.00  0.00    +0.002 A 
ATOM     19  C   UNL     1       5.396  -3.165   9.882  0.00  0.00    +0.026 A 
BRANCH  13  20
ATOM     20  C   UNL     1       4.598  -5.729   8.193  0.00  0.00    +0.157 C 
BRANCH  20  21
ATOM     21  C   UNL     1       3.434  -6.186   9.034  0.00  0.00    -0.028 A 
ATOM     22  C   UNL     1       3.487  -6.066  10.410  0.00  0.00    +0.005 A 
ATOM     23  C   UNL     1       2.419  -6.484  11.182  0.00  0.00    +0.004 A 
ATOM     24  C   UNL     1       1.298  -7.022  10.577  0.00  0.00    -0.050 A 
ATOM     25  C   UNL     1       1.245  -7.141   9.201  0.00  0.00    +0.004 A 
ATOM     26  C   UNL     1       2.312  -6.719   8.429  0.00  0.00    +0.005 A 
ATOM     27  C   UNL     1       0.135  -7.479  11.418  0.00  0.00    +0.044 C 
ENDBRANCH  20  21
ENDBRANCH  13  20
ENDBRANCH   7  11
BRANCH  10  28
ATOM     28  C   UNL     1       2.982  -5.920   1.531  0.00  0.00    +0.065 A 
ATOM     29  C   UNL     1       4.220  -6.090   2.156  0.00  0.00    +0.031 A 
ATOM     30  C   UNL     1       4.687  -7.359   2.423  0.00  0.00    +0.048 A 
ATOM     31  C   UNL     1       3.929  -8.468   2.073  0.00  0.00    +0.120 A 
ATOM     32  C   UNL     1       2.698  -8.305   1.452  0.00  0.00    +0.048 A 
ATOM     33  C   UNL     1       2.220  -7.040   1.186  0.00  0.00    +0.031 A 
BRANCH  31  34
ATOM     34  O   UNL     1       4.394  -9.718   2.338  0.00  0.00    -0.495 OA
ATOM     35  C   UNL     1       3.563 -10.815   1.951  0.00  0.00    +0.277 C 
ENDBRANCH  31  34
ENDBRANCH  10  28
BRANCH   1  36
ATOM     36  O   UNL     1       1.177  -0.525   0.894  0.00  0.00    -0.461 OA
BRANCH  36  38
ATOM     37  C   UNL     1       0.200   1.407  -0.179  0.00  0.00    +0.048 C 
ATOM     38  C   UNL     1       0.573  -0.070  -0.318  0.00  0.00    +0.229 C 
ENDBRANCH  36  38
ENDBRANCH   1  36
TORSDOF 7
