REMARK  Name = ZINC13330594
REMARK  9 active torsions:
REMARK  status: ('A' for Active; 'I' for Inactive)
REMARK    1  A    between atoms: C_1  and  C_2
REMARK    2  A    between atoms: C_5  and  C_8
REMARK    3  A    between atoms: C_9  and  C_33
REMARK    4  A    between atoms: C_12  and  C_13
REMARK    5  A    between atoms: C_16  and  S_21
REMARK    6  A    between atoms: N_17  and  C_18
REMARK    7  A    between atoms: C_18  and  C_19
REMARK    8  A    between atoms: S_21  and  C_22
REMARK    9  A    between atoms: C_22  and  C_23
REMARK                            x       y       z     vdW  Elec       q    Type
REMARK                         _______ _______ _______ _____ _____    ______ ____
ROOT
ATOM      1  C   UNL     1      -3.396  -0.067  -1.587  0.00  0.00    +0.166 A 
ATOM      2  N   UNL     1      -3.809  -0.035  -2.833  0.00  0.00    -0.128 NA
ATOM      3  N   UNL     1      -3.337   1.003  -3.425  0.00  0.00    -0.122 NA
ATOM      4  C   UNL     1      -2.598   1.701  -2.594  0.00  0.00    +0.193 A 
ATOM      5  N   UNL     1      -2.604   1.042  -1.396  0.00  0.00    -0.298 N 
ENDROOT
BRANCH   1  10
ATOM      6  C   UNL     1      -5.070  -1.585  -0.417  0.00  0.00    +0.003 A 
ATOM      7  C   UNL     1      -5.290  -2.542   0.528  0.00  0.00    -0.005 A 
ATOM      8  S   UNL     1      -3.667  -2.789   1.224  0.00  0.00    -0.101 S 
ATOM      9  C   UNL     1      -2.755  -1.622   0.231  0.00  0.00    +0.057 A 
ATOM     10  C   UNL     1      -3.720  -1.099  -0.581  0.00  0.00    +0.034 A 
ATOM     11  C   UNL     1      -6.584  -3.219   0.898  0.00  0.00    +0.052 C 
BRANCH   6  16
ATOM     12  C   UNL     1      -9.377   0.432  -3.664  0.00  0.00    +0.044 C 
ATOM     13  C   UNL     1      -8.249  -0.096  -2.814  0.00  0.00    -0.050 A 
ATOM     14  C   UNL     1      -7.868  -1.421  -2.922  0.00  0.00    +0.004 A 
ATOM     15  C   UNL     1      -6.837  -1.910  -2.146  0.00  0.00    +0.009 A 
ATOM     16  C   UNL     1      -6.179  -1.066  -1.253  0.00  0.00    -0.016 A 
ATOM     17  C   UNL     1      -6.572   0.267  -1.145  0.00  0.00    +0.009 A 
ATOM     18  C   UNL     1      -7.601   0.747  -1.929  0.00  0.00    +0.004 A 
ENDBRANCH   6  16
ENDBRANCH   1  10
BRANCH   5  19
ATOM     19  C   UNL     1      -1.917   1.437  -0.164  0.00  0.00    +0.152 C 
BRANCH  19  20
ATOM     20  C   UNL     1      -0.494   0.940  -0.201  0.00  0.00    -0.013 C 
ATOM     21  C   UNL     1       0.497   1.781  -0.040  0.00  0.00    +0.005 C 
ENDBRANCH  19  20
ENDBRANCH   5  19
BRANCH   4  22
ATOM     22  S   UNL     1      -1.752   3.204  -2.956  0.00  0.00    -0.077 S 
BRANCH  22  23
ATOM     23  C   UNL     1      -2.221   3.418  -4.691  0.00  0.00    +0.173 C 
BRANCH  23  24
ATOM     24  C   UNL     1      -1.593   4.678  -5.229  0.00  0.00    +0.229 C 
ATOM     25  O   UNL     1      -0.898   5.364  -4.510  0.00  0.00    -0.275 OA
ATOM     26  N   UNL     1      -1.806   5.044  -6.509  0.00  0.00    -0.270 N 
ATOM     27  C   UNL     1      -1.147   6.154  -7.035  0.00  0.00    +0.125 A 
ATOM     28  C   UNL     1      -1.285   6.461  -8.384  0.00  0.00    +0.045 A 
ATOM     29  C   UNL     1      -0.630   7.569  -8.893  0.00  0.00    +0.025 A 
ATOM     30  C   UNL     1       0.153   8.329  -8.033  0.00  0.00    +0.059 A 
ATOM     31  C   UNL     1       0.249   7.962  -6.704  0.00  0.00    +0.132 A 
ATOM     32  N   UNL     1      -0.392   6.903  -6.247  0.00  0.00    -0.239 NA
ATOM     33 CL   UNL     1       1.000   9.725  -8.621  0.00  0.00    -0.082 Cl
ATOM     34  H   UNL     1      -2.417   4.534  -7.064  0.00  0.00    +0.156 HD
ENDBRANCH  23  24
ENDBRANCH  22  23
ENDBRANCH   4  22
TORSDOF 7
