REMARK  Name = ZINC12559601
REMARK  5 active torsions:
REMARK  status: ('A' for Active; 'I' for Inactive)
REMARK    1  A    between atoms: C_4  and  C_7
REMARK    2  A    between atoms: C_8  and  C_18
REMARK    3  A    between atoms: N_10  and  C_12
REMARK    4  A    between atoms: C_20  and  C_32
REMARK    5  A    between atoms: C_21  and  C_26
REMARK                            x       y       z     vdW  Elec       q    Type
REMARK                         _______ _______ _______ _____ _____    ______ ____
ROOT
ATOM      1  C   UNL     1       3.230  -2.842   1.436  0.00  0.00    +0.144 C 
ATOM      2  C   UNL     1       2.494  -3.820   0.543  0.00  0.00    +0.041 C 
ATOM      3  C   UNL     1       2.604  -5.144   0.831  0.00  0.00    +0.051 C 
ATOM      4  N   UNL     1       3.365  -5.573   1.903  0.00  0.00    -0.268 N 
ATOM      5  C   UNL     1       4.030  -4.742   2.715  0.00  0.00    +0.305 C 
ATOM      6  O   UNL     1       4.674  -5.210   3.633  0.00  0.00    -0.252 OA
ATOM      7  N   UNL     1       4.011  -3.406   2.548  0.00  0.00    -0.288 N 
ATOM      8  H   UNL     1       3.419  -6.526   2.075  0.00  0.00    +0.156 HD
ATOM      9  H   UNL     1       4.503  -2.827   3.151  0.00  0.00    +0.151 HD
ENDROOT
BRANCH   2  10
ATOM     10  C   UNL     1       1.691  -3.356  -0.587  0.00  0.00    +0.139 A 
ATOM     11  N   UNL     1       0.672  -2.439  -0.510  0.00  0.00    -0.338 N 
ATOM     12  H   UNL     1       0.359  -1.990   0.291  0.00  0.00    +0.167 HD
ATOM     13  C   UNL     1       0.174  -2.275  -1.791  0.00  0.00    +0.066 A 
ATOM     14  C   UNL     1      -0.839  -1.499  -2.334  0.00  0.00    +0.028 A 
ATOM     15  C   UNL     1      -1.101  -1.560  -3.688  0.00  0.00    +0.002 A 
ATOM     16  C   UNL     1      -0.357  -2.393  -4.511  0.00  0.00    +0.002 A 
ATOM     17  C   UNL     1       0.652  -3.171  -3.990  0.00  0.00    +0.030 A 
ATOM     18  C   UNL     1       0.931  -3.122  -2.620  0.00  0.00    +0.089 A 
ATOM     19  N   UNL     1       1.840  -3.748  -1.835  0.00  0.00    -0.228 NA
ENDBRANCH   2  10
BRANCH   3  20
ATOM     20  C   UNL     1       1.904  -6.134  -0.012  0.00  0.00    -0.003 A 
ATOM     21  C   UNL     1       2.588  -7.252  -0.495  0.00  0.00    +0.010 A 
ATOM     22  C   UNL     1       1.927  -8.174  -1.281  0.00  0.00    +0.001 A 
ATOM     23  C   UNL     1       0.591  -7.993  -1.590  0.00  0.00    +0.000 A 
ATOM     24  C   UNL     1      -0.092  -6.887  -1.115  0.00  0.00    +0.001 A 
ATOM     25  C   UNL     1       0.554  -5.961  -0.323  0.00  0.00    +0.010 A 
ENDBRANCH   3  20
BRANCH   1  27
ATOM     26  C   UNL     1       4.670  -0.756   0.860  0.00  0.00    +0.098 A 
ATOM     27  C   UNL     1       4.168  -2.040   0.570  0.00  0.00    +0.023 A 
ATOM     28  C   UNL     1       4.676  -2.426  -0.620  0.00  0.00    +0.121 A 
ATOM     29  N   UNL     1       5.475  -1.426  -1.076  0.00  0.00    -0.239 N 
ATOM     30  N   UNL     1       5.451  -0.389  -0.135  0.00  0.00    -0.166 NA
BRANCH  26  34
ATOM     31  C   UNL     1       3.803   1.540   4.332  0.00  0.00    +0.000 A 
ATOM     32  C   UNL     1       5.101   1.469   3.860  0.00  0.00    +0.001 A 
ATOM     33  C   UNL     1       5.388   0.725   2.733  0.00  0.00    +0.010 A 
ATOM     34  C   UNL     1       4.368   0.045   2.072  0.00  0.00    +0.002 A 
ATOM     35  C   UNL     1       3.062   0.120   2.552  0.00  0.00    +0.010 A 
ATOM     36  C   UNL     1       2.786   0.867   3.679  0.00  0.00    +0.001 A 
ENDBRANCH  26  34
BRANCH  29  37
ATOM     37  C   UNL     1       6.193  -1.429  -2.280  0.00  0.00    +0.065 A 
ATOM     38  C   UNL     1       6.119  -2.523  -3.131  0.00  0.00    +0.028 A 
ATOM     39  C   UNL     1       6.827  -2.523  -4.317  0.00  0.00    +0.002 A 
ATOM     40  C   UNL     1       7.610  -1.435  -4.656  0.00  0.00    +0.000 A 
ATOM     41  C   UNL     1       7.686  -0.344  -3.810  0.00  0.00    +0.002 A 
ATOM     42  C   UNL     1       6.975  -0.335  -2.626  0.00  0.00    +0.028 A 
ENDBRANCH  29  37
ENDBRANCH   1  27
TORSDOF 5
