REMARK  Name = ZINC39383593
REMARK  6 active torsions:
REMARK  status: ('A' for Active; 'I' for Inactive)
REMARK    1  A    between atoms: C_7  and  C_12
REMARK    2  A    between atoms: C_12  and  C_13
REMARK    3  A    between atoms: N_15  and  N_16
REMARK    4  A    between atoms: C_17  and  C_18
REMARK    5  A    between atoms: C_21  and  C_23
REMARK    6  A    between atoms: C_26  and  N_30
REMARK                            x       y       z     vdW  Elec       q    Type
REMARK                         _______ _______ _______ _____ _____    ______ ____
ROOT
ATOM      1  N   UNL     1      -2.044  -3.886  -2.870  0.00  0.00    -0.185 NA
ATOM      2  C   UNL     1      -3.157  -4.570  -3.104  0.00  0.00    +0.176 C 
ENDROOT
BRANCH   2   3
ATOM      3  C   UNL     1      -3.621  -4.716  -4.405  0.00  0.00    +0.148 A 
ATOM      4  C   UNL     1      -4.836  -5.437  -4.810  0.00  0.00    +0.051 A 
ATOM      5  C   UNL     1      -4.917  -5.335  -6.161  0.00  0.00    +0.050 A 
ATOM      6  C   UNL     1      -3.759  -4.555  -6.597  0.00  0.00    +0.137 A 
ATOM      7  O   UNL     1      -3.038  -4.215  -5.514  0.00  0.00    -0.454 OA
BRANCH   6   8
ATOM      8  C   UNL     1      -3.452  -4.210  -7.935  0.00  0.00    +0.036 A 
ATOM      9  C   UNL     1      -3.448  -5.198  -8.940  0.00  0.00    +0.015 A 
ATOM     10  C   UNL     1      -3.151  -4.857 -10.227  0.00  0.00    +0.033 A 
ATOM     11  C   UNL     1      -2.852  -3.542 -10.555  0.00  0.00    +0.128 A 
ATOM     12  C   UNL     1      -2.851  -2.556  -9.581  0.00  0.00    +0.053 A 
ATOM     13  C   UNL     1      -3.153  -2.874  -8.274  0.00  0.00    +0.054 A 
ATOM     14 CL   UNL     1      -3.159  -1.641  -7.053  0.00  0.00    -0.083 Cl
BRANCH  11  15
ATOM     15  N   UNL     1      -2.532  -3.189 -11.957  0.00  0.00    +0.056 N 
ATOM     16  O   UNL     1      -2.531  -4.122 -12.887  0.00  0.00    -0.126 OA
ATOM     17  O   UNL     1      -2.247  -1.943 -12.274  0.00  0.00    -0.126 OA
ENDBRANCH  11  15
ENDBRANCH   6   8
ENDBRANCH   2   3
BRANCH   1  20
ATOM     18  C   UNL     1      -0.482  -3.057  -1.424  0.00  0.00    +0.237 C 
ATOM     19  O   UNL     1       0.128  -2.562  -2.343  0.00  0.00    -0.274 OA
ATOM     20  N   UNL     1      -1.613  -3.751  -1.662  0.00  0.00    -0.207 N 
ATOM     21  H   UNL     1      -2.102  -4.148  -0.925  0.00  0.00    +0.177 HD
BRANCH  18  22
ATOM     22  C   UNL     1       0.022  -2.898  -0.013  0.00  0.00    +0.133 C 
BRANCH  22  29
ATOM     23  C   UNL     1      -0.016   1.357   0.009  0.00  0.00    +0.001 A 
ATOM     24  C   UNL     1       1.169   2.091   0.002  0.00  0.00    +0.001 A 
ATOM     25  C   UNL     1       2.378   1.468  -0.013  0.00  0.00    +0.009 A 
ATOM     26  C   UNL     1       2.438   0.064  -0.021  0.00  0.00    -0.004 A 
ATOM     27  C   UNL     1       1.233  -0.683  -0.013  0.00  0.00    -0.013 A 
ATOM     28  C   UNL     1       0.002  -0.004   0.002  0.00  0.00    +0.009 A 
ATOM     29  C   UNL     1       1.292  -2.087  -0.021  0.00  0.00    -0.031 A 
ATOM     30  C   UNL     1       2.502  -2.710  -0.036  0.00  0.00    +0.006 A 
ATOM     31  C   UNL     1       3.687  -1.977  -0.043  0.00  0.00    +0.016 A 
ATOM     32  C   UNL     1       3.669  -0.615  -0.036  0.00  0.00    +0.026 A 
ATOM     33 BR   UNL     1       5.290   0.357  -0.046  0.00  0.00    -0.050 Br
ENDBRANCH  22  29
ENDBRANCH  18  22
ENDBRANCH   1  20
TORSDOF 6
