REMARK  Name = ZINC12589971
REMARK  5 active torsions:
REMARK  status: ('A' for Active; 'I' for Inactive)
REMARK    1  A    between atoms: C_3  and  C_9
REMARK    2  A    between atoms: C_9  and  N_59
REMARK    3  A    between atoms: C_15  and  C_17
REMARK    4  A    between atoms: C_17  and  C_18
REMARK    5  A    between atoms: N_20  and  C_21
REMARK                            x       y       z     vdW  Elec       q    Type
REMARK                         _______ _______ _______ _____ _____    ______ ____
ROOT
ATOM      1  C   UNL     1      -0.230   1.298   7.259  0.00  0.00    -0.058 C 
ATOM      2  C   UNL     1       1.249   1.623   7.043  0.00  0.00    +0.085 C 
ATOM      3  N   UNL     1       1.395   2.993   6.561  0.00  0.00    -0.318 N 
ATOM      4  C   UNL     1       0.386   3.686   6.023  0.00  0.00    +0.200 C 
ATOM      5  O   UNL     1       0.603   4.809   5.620  0.00  0.00    -0.278 OA
ATOM      6  C   UNL     1      -1.004   3.132   5.898  0.00  0.00    +0.028 C 
ATOM      7  H   UNL     1       2.263   3.420   6.635  0.00  0.00    +0.149 HD
ATOM      8  N   UNL     1      -0.963   1.663   6.030  0.00  0.00    +0.391 N 
ATOM      9  H   UNL     1      -0.475   1.266   5.219  0.00  0.00    -0.080 HD
ENDROOT
BRANCH   8  10
ATOM     10  C   UNL     1      -2.339   1.119   6.078  0.00  0.00    -0.040 C 
BRANCH  10  13
ATOM     11  C   UNL     1      -2.541  -2.247   7.775  0.00  0.00    +0.038 A 
ATOM     12  C   UNL     1      -2.600  -0.883   7.556  0.00  0.00    +0.006 A 
ATOM     13  C   UNL     1      -2.274  -0.367   6.316  0.00  0.00    -0.045 A 
ATOM     14  C   UNL     1      -1.893  -1.215   5.291  0.00  0.00    +0.045 A 
ATOM     15  C   UNL     1      -1.827  -2.579   5.511  0.00  0.00    +0.058 A 
ATOM     16  C   UNL     1      -2.154  -3.096   6.753  0.00  0.00    +0.125 A 
ATOM     17  F   UNL     1      -2.096  -4.429   6.966  0.00  0.00    -0.205 F 
ATOM     18 CL   UNL     1      -1.490  -0.567   3.732  0.00  0.00    -0.083 Cl
ENDBRANCH  10  13
ENDBRANCH   8  10
BRANCH   6  19
ATOM     19  C   UNL     1      -1.572   3.491   4.523  0.00  0.00    +0.089 C 
BRANCH  19  20
ATOM     20  C   UNL     1      -0.687   2.914   3.448  0.00  0.00    +0.212 C 
ATOM     21  O   UNL     1       0.265   2.228   3.750  0.00  0.00    -0.276 OA
ATOM     22  N   UNL     1      -0.955   3.162   2.150  0.00  0.00    -0.310 N 
ATOM     23  H   UNL     1      -1.717   3.712   1.909  0.00  0.00    +0.149 HD
BRANCH  22  24
ATOM     24  C   UNL     1      -0.095   2.602   1.105  0.00  0.00    +0.035 C 
ATOM     25  C   UNL     1      -0.106   1.075   1.200  0.00  0.00    +0.029 C 
ATOM     26  C   UNL     1       0.792   0.490   0.108  0.00  0.00    -0.008 C 
ATOM     27  C   UNL     1       0.273   0.920  -1.265  0.00  0.00    +0.007 C 
ATOM     28  C   UNL     1       0.284   2.447  -1.360  0.00  0.00    -0.008 C 
ATOM     29  C   UNL     1      -0.615   3.032  -0.268  0.00  0.00    +0.029 C 
ATOM     30  C   UNL     1       1.713   2.959  -1.173  0.00  0.00    +0.007 C 
ATOM     31  C   UNL     1       2.233   2.529   0.201  0.00  0.00    -0.008 C 
ATOM     32  C   UNL     1       2.222   1.002   0.295  0.00  0.00    +0.007 C 
ATOM     33  C   UNL     1       1.335   3.114   1.292  0.00  0.00    +0.029 C 
ENDBRANCH  22  24
ENDBRANCH  19  20
ENDBRANCH   6  19
TORSDOF 5
