REMARK  Name = ZINC03772450
REMARK  6 active torsions:
REMARK  status: ('A' for Active; 'I' for Inactive)
REMARK    1  A    between atoms: C_4  and  C_30
REMARK    2  A    between atoms: C_5  and  C_7
REMARK    3  A    between atoms: C_7  and  N_8
REMARK    4  A    between atoms: C_10  and  C_17
REMARK    5  A    between atoms: N_18  and  C_19
REMARK    6  A    between atoms: C_20  and  C_28
REMARK                            x       y       z     vdW  Elec       q    Type
REMARK                         _______ _______ _______ _____ _____    ______ ____
ROOT
ATOM      1  N   UNL     1       1.363  -2.682   1.350  0.00  0.00    -0.342 N 
ATOM      2  C   UNL     1       2.541  -3.015   1.936  0.00  0.00    +0.096 A 
ATOM      3  C   UNL     1       2.315  -3.438   3.216  0.00  0.00    +0.018 A 
ATOM      4  C   UNL     1       0.858  -3.354   3.432  0.00  0.00    +0.008 A 
ATOM      5  C   UNL     1       0.317  -2.869   2.230  0.00  0.00    +0.050 A 
ATOM      6  C   UNL     1      -1.057  -2.677   2.129  0.00  0.00    +0.026 A 
ATOM      7  C   UNL     1      -1.872  -2.959   3.204  0.00  0.00    +0.002 A 
ATOM      8  C   UNL     1      -1.335  -3.434   4.392  0.00  0.00    +0.001 A 
ATOM      9  C   UNL     1       0.022  -3.639   4.509  0.00  0.00    +0.010 A 
ENDROOT
BRANCH   3  10
ATOM     10  C   UNL     1       3.319  -3.884   4.181  0.00  0.00    +0.122 C 
ATOM     11  N   UNL     1       2.952  -4.263   5.381  0.00  0.00    -0.246 NA
BRANCH  11  12
ATOM     12  C   UNL     1       3.879  -4.675   6.272  0.00  0.00    +0.119 A 
ATOM     13  C   UNL     1       3.703  -5.122   7.587  0.00  0.00    +0.088 A 
ATOM     14  C   UNL     1       4.840  -5.502   8.325  0.00  0.00    -0.018 A 
ATOM     15  C   UNL     1       6.038  -5.406   7.699  0.00  0.00    -0.004 A 
ATOM     16  S   UNL     1       5.650  -4.801   6.079  0.00  0.00    -0.073 S 
ATOM     17  C   UNL     1       7.385  -5.743   8.258  0.00  0.00    +0.043 C 
ATOM     18  C   UNL     1       7.259  -5.871   9.783  0.00  0.00    +0.005 C 
ATOM     19  C   UNL     1       6.047  -6.751  10.103  0.00  0.00    +0.005 C 
ATOM     20  C   UNL     1       4.757  -6.003   9.765  0.00  0.00    +0.037 C 
BRANCH  13  21
ATOM     21  C   UNL     1       2.396  -5.190   8.168  0.00  0.00    +0.102 C 
ATOM     22  N   UNL     1       1.359  -5.244   8.629  0.00  0.00    -0.191 NA
ENDBRANCH  13  21
ENDBRANCH  11  12
ENDBRANCH   3  10
BRANCH   1  23
ATOM     23  C   UNL     1       1.223  -2.188  -0.022  0.00  0.00    +0.158 C 
BRANCH  23  28
ATOM     24  C   UNL     1      -0.017   1.379   0.010  0.00  0.00    +0.000 A 
ATOM     25  C   UNL     1       1.168   2.094   0.002  0.00  0.00    +0.001 A 
ATOM     26  C   UNL     1       2.377   1.430  -0.013  0.00  0.00    +0.019 A 
ATOM     27  C   UNL     1       2.404   0.034  -0.021  0.00  0.00    +0.057 A 
ATOM     28  C   UNL     1       1.204  -0.681  -0.013  0.00  0.00    -0.010 A 
ATOM     29  C   UNL     1       0.002  -0.004   0.002  0.00  0.00    +0.006 A 
BRANCH  27  30
ATOM     30  C   UNL     1       3.655  -0.662  -0.038  0.00  0.00    +0.099 C 
ATOM     31  N   UNL     1       4.648  -1.214  -0.051  0.00  0.00    -0.191 NA
ENDBRANCH  27  30
ENDBRANCH  23  28
ENDBRANCH   1  23
TORSDOF 6
