REMARK  Name = ZINC16361953
REMARK  6 active torsions:
REMARK  status: ('A' for Active; 'I' for Inactive)
REMARK    1  A    between atoms: C_1  and  C_2
REMARK    2  A    between atoms: C_3  and  C_22
REMARK    3  A    between atoms: C_4  and  C_10
REMARK    4  A    between atoms: C_15  and  O_16
REMARK    5  A    between atoms: O_16  and  C_17
REMARK    6  A    between atoms: N_24  and  C_25
REMARK                            x       y       z     vdW  Elec       q    Type
REMARK                         _______ _______ _______ _____ _____    ______ ____
ROOT
ATOM      1  C   UNL     1      -5.591   1.760  -2.543  0.00  0.00    +0.061 C 
ATOM      2  C   UNL     1      -4.390   2.427  -3.164  0.00  0.00    +0.019 C 
ATOM      3  C   UNL     1      -3.153   2.083  -2.750  0.00  0.00    +0.056 C 
ATOM      4  C   UNL     1      -1.973   2.776  -3.401  0.00  0.00    +0.145 C 
ATOM      5  N   UNL     1      -2.276   3.777  -4.438  0.00  0.00    -0.288 N 
ATOM      6  C   UNL     1      -3.567   4.014  -4.743  0.00  0.00    +0.304 C 
ATOM      7  O   UNL     1      -3.828   4.838  -5.598  0.00  0.00    -0.252 OA
ATOM      8  N   UNL     1      -4.572   3.370  -4.136  0.00  0.00    -0.273 N 
ATOM      9  H   UNL     1      -1.563   4.255  -4.890  0.00  0.00    +0.151 HD
ATOM     10  H   UNL     1      -5.480   3.585  -4.401  0.00  0.00    +0.156 HD
ENDROOT
BRANCH   4  11
ATOM     11  C   UNL     1      -1.179   3.457  -2.316  0.00  0.00    +0.019 A 
ATOM     12  C   UNL     1      -1.812   3.906  -1.173  0.00  0.00    +0.009 A 
ATOM     13  C   UNL     1      -1.084   4.530  -0.177  0.00  0.00    +0.001 A 
ATOM     14  C   UNL     1       0.279   4.708  -0.323  0.00  0.00    +0.004 A 
ATOM     15  C   UNL     1       0.918   4.256  -1.461  0.00  0.00    +0.046 A 
ATOM     16  C   UNL     1       0.189   3.634  -2.464  0.00  0.00    +0.126 A 
BRANCH  16  17
ATOM     17  O   UNL     1       0.815   3.194  -3.587  0.00  0.00    -0.488 OA
BRANCH  17  18
ATOM     18  C   UNL     1       2.240   3.289  -3.616  0.00  0.00    +0.173 C 
ATOM     19  C   UNL     1       2.667   4.668  -4.161  0.00  0.00    +0.044 C 
ATOM     20  C   UNL     1       3.928   4.367  -5.008  0.00  0.00    +0.004 C 
ATOM     21  C   UNL     1       3.578   3.013  -5.674  0.00  0.00    +0.004 C 
ATOM     22  C   UNL     1       2.820   2.237  -4.578  0.00  0.00    +0.044 C 
ENDBRANCH  17  18
ENDBRANCH  16  17
ENDBRANCH   4  11
BRANCH   3  23
ATOM     23  C   UNL     1      -2.963   1.105  -1.743  0.00  0.00    +0.248 C 
ATOM     24  O   UNL     1      -3.924   0.638  -1.159  0.00  0.00    -0.270 OA
ATOM     25  N   UNL     1      -1.718   0.692  -1.431  0.00  0.00    -0.282 N 
ATOM     26  H   UNL     1      -0.949   1.116  -1.842  0.00  0.00    +0.155 HD
BRANCH  25  27
ATOM     27  C   UNL     1      -1.537  -0.349  -0.514  0.00  0.00    +0.035 A 
ATOM     28  C   UNL     1      -0.485  -0.302   0.392  0.00  0.00    +0.023 A 
ATOM     29  C   UNL     1      -0.307  -1.331   1.296  0.00  0.00    +0.003 A 
ATOM     30  C   UNL     1      -1.176  -2.407   1.301  0.00  0.00    +0.020 A 
ATOM     31  C   UNL     1      -2.225  -2.457   0.400  0.00  0.00    +0.043 A 
ATOM     32  C   UNL     1      -2.410  -1.428  -0.505  0.00  0.00    +0.043 A 
ATOM     33 CL   UNL     1      -3.313  -3.809   0.410  0.00  0.00    -0.083 Cl
ENDBRANCH  25  27
ENDBRANCH   3  23
TORSDOF 5
