REMARK  Name = ZINC63363057
REMARK  6 active torsions:
REMARK  status: ('A' for Active; 'I' for Inactive)
REMARK    1  A    between atoms: C_1  and  C_2
REMARK    2  A    between atoms: C_2  and  C_3
REMARK    3  A    between atoms: C_6  and  C_9
REMARK    4  A    between atoms: N_16  and  C_31
REMARK    5  A    between atoms: C_19  and  C_30
REMARK    6  A    between atoms: C_31  and  C_32
REMARK                            x       y       z     vdW  Elec       q    Type
REMARK                         _______ _______ _______ _____ _____    ______ ____
ROOT
ATOM      1  C   UNL     1      -5.561  -2.337   0.075  0.00  0.00    +0.065 C 
ATOM      2  C   UNL     1      -6.310  -1.170  -0.574  0.00  0.00    +0.121 C 
ATOM      3  N   UNL     1      -6.354  -1.243  -2.023  0.00  0.00    -0.283 N 
ATOM      4  C   UNL     1      -6.725  -0.102  -2.694  0.00  0.00    +0.234 C 
ATOM      5  O   UNL     1      -6.871   0.955  -2.118  0.00  0.00    -0.274 OA
ATOM      6  C   UNL     1      -6.942  -0.227  -4.187  0.00  0.00    +0.204 C 
ATOM      7  N   UNL     1      -7.704  -1.463  -4.449  0.00  0.00    -0.286 N 
ATOM      8  C   UNL     1      -7.277  -2.591  -3.803  0.00  0.00    +0.242 C 
ATOM      9  O   UNL     1      -7.801  -3.671  -3.970  0.00  0.00    -0.273 OA
ATOM     10  C   UNL     1      -6.109  -2.396  -2.871  0.00  0.00    +0.135 C 
ATOM     11  C   UNL     1      -5.647  -3.653  -2.203  0.00  0.00    +0.139 C 
ATOM     12  C   UNL     1      -5.940  -3.568  -0.711  0.00  0.00    -0.027 C 
ATOM     13  C   UNL     1      -6.546  -4.697  -0.378  0.00  0.00    -0.000 A 
ATOM     14  C   UNL     1      -6.980  -5.236   0.922  0.00  0.00    +0.010 A 
ATOM     15  C   UNL     1      -7.605  -6.442   0.893  0.00  0.00    +0.001 A 
ATOM     16  C   UNL     1      -7.840  -7.159  -0.284  0.00  0.00    +0.002 A 
ATOM     17  C   UNL     1      -7.468  -6.744  -1.522  0.00  0.00    +0.026 A 
ATOM     18  C   UNL     1      -6.794  -5.493  -1.619  0.00  0.00    +0.043 A 
ATOM     19  N   UNL     1      -6.323  -4.869  -2.653  0.00  0.00    -0.375 N 
ATOM     20  C   UNL     1      -4.944  -1.989  -3.776  0.00  0.00    +0.044 C 
ATOM     21  H   UNL     1      -6.404  -5.167  -3.572  0.00  0.00    +0.160 HD
ENDROOT
BRANCH   1  25
ATOM     22  C   UNL     1      -1.345  -1.689  -0.157  0.00  0.00    -0.048 A 
ATOM     23  C   UNL     1      -1.878  -2.402   0.901  0.00  0.00    +0.004 A 
ATOM     24  C   UNL     1      -3.242  -2.612   0.976  0.00  0.00    +0.004 A 
ATOM     25  C   UNL     1      -4.074  -2.108  -0.007  0.00  0.00    -0.039 A 
ATOM     26  C   UNL     1      -3.541  -1.394  -1.064  0.00  0.00    +0.004 A 
ATOM     27  C   UNL     1      -2.178  -1.181  -1.137  0.00  0.00    +0.004 A 
BRANCH  22  29
ATOM     28  C   UNL     1       0.500  -0.164   0.490  0.00  0.00    +0.009 C 
ATOM     29  C   UNL     1       0.142  -1.460  -0.239  0.00  0.00    +0.032 C 
ENDBRANCH  22  29
ENDBRANCH   1  25
BRANCH   7  30
ATOM     30  C   UNL     1      -8.857  -1.482  -5.352  0.00  0.00    +0.145 C 
BRANCH  30  31
ATOM     31  C   UNL     1     -10.125  -1.346  -4.550  0.00  0.00    -0.012 A 
ATOM     32  C   UNL     1     -10.857  -2.470  -4.217  0.00  0.00    +0.006 A 
ATOM     33  C   UNL     1     -12.020  -2.345  -3.481  0.00  0.00    +0.000 A 
ATOM     34  C   UNL     1     -12.453  -1.096  -3.078  0.00  0.00    +0.001 A 
ATOM     35  C   UNL     1     -11.723   0.029  -3.410  0.00  0.00    +0.020 A 
ATOM     36  C   UNL     1     -10.555  -0.096  -4.142  0.00  0.00    +0.046 A 
ATOM     37 CL   UNL     1      -9.634   1.317  -4.554  0.00  0.00    -0.083 Cl
ENDBRANCH  30  31
ENDBRANCH   7  30
TORSDOF 4
