REMARK  Name = ZINC09080895
REMARK  10 active torsions:
REMARK  status: ('A' for Active; 'I' for Inactive)
REMARK    1  A    between atoms: C_1  and  N_2
REMARK    2  A    between atoms: N_2  and  C_3
REMARK    3  A    between atoms: N_2  and  C_4
REMARK    4  A    between atoms: C_7  and  C_10
REMARK    5  A    between atoms: C_10  and  C_12
REMARK    6  A    between atoms: C_10  and  S_25
REMARK    7  A    between atoms: C_12  and  N_13
REMARK    8  A    between atoms: C_14  and  C_16
REMARK    9  A    between atoms: C_17  and  C_18
REMARK   10  A    between atoms: S_25  and  C_28
REMARK                            x       y       z     vdW  Elec       q    Type
REMARK                         _______ _______ _______ _____ _____    ______ ____
ROOT
ATOM      1  C   UNL     1      -0.013   1.086   0.008  0.00  0.00    +0.183 C 
ENDROOT
BRANCH   1   5
ATOM      2  C   UNL     1       3.997   2.565  -0.022  0.00  0.00    +0.029 A 
ATOM      3  C   UNL     1       3.760   1.196  -0.027  0.00  0.00    +0.023 A 
ATOM      4  C   UNL     1       2.463   0.722  -0.018  0.00  0.00    +0.007 A 
ATOM      5  C   UNL     1       1.401   1.607  -0.003  0.00  0.00    -0.021 A 
ATOM      6  C   UNL     1       1.633   2.971  -0.003  0.00  0.00    +0.007 A 
ATOM      7  C   UNL     1       2.928   3.452  -0.007  0.00  0.00    +0.023 A 
BRANCH   2   9
ATOM      8  C   UNL     1       6.434   2.112  -0.049  0.00  0.00    +0.129 C 
ATOM      9  N   UNL     1       5.307   3.049  -0.033  0.00  0.00    -0.336 N 
ATOM     10  C   UNL     1       5.556   4.492  -0.027  0.00  0.00    +0.129 C 
ENDBRANCH   2   9
ENDBRANCH   1   5
BRANCH   1  11
ATOM     11  S   UNL     1      -0.890   1.687  -1.462  0.00  0.00    +0.005 S 
ATOM     12  O   UNL     1      -0.143   1.390  -2.633  0.00  0.00    -0.169 OA
ATOM     13  O   UNL     1      -2.269   1.354  -1.378  0.00  0.00    -0.169 OA
BRANCH  11  14
ATOM     14  C   UNL     1      -0.842   3.443  -1.331  0.00  0.00    +0.089 A 
ATOM     15  C   UNL     1      -1.858   4.115  -0.676  0.00  0.00    +0.028 A 
ATOM     16  C   UNL     1      -1.818   5.492  -0.568  0.00  0.00    +0.022 A 
ATOM     17  C   UNL     1      -0.767   6.200  -1.125  0.00  0.00    +0.041 A 
ATOM     18  C   UNL     1       0.245   5.527  -1.786  0.00  0.00    +0.022 A 
ATOM     19  C   UNL     1       0.207   4.149  -1.888  0.00  0.00    +0.028 A 
ATOM     20 CL   UNL     1      -0.720   7.930  -0.996  0.00  0.00    -0.084 Cl
ENDBRANCH  11  14
ENDBRANCH   1  11
BRANCH   1  21
ATOM     21  C   UNL     1      -0.729   1.579   1.267  0.00  0.00    +0.135 C 
BRANCH  21  22
ATOM     22  N   UNL     1      -2.103   1.072   1.277  0.00  0.00    -0.310 N 
ATOM     23  C   UNL     1      -2.928   1.381   2.298  0.00  0.00    +0.237 C 
ATOM     24  O   UNL     1      -2.531   2.081   3.210  0.00  0.00    -0.271 OA
ATOM     25  H   UNL     1      -2.420   0.514   0.550  0.00  0.00    +0.149 HD
BRANCH  23  26
ATOM     26  C   UNL     1      -4.301   0.874   2.308  0.00  0.00    +0.068 C 
ATOM     27  C   UNL     1      -5.126   1.183   3.329  0.00  0.00    +0.013 C 
BRANCH  27  28
ATOM     28  C   UNL     1      -6.507   0.674   3.339  0.00  0.00    -0.025 A 
ATOM     29  C   UNL     1      -6.968  -0.126   2.289  0.00  0.00    +0.009 A 
ATOM     30  C   UNL     1      -8.261  -0.604   2.308  0.00  0.00    +0.020 A 
ATOM     31  C   UNL     1      -9.106  -0.285   3.359  0.00  0.00    +0.041 A 
ATOM     32  C   UNL     1      -8.657   0.512   4.400  0.00  0.00    +0.020 A 
ATOM     33  C   UNL     1      -7.365   0.992   4.397  0.00  0.00    +0.009 A 
ATOM     34 CL   UNL     1     -10.734  -0.886   3.372  0.00  0.00    -0.084 Cl
ENDBRANCH  27  28
ENDBRANCH  23  26
ENDBRANCH  21  22
ENDBRANCH   1  21
TORSDOF 8
