REMARK  Name = ZINC09050232
REMARK  14 active torsions:
REMARK  status: ('A' for Active; 'I' for Inactive)
REMARK    1  A    between atoms: C_1  and  C_2
REMARK    2  A    between atoms: C_2  and  C_3
REMARK    3  A    between atoms: C_2  and  C_4
REMARK    4  A    between atoms: C_4  and  N_61
REMARK    5  A    between atoms: C_5  and  C_6
REMARK    6  A    between atoms: C_5  and  N_61
REMARK    7  A    between atoms: C_7  and  O_26
REMARK    8  A    between atoms: C_14  and  C_15
REMARK    9  A    between atoms: C_20  and  O_21
REMARK   10  A    between atoms: O_21  and  C_22
REMARK   11  A    between atoms: C_27  and  C_28
REMARK   12  A    between atoms: C_27  and  N_61
REMARK   13  A    between atoms: C_28  and  C_29
REMARK   14  A    between atoms: C_28  and  C_30
REMARK                            x       y       z     vdW  Elec       q    Type
REMARK                         _______ _______ _______ _____ _____    ______ ____
ROOT
ATOM      1  C   UNL     1       5.927   0.574   0.494  0.00  0.00    +0.020 A 
ATOM      2  C   UNL     1       7.299   0.506   0.677  0.00  0.00    +0.122 A 
ATOM      3  C   UNL     1       8.034   1.654   0.959  0.00  0.00    +0.046 A 
ATOM      4  C   UNL     1       7.407   2.864   1.057  0.00  0.00    +0.019 A 
ATOM      5  C   UNL     1       6.026   2.948   0.876  0.00  0.00    +0.068 A 
ATOM      6  C   UNL     1       5.274   1.796   0.591  0.00  0.00    +0.144 A 
ATOM      7  O   UNL     1       3.970   2.125   0.465  0.00  0.00    -0.451 OA
ATOM      8  C   UNL     1       3.766   3.452   0.635  0.00  0.00    +0.176 C 
ATOM      9  C   UNL     1       2.572   4.096   0.567  0.00  0.00    +0.061 C 
ATOM     10  C   UNL     1       5.071   4.069   0.915  0.00  0.00    +0.231 C 
ATOM     11  O   UNL     1       5.309   5.245   1.131  0.00  0.00    -0.283 OA
ENDROOT
BRANCH   9  12
ATOM     12  C   UNL     1       1.328   3.325   0.462  0.00  0.00    +0.021 A 
ATOM     13  C   UNL     1       1.311   1.966   0.796  0.00  0.00    +0.027 A 
ATOM     14  C   UNL     1       0.139   1.249   0.695  0.00  0.00    +0.019 A 
ATOM     15  C   UNL     1      -1.024   1.867   0.260  0.00  0.00    +0.019 A 
ATOM     16  C   UNL     1      -1.023   3.209  -0.068  0.00  0.00    +0.047 A 
ATOM     17  C   UNL     1       0.146   3.947   0.027  0.00  0.00    +0.127 A 
ATOM     18 BR   UNL     1       0.117  -0.588   1.145  0.00  0.00    -0.050 Br
BRANCH  17  19
ATOM     19  O   UNL     1       0.148   5.264  -0.299  0.00  0.00    -0.495 OA
ATOM     20  C   UNL     1      -1.091   5.828  -0.734  0.00  0.00    +0.277 C 
ENDBRANCH  17  19
ENDBRANCH   9  12
BRANCH   2  21
ATOM     21  O   UNL     1       7.931  -0.691   0.581  0.00  0.00    -0.506 OA
ATOM     22  H   UNL     1       8.184  -0.931  -0.322  0.00  0.00    +0.292 HD
ENDBRANCH   2  21
BRANCH   1  23
ATOM     23  C   UNL     1       5.144  -0.677   0.190  0.00  0.00    -0.036 C 
BRANCH  23  24
ATOM     24  N   UNL     1       4.880  -0.731  -1.264  0.00  0.00    +0.383 N 
ATOM     25  H   UNL     1       4.507   0.176  -1.569  0.00  0.00    -0.081 HD
BRANCH  24  26
ATOM     26  C   UNL     1       6.134  -1.005  -1.995  0.00  0.00    -0.075 C 
BRANCH  26  28
ATOM     27  C   UNL     1       8.151   0.066  -3.009  0.00  0.00    +0.005 C 
ATOM     28  C   UNL     1       6.814   0.328  -2.314  0.00  0.00    -0.034 C 
ATOM     29  C   UNL     1       5.913   1.152  -3.237  0.00  0.00    +0.005 C 
ENDBRANCH  26  28
ENDBRANCH  24  26
BRANCH  24  30
ATOM     30  C   UNL     1       3.883  -1.782  -1.557  0.00  0.00    -0.075 C 
BRANCH  30  31
ATOM     31  C   UNL     1       2.492  -1.249  -1.210  0.00  0.00    -0.034 C 
ATOM     32  C   UNL     1       2.187  -0.021  -2.070  0.00  0.00    +0.005 C 
ATOM     33  C   UNL     1       1.448  -2.334  -1.482  0.00  0.00    +0.005 C 
ENDBRANCH  30  31
ENDBRANCH  24  30
ENDBRANCH  23  24
ENDBRANCH   1  23
TORSDOF 9
