REMARK  Name = ZINC63831318
REMARK  4 active torsions:
REMARK  status: ('A' for Active; 'I' for Inactive)
REMARK    1  A    between atoms: C_1  and  C_2
REMARK    2  A    between atoms: C_4  and  C_21
REMARK    3  A    between atoms: N_12  and  C_14
REMARK    4  A    between atoms: C_24  and  C_26
REMARK                            x       y       z     vdW  Elec       q    Type
REMARK                         _______ _______ _______ _____ _____    ______ ____
ROOT
ATOM      1  C   UNL     1      -0.230   1.134  -0.825  0.00  0.00    +0.062 C 
ATOM      2  C   UNL     1      -0.401  -0.362  -0.756  0.00  0.00    +0.022 C 
ATOM      3  C   UNL     1      -1.463  -0.959  -0.294  0.00  0.00    -0.001 C 
ATOM      4  C   UNL     1      -2.801  -0.398   0.127  0.00  0.00    +0.095 C 
ATOM      5  C   UNL     1      -3.844  -1.027  -0.808  0.00  0.00    +0.111 C 
ATOM      6  C   UNL     1      -3.530  -2.457  -1.109  0.00  0.00    +0.216 C 
ATOM      7  O   UNL     1      -4.452  -3.136  -1.508  0.00  0.00    -0.276 OA
ATOM      8  N   UNL     1      -2.352  -3.071  -0.990  0.00  0.00    -0.292 N 
ATOM      9  C   UNL     1      -1.208  -2.456  -0.328  0.00  0.00    +0.210 C 
ATOM     10  N   UNL     1       0.037  -2.584  -1.088  0.00  0.00    -0.210 N 
ATOM     11  N   UNL     1       0.549  -1.278  -1.182  0.00  0.00    -0.265 N 
ATOM     12  H   UNL     1      -2.253  -3.962  -1.359  0.00  0.00    +0.151 HD
ATOM     13  H   UNL     1       1.438  -1.051  -1.496  0.00  0.00    +0.170 HD
ENDROOT
BRANCH  10  14
ATOM     14  C   UNL     1       0.593  -3.749  -1.611  0.00  0.00    +0.162 A 
ATOM     15  C   UNL     1       1.796  -3.696  -2.315  0.00  0.00    +0.052 A 
ATOM     16  C   UNL     1       2.309  -4.880  -2.816  0.00  0.00    +0.077 A 
ATOM     17  C   UNL     1       1.591  -6.053  -2.584  0.00  0.00    +0.289 A 
ATOM     18  O   UNL     1       2.056  -7.238  -3.056  0.00  0.00    -0.264 OA
ATOM     19  N   UNL     1       0.459  -6.008  -1.905  0.00  0.00    -0.105 NA
ATOM     20  N   UNL     1      -0.015  -4.912  -1.436  0.00  0.00    -0.129 NA
ENDBRANCH  10  14
BRANCH   4  21
ATOM     21  C   UNL     1      -2.804   1.101  -0.024  0.00  0.00    +0.113 A 
ATOM     22  C   UNL     1      -2.554   1.990   0.957  0.00  0.00    +0.046 A 
ATOM     23  C   UNL     1      -2.661   3.275   0.387  0.00  0.00    +0.050 A 
ATOM     24  C   UNL     1      -2.972   3.097  -0.924  0.00  0.00    +0.137 A 
ATOM     25  O   UNL     1      -3.050   1.774  -1.161  0.00  0.00    -0.459 OA
BRANCH  24  26
ATOM     26  C   UNL     1      -3.183   4.170  -1.919  0.00  0.00    +0.036 A 
ATOM     27  C   UNL     1      -4.115   5.180  -1.673  0.00  0.00    +0.013 A 
ATOM     28  C   UNL     1      -4.307   6.178  -2.605  0.00  0.00    +0.001 A 
ATOM     29  C   UNL     1      -3.579   6.181  -3.782  0.00  0.00    +0.001 A 
ATOM     30  C   UNL     1      -2.654   5.183  -4.033  0.00  0.00    +0.021 A 
ATOM     31  C   UNL     1      -2.447   4.181  -3.106  0.00  0.00    +0.052 A 
ATOM     32 CL   UNL     1      -1.281   2.933  -3.418  0.00  0.00    -0.083 Cl
ENDBRANCH  24  26
ENDBRANCH   4  21
TORSDOF 3
