REMARK  Name = ZINC14831653
REMARK  8 active torsions:
REMARK  status: ('A' for Active; 'I' for Inactive)
REMARK    1  A    between atoms: C_3  and  N_25
REMARK    2  A    between atoms: C_7  and  N_11
REMARK    3  A    between atoms: C_12  and  C_14
REMARK    4  A    between atoms: C_15  and  C_16
REMARK    5  A    between atoms: C_19  and  N_22
REMARK    6  A    between atoms: C_26  and  C_28
REMARK    7  A    between atoms: C_29  and  C_30
REMARK    8  A    between atoms: C_33  and  N_36
REMARK                            x       y       z     vdW  Elec       q    Type
REMARK                         _______ _______ _______ _____ _____    ______ ____
ROOT
ATOM      1  C   UNL     1      -0.180   1.038  -0.333  0.00  0.00    +0.002 A 
ATOM      2  C   UNL     1       0.977   1.809  -0.280  0.00  0.00    +0.024 A 
ATOM      3  C   UNL     1       2.216   1.213  -0.171  0.00  0.00    +0.041 A 
ATOM      4  C   UNL     1       2.305  -0.194  -0.112  0.00  0.00    +0.005 A 
ATOM      5  C   UNL     1       1.120  -0.967  -0.166  0.00  0.00    +0.005 A 
ATOM      6  C   UNL     1      -0.122  -0.322  -0.278  0.00  0.00    +0.010 A 
ATOM      7  C   UNL     1       1.209  -2.374  -0.107  0.00  0.00    +0.041 A 
ATOM      8  C   UNL     1       2.447  -2.970   0.002  0.00  0.00    +0.024 A 
ATOM      9  C   UNL     1       3.605  -2.199   0.054  0.00  0.00    +0.002 A 
ATOM     10  C   UNL     1       3.547  -0.839  -0.000  0.00  0.00    +0.010 A 
ENDROOT
BRANCH   7  11
ATOM     11  N   UNL     1       0.054  -3.156  -0.158  0.00  0.00    -0.281 N 
ATOM     12  C   UNL     1      -0.012  -4.306   0.540  0.00  0.00    +0.241 C 
ATOM     13  O   UNL     1       0.893  -4.614   1.294  0.00  0.00    -0.270 OA
ATOM     14  H   UNL     1      -0.700  -2.871  -0.697  0.00  0.00    +0.155 HD
BRANCH  12  15
ATOM     15  C   UNL     1      -1.173  -5.186   0.394  0.00  0.00    +0.068 C 
ATOM     16  C   UNL     1      -1.240  -6.336   1.093  0.00  0.00    +0.013 C 
BRANCH  16  17
ATOM     17  C   UNL     1      -2.407  -7.221   0.945  0.00  0.00    -0.025 A 
ATOM     18  C   UNL     1      -3.446  -6.874   0.076  0.00  0.00    +0.010 A 
ATOM     19  C   UNL     1      -4.536  -7.707  -0.057  0.00  0.00    +0.033 A 
ATOM     20  C   UNL     1      -4.604  -8.885   0.666  0.00  0.00    +0.126 A 
ATOM     21  C   UNL     1      -3.580  -9.236   1.529  0.00  0.00    +0.033 A 
ATOM     22  C   UNL     1      -2.480  -8.415   1.668  0.00  0.00    +0.010 A 
BRANCH  20  23
ATOM     23  N   UNL     1      -5.778  -9.774   0.518  0.00  0.00    +0.056 N 
ATOM     24  O   UNL     1      -6.674  -9.471  -0.234  0.00  0.00    -0.126 OA
ATOM     25  O   UNL     1      -5.840 -10.804   1.149  0.00  0.00    -0.126 OA
ENDBRANCH  20  23
ENDBRANCH  16  17
ENDBRANCH  12  15
ENDBRANCH   7  11
BRANCH   3  26
ATOM     26  N   UNL     1       3.370   1.995  -0.120  0.00  0.00    -0.281 N 
ATOM     27  C   UNL     1       3.307   3.261   0.337  0.00  0.00    +0.241 C 
ATOM     28  O   UNL     1       2.232   3.747   0.638  0.00  0.00    -0.270 OA
ATOM     29  H   UNL     1       4.218   1.627  -0.413  0.00  0.00    +0.155 HD
BRANCH  27  30
ATOM     30  C   UNL     1       4.531   4.053   0.469  0.00  0.00    +0.068 C 
ATOM     31  C   UNL     1       4.468   5.321   0.925  0.00  0.00    +0.013 C 
BRANCH  31  32
ATOM     32  C   UNL     1       5.698   6.117   1.059  0.00  0.00    -0.025 A 
ATOM     33  C   UNL     1       6.934   5.565   0.707  0.00  0.00    +0.010 A 
ATOM     34  C   UNL     1       8.082   6.318   0.835  0.00  0.00    +0.033 A 
ATOM     35  C   UNL     1       8.014   7.616   1.310  0.00  0.00    +0.126 A 
ATOM     36  C   UNL     1       6.795   8.169   1.660  0.00  0.00    +0.033 A 
ATOM     37  C   UNL     1       5.637   7.432   1.532  0.00  0.00    +0.010 A 
BRANCH  35  38
ATOM     38  N   UNL     1       9.252   8.417   1.443  0.00  0.00    +0.056 N 
ATOM     39  O   UNL     1      10.318   7.937   1.139  0.00  0.00    -0.126 OA
ATOM     40  O   UNL     1       9.195   9.552   1.857  0.00  0.00    -0.126 OA
ENDBRANCH  35  38
ENDBRANCH  31  32
ENDBRANCH  27  30
ENDBRANCH   3  26
TORSDOF 8
