REMARK  Name = ZINC35991917
REMARK  11 active torsions:
REMARK  status: ('A' for Active; 'I' for Inactive)
REMARK    1  A    between atoms: C_1  and  C_2
REMARK    2  A    between atoms: C_2  and  O_3
REMARK    3  A    between atoms: O_3  and  C_4
REMARK    4  A    between atoms: C_4  and  C_6
REMARK    5  A    between atoms: C_7  and  C_23
REMARK    6  A    between atoms: N_8  and  C_22
REMARK    7  A    between atoms: C_12  and  C_14
REMARK    8  A    between atoms: C_19  and  O_20
REMARK    9  A    between atoms: O_20  and  C_21
REMARK   10  A    between atoms: C_23  and  N_24
REMARK   11  A    between atoms: C_31  and  C_33
REMARK                            x       y       z     vdW  Elec       q    Type
REMARK                         _______ _______ _______ _____ _____    ______ ____
ROOT
ATOM      1  C   UNL     1       2.406  -2.925  -2.883  0.00  0.00    +0.080 C 
ATOM      2  C   UNL     1       2.457  -4.252  -2.639  0.00  0.00    +0.041 C 
ATOM      3  N   UNL     1       3.316  -5.063  -3.324  0.00  0.00    -0.260 N 
ATOM      4  C   UNL     1       4.157  -4.624  -4.269  0.00  0.00    +0.307 C 
ATOM      5  O   UNL     1       4.886  -5.422  -4.824  0.00  0.00    -0.252 OA
ATOM      6  N   UNL     1       4.222  -3.325  -4.623  0.00  0.00    -0.288 N 
ATOM      7  C   UNL     1       3.330  -2.368  -3.947  0.00  0.00    +0.147 C 
ATOM      8  C   UNL     1       3.318  -6.493  -3.007  0.00  0.00    +0.139 C 
ATOM      9  H   UNL     1       4.840  -3.029  -5.310  0.00  0.00    +0.151 HD
ENDROOT
BRANCH   7  10
ATOM     10  C   UNL     1       2.481  -1.697  -4.995  0.00  0.00    +0.019 A 
ATOM     11  C   UNL     1       2.137  -2.378  -6.147  0.00  0.00    +0.009 A 
ATOM     12  C   UNL     1       1.358  -1.762  -7.109  0.00  0.00    +0.001 A 
ATOM     13  C   UNL     1       0.922  -0.464  -6.922  0.00  0.00    +0.004 A 
ATOM     14  C   UNL     1       1.263   0.222  -5.772  0.00  0.00    +0.046 A 
ATOM     15  C   UNL     1       2.040  -0.396  -4.802  0.00  0.00    +0.125 A 
BRANCH  15  16
ATOM     16  O   UNL     1       2.372   0.275  -3.668  0.00  0.00    -0.495 OA
ATOM     17  C   UNL     1       1.817   1.580  -3.499  0.00  0.00    +0.277 C 
ENDBRANCH  15  16
ENDBRANCH   7  10
BRANCH   1  18
ATOM     18  C   UNL     1       1.516  -2.084  -2.175  0.00  0.00    +0.339 C 
ATOM     19  O   UNL     1       1.929  -1.391  -1.264  0.00  0.00    -0.245 OA
BRANCH  18  20
ATOM     20  O   UNL     1       0.209  -2.052  -2.508  0.00  0.00    -0.462 OA
BRANCH  20  22
ATOM     21  C   UNL     1      -2.069  -1.285  -2.253  0.00  0.00    +0.048 C 
ATOM     22  C   UNL     1      -0.611  -1.101  -1.826  0.00  0.00    +0.229 C 
ENDBRANCH  20  22
ENDBRANCH  18  20
ENDBRANCH   1  18
BRANCH   2  23
ATOM     23  C   UNL     1       1.551  -4.848  -1.593  0.00  0.00    +0.136 C 
BRANCH  23  24
ATOM     24  N   UNL     1       2.362  -5.395  -0.496  0.00  0.00    -0.295 NA
ATOM     25  C   UNL     1       1.642  -6.454   0.209  0.00  0.00    +0.086 C 
ATOM     26  C   UNL     1       2.628  -7.514   0.650  0.00  0.00    +0.034 C 
ATOM     27  C   UNL     1       3.114  -7.206   2.076  0.00  0.00    +0.109 C 
ATOM     28  N   UNL     1       3.338  -5.759   2.266  0.00  0.00    -0.296 N 
ATOM     29  C   UNL     1       3.971  -4.931   1.260  0.00  0.00    +0.123 C 
ATOM     30  C   UNL     1       2.897  -4.359   0.304  0.00  0.00    +0.103 C 
ATOM     31  C   UNL     1       2.939  -5.187   3.419  0.00  0.00    +0.253 C 
ATOM     32  O   UNL     1       2.510  -5.878   4.324  0.00  0.00    -0.269 OA
BRANCH  31  33
ATOM     33  C   UNL     1       3.022  -3.733   3.583  0.00  0.00    +0.074 A 
ATOM     34  C   UNL     1       2.786  -2.966   4.714  0.00  0.00    +0.021 A 
ATOM     35  C   UNL     1       2.945  -1.609   4.559  0.00  0.00    +0.008 A 
ATOM     36  C   UNL     1       3.311  -1.123   3.347  0.00  0.00    +0.046 A 
ATOM     37  S   UNL     1       3.458  -2.490   2.382  0.00  0.00    -0.092 S 
ENDBRANCH  31  33
ENDBRANCH  23  24
ENDBRANCH   2  23
TORSDOF 8
