REMARK  Name = ZINC08821177
REMARK  2 active torsions:
REMARK  status: ('A' for Active; 'I' for Inactive)
REMARK    1  A    between atoms: C_6  and  C_7
REMARK    2  A    between atoms: N_13  and  C_14
REMARK                            x       y       z     vdW  Elec       q    Type
REMARK                         _______ _______ _______ _____ _____    ______ ____
ROOT
ATOM      1  C   UNL     1      -1.258  -0.760   0.011  0.00  0.00    +0.028 C 
ATOM      2  C   UNL     1      -1.239  -2.112  -0.099  0.00  0.00    +0.078 C 
ATOM      3  C   UNL     1      -2.367  -3.058  -0.220  0.00  0.00    +0.256 C 
ATOM      4  O   UNL     1      -3.522  -2.674  -0.232  0.00  0.00    -0.269 OA
ATOM      5  N   UNL     1      -2.064  -4.342  -0.314  0.00  0.00    -0.260 N 
ATOM      6  C   UNL     1      -0.750  -4.756  -0.298  0.00  0.00    +0.166 C 
ATOM      7  N   UNL     1      -0.278  -5.980  -0.381  0.00  0.00    -0.226 NA
ATOM      8  S   UNL     1       0.157  -3.226  -0.145  0.00  0.00    -0.049 S 
ATOM      9  H   UNL     1      -2.773  -4.998  -0.394  0.00  0.00    +0.157 HD
ENDROOT
BRANCH   7  10
ATOM     10  C   UNL     1       1.073  -6.197  -0.348  0.00  0.00    +0.068 A 
ATOM     11  C   UNL     1       1.931  -5.393  -1.104  0.00  0.00    +0.029 A 
ATOM     12  C   UNL     1       3.291  -5.616  -1.066  0.00  0.00    +0.023 A 
ATOM     13  C   UNL     1       3.808  -6.634  -0.282  0.00  0.00    +0.059 A 
ATOM     14  C   UNL     1       2.963  -7.435   0.469  0.00  0.00    +0.061 A 
ATOM     15  C   UNL     1       1.600  -7.218   0.445  0.00  0.00    +0.049 A 
ATOM     16 CL   UNL     1       3.620  -8.709   1.448  0.00  0.00    -0.082 Cl
ATOM     17 CL   UNL     1       5.522  -6.908  -0.241  0.00  0.00    -0.082 Cl
ENDBRANCH   7  10
BRANCH   1  23
ATOM     18  C   UNL     1       0.055   1.352   0.046  0.00  0.00    +0.009 A 
ATOM     19  C   UNL     1       1.226   2.033   0.300  0.00  0.00    +0.016 A 
ATOM     20  C   UNL     1       2.335   1.356   0.781  0.00  0.00    +0.018 A 
ATOM     21  C   UNL     1       2.276  -0.009   1.012  0.00  0.00    +0.016 A 
ATOM     22  C   UNL     1       1.111  -0.704   0.764  0.00  0.00    +0.009 A 
ATOM     23  C   UNL     1      -0.013  -0.027   0.278  0.00  0.00    -0.024 A 
ATOM     24 BR   UNL     1       3.937   2.299   1.125  0.00  0.00    -0.050 Br
ENDBRANCH   1  23
TORSDOF 2
