REMARK  Name = ZINC27015986
REMARK  7 active torsions:
REMARK  status: ('A' for Active; 'I' for Inactive)
REMARK    1  A    between atoms: C_1  and  O_2
REMARK    2  A    between atoms: O_2  and  C_3
REMARK    3  A    between atoms: N_5  and  C_6
REMARK    4  A    between atoms: C_7  and  C_22
REMARK    5  A    between atoms: N_8  and  C_19
REMARK    6  A    between atoms: N_10  and  C_11
REMARK    7  A    between atoms: C_19  and  C_20
REMARK                            x       y       z     vdW  Elec       q    Type
REMARK                         _______ _______ _______ _____ _____    ______ ____
ROOT
ATOM      1  C   UNL     1       5.446   3.634  -0.409  0.00  0.00    +0.102 A 
ATOM      2  C   UNL     1       5.815   2.330  -0.348  0.00  0.00    +0.080 A 
ATOM      3  N   UNL     1       4.847   1.362  -0.233  0.00  0.00    -0.315 N 
ATOM      4  C   UNL     1       3.530   1.750  -0.185  0.00  0.00    +0.154 A 
ATOM      5  N   UNL     1       2.447   1.004  -0.078  0.00  0.00    -0.336 N 
ATOM      6  S   UNL     1       3.667   3.525  -0.312  0.00  0.00    -0.036 S 
ATOM      7  H   UNL     1       2.539  -0.082   0.070  0.00  0.00    +0.168 HD
ENDROOT
BRANCH   5   8
ATOM      8  C   UNL     1       1.209   1.581  -0.150  0.00  0.00    +0.041 A 
ATOM      9  C   UNL     1       0.613   1.809  -1.393  0.00  0.00    +0.027 A 
ATOM     10  C   UNL     1      -0.633   2.397  -1.459  0.00  0.00    +0.017 A 
ATOM     11  C   UNL     1      -1.297   2.753  -0.297  0.00  0.00    +0.018 A 
ATOM     12  C   UNL     1      -0.712   2.530   0.938  0.00  0.00    +0.017 A 
ATOM     13  C   UNL     1       0.536   1.948   1.018  0.00  0.00    +0.027 A 
ATOM     14 BR   UNL     1      -3.007   3.553  -0.398  0.00  0.00    -0.050 Br
ENDBRANCH   5   8
BRANCH   2  15
ATOM     15  C   UNL     1       7.241   1.954  -0.403  0.00  0.00    +0.001 A 
ATOM     16  C   UNL     1       7.790   1.130   0.583  0.00  0.00    +0.010 A 
ATOM     17  C   UNL     1       9.122   0.780   0.522  0.00  0.00    +0.001 A 
ATOM     18  C   UNL     1       9.918   1.251  -0.507  0.00  0.00    +0.000 A 
ATOM     19  C   UNL     1       9.384   2.072  -1.484  0.00  0.00    +0.001 A 
ATOM     20  C   UNL     1       8.052   2.427  -1.439  0.00  0.00    +0.010 A 
ENDBRANCH   2  15
BRANCH   1  23
ATOM     21  C   UNL     1       5.696   5.995  -0.467  0.00  0.00    +0.405 C 
ATOM     22  O   UNL     1       4.497   6.114  -0.312  0.00  0.00    -0.226 OA
ATOM     23  N   UNL     1       6.250   4.768  -0.526  0.00  0.00    -0.243 N 
ATOM     24  H   UNL     1       7.335   4.660  -0.666  0.00  0.00    +0.159 HD
BRANCH  21  26
ATOM     25  C   UNL     1       5.808   8.379  -0.507  0.00  0.00    +0.282 C 
ATOM     26  O   UNL     1       6.472   7.090  -0.580  0.00  0.00    -0.453 OA
ENDBRANCH  21  26
ENDBRANCH   1  23
BRANCH   3  27
ATOM     27  C   UNL     1       5.211  -0.055  -0.164  0.00  0.00    +0.151 C 
BRANCH  27  28
ATOM     28  C   UNL     1       5.386  -0.597  -1.560  0.00  0.00    -0.013 C 
ATOM     29  C   UNL     1       6.534  -1.113  -1.923  0.00  0.00    +0.005 C 
ENDBRANCH  27  28
ENDBRANCH   3  27
TORSDOF 6
