REMARK  Name = ZINC42015665
REMARK  4 active torsions:
REMARK  status: ('A' for Active; 'I' for Inactive)
REMARK    1  A    between atoms: C_5  and  C_7
REMARK    2  A    between atoms: C_7  and  N_8
REMARK    3  A    between atoms: C_9  and  C_13
REMARK    4  A    between atoms: C_16  and  N_20
REMARK                            x       y       z     vdW  Elec       q    Type
REMARK                         _______ _______ _______ _____ _____    ______ ____
ROOT
ATOM      1  N   UNL     1       1.373  -2.584   1.381  0.00  0.00    -0.221 N 
ATOM      2  C   UNL     1       2.524  -2.698   2.090  0.00  0.00    +0.184 A 
ATOM      3  N   UNL     1       2.189  -3.034   3.318  0.00  0.00    -0.108 NA
ATOM      4  N   UNL     1       0.913  -3.138   3.423  0.00  0.00    -0.023 NA
ATOM      5  N   UNL     1       0.346  -2.875   2.296  0.00  0.00    -0.043 NA
ENDROOT
BRANCH   2   6
ATOM      6  C   UNL     1       3.896  -2.485   1.580  0.00  0.00    +0.039 A 
ATOM      7  C   UNL     1       4.093  -2.003   0.284  0.00  0.00    +0.015 A 
ATOM      8  C   UNL     1       5.372  -1.805  -0.188  0.00  0.00    +0.023 A 
ATOM      9  C   UNL     1       6.466  -2.086   0.623  0.00  0.00    +0.026 A 
ATOM     10  C   UNL     1       6.274  -2.566   1.914  0.00  0.00    +0.043 A 
ATOM     11  C   UNL     1       4.996  -2.760   2.395  0.00  0.00    +0.053 A 
ATOM     12 CL   UNL     1       4.756  -3.353   4.009  0.00  0.00    -0.083 Cl
BRANCH   9  13
ATOM     13  N   UNL     1       7.759  -1.885   0.141  0.00  0.00    -0.358 N 
ATOM     14  H   UNL     1       7.895  -1.550  -0.759  0.00  0.00    +0.142 HD
ATOM     15  H   UNL     1       8.523  -2.081   0.706  0.00  0.00    +0.142 HD
ENDBRANCH   9  13
ENDBRANCH   2   6
BRANCH   1  16
ATOM     16  C   UNL     1       1.230  -2.229  -0.033  0.00  0.00    +0.185 C 
BRANCH  16  21
ATOM     17  C   UNL     1      -2.037  -3.516  -1.420  0.00  0.00    +0.000 A 
ATOM     18  C   UNL     1      -2.887  -2.459  -1.153  0.00  0.00    +0.003 A 
ATOM     19  C   UNL     1      -2.406  -1.327  -0.523  0.00  0.00    +0.039 A 
ATOM     20  C   UNL     1      -1.072  -1.251  -0.160  0.00  0.00    +0.128 A 
ATOM     21  C   UNL     1      -0.222  -2.310  -0.428  0.00  0.00    +0.009 A 
ATOM     22  C   UNL     1      -0.705  -3.441  -1.058  0.00  0.00    +0.008 A 
ATOM     23  F   UNL     1      -0.601  -0.144   0.456  0.00  0.00    -0.205 F 
ENDBRANCH  16  21
ENDBRANCH   1  16
TORSDOF 4
