REMARK  Name = ZINC13500154
REMARK  14 active torsions:
REMARK  status: ('A' for Active; 'I' for Inactive)
REMARK    1  A    between atoms: C_1  and  C_2
REMARK    2  A    between atoms: C_2  and  C_3
REMARK    3  A    between atoms: C_3  and  C_4
REMARK    4  A    between atoms: C_4  and  C_6
REMARK    5  A    between atoms: C_4  and  N_74
REMARK    6  A    between atoms: N_10  and  C_11
REMARK    7  A    between atoms: C_11  and  C_12
REMARK    8  A    between atoms: C_11  and  C_13
REMARK    9  A    between atoms: C_11  and  C_14
REMARK   10  A    between atoms: C_14  and  C_15
REMARK   11  A    between atoms: C_16  and  C_17
REMARK   12  A    between atoms: C_16  and  N_74
REMARK   13  A    between atoms: C_21  and  C_29
REMARK   14  A    between atoms: C_30  and  N_74
REMARK                            x       y       z     vdW  Elec       q    Type
REMARK                         _______ _______ _______ _____ _____    ______ ____
ROOT
ATOM      1  N   UNL     1      -3.040   0.148  -0.943  0.00  0.00    +0.391 N 
ATOM      2  H   UNL     1      -2.146  -0.267  -0.656  0.00  0.00    -0.080 HD
ENDROOT
BRANCH   1   3
ATOM      3  C   UNL     1      -2.783   1.174  -1.976  0.00  0.00    -0.067 C 
ATOM      4  C   UNL     1      -4.101   1.718  -2.530  0.00  0.00    -0.015 C 
ATOM      5  C   UNL     1      -3.808   2.774  -3.598  0.00  0.00    -0.002 C 
ATOM      6  C   UNL     1      -3.001   2.141  -4.733  0.00  0.00    -0.000 C 
ATOM      7  C   UNL     1      -1.683   1.596  -4.179  0.00  0.00    -0.002 C 
ATOM      8  C   UNL     1      -1.976   0.540  -3.111  0.00  0.00    -0.015 C 
ENDBRANCH   1   3
BRANCH   1   9
ATOM      9  C   UNL     1      -3.909  -0.914  -1.490  0.00  0.00    +0.003 C 
BRANCH   9  10
ATOM     10  C   UNL     1      -5.346  -0.461  -1.510  0.00  0.00    +0.139 A 
ATOM     11  N   UNL     1      -5.949   0.272  -0.606  0.00  0.00    -0.115 NA
ATOM     12  N   UNL     1      -7.169   0.446  -0.982  0.00  0.00    -0.023 NA
ATOM     13  N   UNL     1      -7.362  -0.164  -2.099  0.00  0.00    -0.043 NA
ATOM     14  N   UNL     1      -6.262  -0.735  -2.458  0.00  0.00    -0.225 N 
BRANCH  14  15
ATOM     15  C   UNL     1      -6.050  -1.533  -3.668  0.00  0.00    +0.061 C 
ATOM     16  C   UNL     1      -5.084  -0.798  -4.600  0.00  0.00    +0.036 C 
ATOM     17  C   UNL     1      -5.457  -2.891  -3.287  0.00  0.00    +0.036 C 
BRANCH  15  18
ATOM     18  C   UNL     1      -7.387  -1.743  -4.382  0.00  0.00    +0.026 C 
ATOM     19  C   UNL     1      -7.165  -2.576  -5.646  0.00  0.00    +0.006 C 
ENDBRANCH  15  18
ENDBRANCH  14  15
ENDBRANCH   9  10
BRANCH   9  20
ATOM     20  C   UNL     1      -3.779  -2.157  -0.608  0.00  0.00    -0.008 C 
BRANCH  20  22
ATOM     21  C   UNL     1      -2.250  -4.006   0.091  0.00  0.00    +0.004 C 
ATOM     22  C   UNL     1      -2.349  -2.695  -0.692  0.00  0.00    -0.005 C 
ENDBRANCH  20  22
ENDBRANCH   9  20
ENDBRANCH   1   9
BRANCH   1  23
ATOM     23  C   UNL     1      -3.681   0.769   0.236  0.00  0.00    -0.036 C 
BRANCH  23  24
ATOM     24  C   UNL     1      -2.639   1.541   1.003  0.00  0.00    +0.001 A 
ATOM     25  C   UNL     1      -2.632   2.896   0.957  0.00  0.00    +0.017 A 
ATOM     26  C   UNL     1      -1.604   3.616   1.710  0.00  0.00    -0.001 A 
ATOM     27  C   UNL     1      -1.544   5.014   1.699  0.00  0.00    +0.013 A 
ATOM     28  C   UNL     1      -0.572   5.656   2.412  0.00  0.00    -0.050 A 
ATOM     29  C   UNL     1       0.357   4.934   3.149  0.00  0.00    +0.005 A 
ATOM     30  C   UNL     1       0.318   3.557   3.174  0.00  0.00    +0.026 A 
ATOM     31  C   UNL     1      -0.663   2.881   2.456  0.00  0.00    +0.049 A 
ATOM     32  N   UNL     1      -0.727   1.504   2.464  0.00  0.00    -0.322 N 
ATOM     33  H   UNL     1      -0.078   0.998   2.978  0.00  0.00    +0.169 HD
ATOM     34  C   UNL     1      -1.676   0.851   1.770  0.00  0.00    +0.251 A 
ATOM     35  O   UNL     1      -1.702  -0.367   1.801  0.00  0.00    -0.268 OA
ATOM     36  C   UNL     1      -0.508   7.162   2.400  0.00  0.00    +0.044 C 
ENDBRANCH  23  24
ENDBRANCH   1  23
TORSDOF 9
