REMARK  Name = ZINC13268575
REMARK  10 active torsions:
REMARK  status: ('A' for Active; 'I' for Inactive)
REMARK    1  A    between atoms: C_1  and  C_2
REMARK    2  A    between atoms: C_5  and  C_8
REMARK    3  A    between atoms: C_8  and  O_9
REMARK    4  A    between atoms: O_9  and  C_10
REMARK    5  A    between atoms: C_13  and  C_16
REMARK    6  A    between atoms: C_18  and  C_36
REMARK    7  A    between atoms: C_19  and  C_26
REMARK    8  A    between atoms: C_29  and  O_32
REMARK    9  A    between atoms: O_32  and  C_33
REMARK   10  A    between atoms: C_33  and  C_34
REMARK                            x       y       z     vdW  Elec       q    Type
REMARK                         _______ _______ _______ _____ _____    ______ ____
ROOT
ATOM      1  C   UNL     1       2.334   1.578   0.465  0.00  0.00    +0.170 C 
ATOM      2  C   UNL     1       2.313   0.073   0.483  0.00  0.00    -0.022 C 
ATOM      3  C   UNL     1       1.290  -0.648   0.046  0.00  0.00    +0.042 C 
ATOM      4  N   UNL     1       0.128  -0.056  -0.466  0.00  0.00    -0.282 N 
ATOM      5  C   UNL     1      -0.026   1.307  -0.266  0.00  0.00    +0.240 A 
ATOM      6  N   UNL     1       0.998   2.083   0.176  0.00  0.00    -0.202 N 
ATOM      7  N   UNL     1       0.476   3.373   0.265  0.00  0.00    -0.042 NA
ATOM      8  N   UNL     1      -0.759   3.298  -0.113  0.00  0.00    -0.021 NA
ATOM      9  N   UNL     1      -1.060   2.083  -0.424  0.00  0.00    -0.092 NA
ATOM     10  C   UNL     1       3.518  -0.652   1.025  0.00  0.00    +0.043 C 
ATOM     11  H   UNL     1      -0.539  -0.576  -0.941  0.00  0.00    +0.155 HD
ENDROOT
BRANCH   1  15
ATOM     12  C   UNL     1       5.045   2.925  -2.551  0.00  0.00    +0.121 A 
ATOM     13  C   UNL     1       5.253   3.274  -1.225  0.00  0.00    +0.046 A 
ATOM     14  C   UNL     1       4.375   2.837  -0.252  0.00  0.00    +0.009 A 
ATOM     15  C   UNL     1       3.290   2.053  -0.599  0.00  0.00    -0.019 A 
ATOM     16  C   UNL     1       3.084   1.700  -1.920  0.00  0.00    +0.009 A 
ATOM     17  C   UNL     1       3.956   2.139  -2.897  0.00  0.00    +0.046 A 
BRANCH  12  18
ATOM     18  O   UNL     1       5.908   3.353  -3.510  0.00  0.00    -0.487 OA
BRANCH  18  19
ATOM     19  C   UNL     1       5.632   2.955  -4.855  0.00  0.00    +0.264 C 
BRANCH  19  24
ATOM     20  C   UNL     1       9.678   5.117  -8.370  0.00  0.00    +0.044 C 
ATOM     21  C   UNL     1       8.623   4.553  -7.454  0.00  0.00    -0.050 A 
ATOM     22  C   UNL     1       8.800   3.309  -6.878  0.00  0.00    +0.004 A 
ATOM     23  C   UNL     1       7.833   2.792  -6.037  0.00  0.00    +0.007 A 
ATOM     24  C   UNL     1       6.687   3.519  -5.772  0.00  0.00    -0.010 A 
ATOM     25  C   UNL     1       6.507   4.761  -6.352  0.00  0.00    +0.007 A 
ATOM     26  C   UNL     1       7.476   5.279  -7.190  0.00  0.00    +0.004 A 
ENDBRANCH  19  24
ENDBRANCH  18  19
ENDBRANCH  12  18
ENDBRANCH   1  15
BRANCH   3  27
ATOM     27  C   UNL     1       1.377  -2.125   0.103  0.00  0.00    -0.004 A 
ATOM     28  C   UNL     1       2.419  -2.789  -0.543  0.00  0.00    +0.013 A 
ATOM     29  C   UNL     1       2.500  -4.164  -0.484  0.00  0.00    +0.046 A 
ATOM     30  C   UNL     1       1.539  -4.889   0.208  0.00  0.00    +0.121 A 
ATOM     31  C   UNL     1       0.497  -4.231   0.849  0.00  0.00    +0.046 A 
ATOM     32  C   UNL     1       0.413  -2.856   0.798  0.00  0.00    +0.013 A 
BRANCH  30  33
ATOM     33  O   UNL     1       1.618  -6.244   0.260  0.00  0.00    -0.481 OA
BRANCH  33  34
ATOM     34  C   UNL     1       2.716  -6.856  -0.421  0.00  0.00    +0.353 C 
BRANCH  34  35
ATOM     35  C   UNL     1       2.639  -8.352  -0.255  0.00  0.00    +0.393 C 
ATOM     36  O   UNL     1       1.737  -8.843   0.382  0.00  0.00    -0.243 OA
ATOM     37  O   UNL     1       3.573  -9.138  -0.813  0.00  0.00    -0.243 OA
ENDBRANCH  34  35
ENDBRANCH  33  34
ENDBRANCH  30  33
ENDBRANCH   3  27
TORSDOF 8
