REMARK  Name = ZINC20933507
REMARK  9 active torsions:
REMARK  status: ('A' for Active; 'I' for Inactive)
REMARK    1  A    between atoms: C_1  and  C_2
REMARK    2  A    between atoms: C_2  and  N_3
REMARK    3  A    between atoms: C_12  and  C_14
REMARK    4  A    between atoms: N_16  and  N_17
REMARK    5  A    between atoms: N_25  and  C_28
REMARK    6  A    between atoms: C_28  and  C_29
REMARK    7  A    between atoms: C_29  and  C_30
REMARK    8  A    between atoms: C_30  and  C_31
REMARK    9  A    between atoms: C_30  and  C_32
REMARK                            x       y       z     vdW  Elec       q    Type
REMARK                         _______ _______ _______ _____ _____    ______ ____
ROOT
ATOM      1  C   UNL     1       0.920   3.494   0.229  0.00  0.00    +0.284 C 
ATOM      2  O   UNL     1       1.918   4.149  -0.003  0.00  0.00    -0.267 OA
ATOM      3  N   UNL     1      -0.286   4.094   0.266  0.00  0.00    -0.201 N 
ATOM      4  H   UNL     1      -1.188   3.501   0.476  0.00  0.00    +0.178 HD
ENDROOT
BRANCH   1  14
ATOM      5  N   UNL     1      -0.030   0.069   0.941  0.00  0.00    -0.229 N 
ATOM      6  C   UNL     1       1.093  -0.678   0.941  0.00  0.00    +0.275 A 
ATOM      7  O   UNL     1       1.045  -1.875   1.158  0.00  0.00    -0.266 OA
ATOM      8  C   UNL     1       2.376  -0.013   0.674  0.00  0.00    +0.050 A 
ATOM      9  C   UNL     1       3.590  -0.694   0.651  0.00  0.00    +0.014 A 
ATOM     10  C   UNL     1       4.750   0.004   0.392  0.00  0.00    +0.001 A 
ATOM     11  C   UNL     1       4.719   1.371   0.155  0.00  0.00    +0.001 A 
ATOM     12  C   UNL     1       3.526   2.064   0.173  0.00  0.00    +0.011 A 
ATOM     13  C   UNL     1       2.344   1.380   0.433  0.00  0.00    +0.020 A 
ATOM     14  C   UNL     1       1.031   2.043   0.470  0.00  0.00    +0.155 A 
ATOM     15  N   UNL     1      -0.040   1.329   0.721  0.00  0.00    -0.163 NA
BRANCH   5  17
ATOM     16  C   UNL     1      -1.585  -0.583   2.712  0.00  0.00    +0.029 C 
ATOM     17  C   UNL     1      -1.306  -0.599   1.208  0.00  0.00    +0.144 C 
ENDBRANCH   5  17
ENDBRANCH   1  14
BRANCH   3  18
ATOM     18  N   UNL     1      -0.391   5.472   0.037  0.00  0.00    -0.174 NA
ATOM     19  C   UNL     1      -1.572   6.035  -0.048  0.00  0.00    +0.153 C 
ATOM     20  C   UNL     1      -2.893   5.363  -0.062  0.00  0.00    +0.028 A 
ATOM     21  C   UNL     1      -3.284   4.032   0.018  0.00  0.00    +0.012 A 
ATOM     22  C   UNL     1      -4.626   3.709  -0.013  0.00  0.00    +0.001 A 
ATOM     23  C   UNL     1      -5.578   4.710  -0.118  0.00  0.00    +0.002 A 
ATOM     24  C   UNL     1      -5.199   6.035  -0.191  0.00  0.00    +0.024 A 
ATOM     25  C   UNL     1      -3.852   6.379  -0.161  0.00  0.00    +0.046 A 
ATOM     26  N   UNL     1      -3.212   7.612  -0.218  0.00  0.00    -0.266 N 
ATOM     27  C   UNL     1      -1.876   7.476  -0.156  0.00  0.00    +0.271 C 
ATOM     28  O   UNL     1      -1.062   8.379  -0.184  0.00  0.00    -0.268 OA
BRANCH  26  29
ATOM     29  C   UNL     1      -3.905   8.898  -0.331  0.00  0.00    +0.114 C 
BRANCH  29  30
ATOM     30  C   UNL     1      -4.089   9.249  -1.809  0.00  0.00    +0.022 C 
BRANCH  30  31
ATOM     31  C   UNL     1      -4.814  10.591  -1.927  0.00  0.00    -0.016 C 
ATOM     32  C   UNL     1      -3.929  11.700  -1.355  0.00  0.00    +0.007 C 
ATOM     33  C   UNL     1      -5.109  10.883  -3.400  0.00  0.00    +0.007 C 
ENDBRANCH  30  31
ENDBRANCH  29  30
ENDBRANCH  26  29
ENDBRANCH   3  18
TORSDOF 6
