REMARK  Name = ZINC13948173
REMARK  6 active torsions:
REMARK  status: ('A' for Active; 'I' for Inactive)
REMARK    1  A    between atoms: C_3  and  S_17
REMARK    2  A    between atoms: C_6  and  N_7
REMARK    3  A    between atoms: N_7  and  S_8
REMARK    4  A    between atoms: S_8  and  C_11
REMARK    5  A    between atoms: S_17  and  N_20
REMARK    6  A    between atoms: N_20  and  C_21
REMARK                            x       y       z     vdW  Elec       q    Type
REMARK                         _______ _______ _______ _____ _____    ______ ____
ROOT
ATOM      1  C   UNL     1      -0.017   1.385   0.010  0.00  0.00    +0.028 A 
ATOM      2  C   UNL     1       1.171   2.090   0.002  0.00  0.00    +0.031 A 
ATOM      3  C   UNL     1       2.377   1.415  -0.013  0.00  0.00    +0.111 A 
ATOM      4  C   UNL     1       2.400   0.032  -0.021  0.00  0.00    +0.031 A 
ATOM      5  C   UNL     1       1.216  -0.679  -0.014  0.00  0.00    +0.028 A 
ATOM      6  C   UNL     1       0.002  -0.004   0.002  0.00  0.00    +0.074 A 
ENDROOT
BRANCH   3   7
ATOM      7  S   UNL     1       3.890   2.319  -0.024  0.00  0.00    +0.093 S 
ATOM      8  O   UNL     1       4.872   1.461  -0.589  0.00  0.00    -0.148 OA
ATOM      9  O   UNL     1       3.595   3.599  -0.566  0.00  0.00    -0.148 OA
BRANCH   7  10
ATOM     10  N   UNL     1       4.326   2.562   1.555  0.00  0.00    -0.070 NA
BRANCH  10  11
ATOM     11  C   UNL     1       5.490   3.253   1.853  0.00  0.00    +0.201 A 
ATOM     12  N   UNL     1       6.359   3.789   1.023  0.00  0.00    -0.231 NA
ATOM     13  C   UNL     1       7.429   4.422   1.471  0.00  0.00    +0.120 A 
ATOM     14  C   UNL     1       7.586   4.493   2.815  0.00  0.00    +0.068 A 
ATOM     15  S   UNL     1       6.130   3.619   3.366  0.00  0.00    -0.058 S 
ENDBRANCH  10  11
ENDBRANCH   7  10
ENDBRANCH   3   7
BRANCH   6  16
ATOM     16  N   UNL     1      -1.197  -0.720   0.010  0.00  0.00    -0.097 NA
BRANCH  16  17
ATOM     17  S   UNL     1      -1.172  -2.376   0.001  0.00  0.00    +0.098 S 
ATOM     18  O   UNL     1      -0.628  -2.767  -1.252  0.00  0.00    -0.148 OA
ATOM     19  O   UNL     1      -0.603  -2.781   1.239  0.00  0.00    -0.148 OA
BRANCH  17  20
ATOM     20  C   UNL     1      -2.848  -2.922   0.015  0.00  0.00    +0.149 A 
ATOM     21  C   UNL     1      -3.667  -3.186  -1.032  0.00  0.00    +0.038 A 
ATOM     22  C   UNL     1      -4.960  -3.608  -0.781  0.00  0.00    +0.025 A 
ATOM     23  C   UNL     1      -5.369  -3.745   0.505  0.00  0.00    +0.057 A 
ATOM     24  S   UNL     1      -3.902  -3.279   1.410  0.00  0.00    -0.061 S 
ATOM     25 BR   UNL     1      -7.052  -4.295   1.168  0.00  0.00    -0.043 Br
ENDBRANCH  17  20
ENDBRANCH  16  17
ENDBRANCH   6  16
TORSDOF 6
