REMARK  Name = ZINC00115797
REMARK  5 active torsions:
REMARK  status: ('A' for Active; 'I' for Inactive)
REMARK    1  A    between atoms: C_1  and  C_2
REMARK    2  A    between atoms: C_2  and  C_3
REMARK    3  A    between atoms: C_8  and  N_9
REMARK    4  A    between atoms: C_10  and  C_12
REMARK    5  A    between atoms: C_12  and  C_13
REMARK                            x       y       z     vdW  Elec       q    Type
REMARK                         _______ _______ _______ _____ _____    ______ ____
ROOT
ATOM      1  C   UNL     1      -0.019   5.650  -0.184  0.00  0.00    +0.127 C 
ENDROOT
BRANCH   1   2
ATOM      2  C   UNL     1      -1.464   6.145  -0.270  0.00  0.00    +0.166 C 
ATOM      3  C   UNL     1      -1.474   7.636  -0.494  0.00  0.00    +0.238 C 
ATOM      4  O   UNL     1      -1.488   8.072  -1.626  0.00  0.00    -0.273 OA
ATOM      5  N   UNL     1      -1.469   8.488   0.548  0.00  0.00    -0.282 N 
ATOM      6  C   UNL     1      -1.588   8.018   1.861  0.00  0.00    +0.055 A 
ATOM      7  C   UNL     1      -1.391   8.869   2.936  0.00  0.00    +0.025 A 
ATOM      8  C   UNL     1      -1.509   8.387   4.227  0.00  0.00    +0.002 A 
ATOM      9  C   UNL     1      -1.828   7.060   4.451  0.00  0.00    +0.002 A 
ATOM     10  C   UNL     1      -2.039   6.206   3.383  0.00  0.00    +0.025 A 
ATOM     11  C   UNL     1      -1.927   6.684   2.089  0.00  0.00    +0.049 A 
ATOM     12  N   UNL     1      -2.163   5.844   0.989  0.00  0.00    -0.331 N 
ATOM     13  H   UNL     1      -1.380   9.440   0.386  0.00  0.00    +0.155 HD
ATOM     14  H   UNL     1      -2.769   5.089   1.055  0.00  0.00    +0.147 HD
ENDBRANCH   1   2
BRANCH   1  16
ATOM     15  N   UNL     1       1.162   3.485   0.009  0.00  0.00    -0.285 N 
ATOM     16  C   UNL     1      -0.009   4.146  -0.078  0.00  0.00    +0.219 C 
ATOM     17  O   UNL     1      -1.055   3.532  -0.072  0.00  0.00    -0.275 OA
ATOM     18  H   UNL     1       1.995   3.979   0.070  0.00  0.00    +0.155 HD
BRANCH  15  24
ATOM     19  C   UNL     1       2.219   1.400  -0.596  0.00  0.00    -0.026 A 
ATOM     20  C   UNL     1       2.230   0.018  -0.591  0.00  0.00    +0.005 A 
ATOM     21  C   UNL     1       1.205  -0.681   0.018  0.00  0.00    +0.000 A 
ATOM     22  C   UNL     1       0.166  -0.000   0.626  0.00  0.00    +0.002 A 
ATOM     23  C   UNL     1       0.148   1.381   0.624  0.00  0.00    +0.023 A 
ATOM     24  C   UNL     1       1.177   2.086   0.013  0.00  0.00    +0.037 A 
BRANCH  19  26
ATOM     25  C   UNL     1       4.389   2.537  -0.216  0.00  0.00    +0.009 C 
ATOM     26  C   UNL     1       3.337   2.161  -1.260  0.00  0.00    +0.033 C 
ENDBRANCH  19  26
ENDBRANCH  15  24
ENDBRANCH   1  16
TORSDOF 4
