REMARK  Name = ZINC21977125
REMARK  11 active torsions:
REMARK  status: ('A' for Active; 'I' for Inactive)
REMARK    1  A    between atoms: C_1  and  C_2
REMARK    2  A    between atoms: N_4  and  C_5
REMARK    3  A    between atoms: C_6  and  C_14
REMARK    4  A    between atoms: C_14  and  O_16
REMARK    5  A    between atoms: O_16  and  C_17
REMARK    6  A    between atoms: C_17  and  C_18
REMARK    7  A    between atoms: C_20  and  O_31
REMARK    8  A    between atoms: C_21  and  O_27
REMARK    9  A    between atoms: C_23  and  N_24
REMARK   10  A    between atoms: O_27  and  C_28
REMARK   11  A    between atoms: O_31  and  C_32
REMARK                            x       y       z     vdW  Elec       q    Type
REMARK                         _______ _______ _______ _____ _____    ______ ____
ROOT
ATOM      1  O   UNL     1      -4.058   3.741   1.227  0.00  0.00    -0.456 OA
ENDROOT
BRANCH   1   2
ATOM      2  C   UNL     1      -3.945   3.090   0.051  0.00  0.00    +0.342 C 
ATOM      3  O   UNL     1      -4.063   3.699  -0.995  0.00  0.00    -0.245 OA
BRANCH   2   5
ATOM      4  C   UNL     1      -2.381   1.157   0.020  0.00  0.00    +0.086 A 
ATOM      5  C   UNL     1      -3.680   1.650   0.034  0.00  0.00    +0.091 A 
ATOM      6  C   UNL     1      -4.765   0.683   0.028  0.00  0.00    -0.021 A 
ATOM      7  C   UNL     1      -4.381  -0.611   0.020  0.00  0.00    -0.004 A 
ATOM      8  S   UNL     1      -2.612  -0.560   0.012  0.00  0.00    -0.077 S 
ATOM      9  C   UNL     1      -5.271  -1.817   0.018  0.00  0.00    +0.043 C 
ATOM     10  C   UNL     1      -6.689  -1.372   0.405  0.00  0.00    +0.005 C 
ATOM     11  C   UNL     1      -7.062  -0.140  -0.424  0.00  0.00    +0.005 C 
ATOM     12  C   UNL     1      -6.240   1.065   0.035  0.00  0.00    +0.037 C 
BRANCH   4  16
ATOM     13  C   UNL     1       1.280   1.980   0.001  0.00  0.00    +0.109 C 
ATOM     14  C   UNL     1      -0.014   1.209   0.009  0.00  0.00    +0.214 C 
ATOM     15  O   UNL     1       0.002  -0.004   0.002  0.00  0.00    -0.276 OA
ATOM     16  N   UNL     1      -1.191   1.867   0.018  0.00  0.00    -0.280 N 
ATOM     17  H   UNL     1      -1.206   2.966   0.024  0.00  0.00    +0.155 HD
ENDBRANCH   4  16
ENDBRANCH   2   5
ENDBRANCH   1   2
BRANCH   1  18
ATOM     18  C   UNL     1      -4.322   5.168   1.167  0.00  0.00    +0.270 C 
BRANCH  18  19
ATOM     19  C   UNL     1      -4.416   5.720   2.567  0.00  0.00    +0.024 A 
ATOM     20  C   UNL     1      -4.260   4.878   3.652  0.00  0.00    +0.058 A 
ATOM     21  C   UNL     1      -4.341   5.385   4.939  0.00  0.00    +0.162 A 
ATOM     22  C   UNL     1      -4.590   6.740   5.136  0.00  0.00    +0.170 A 
ATOM     23  C   UNL     1      -4.750   7.577   4.044  0.00  0.00    +0.082 A 
ATOM     24  C   UNL     1      -4.663   7.066   2.762  0.00  0.00    +0.136 A 
BRANCH  24  25
ATOM     25  N   UNL     1      -4.834   7.962   1.596  0.00  0.00    +0.057 N 
ATOM     26  O   UNL     1      -5.052   9.148   1.766  0.00  0.00    -0.126 OA
ATOM     27  O   UNL     1      -4.757   7.513   0.467  0.00  0.00    -0.126 OA
ENDBRANCH  24  25
BRANCH  21  28
ATOM     28  O   UNL     1      -4.183   4.559   6.008  0.00  0.00    -0.491 OA
ATOM     29  C   UNL     1      -3.930   3.180   5.731  0.00  0.00    +0.277 C 
ENDBRANCH  21  28
BRANCH  22  30
ATOM     30  O   UNL     1      -4.675   7.242   6.397  0.00  0.00    -0.430 OA
BRANCH  30  31
ATOM     31  C   UNL     1      -4.932   8.642   6.522  0.00  0.00    +0.541 C 
ATOM     32  F   UNL     1      -3.907   9.362   5.900  0.00  0.00    -0.166 F 
ATOM     33  F   UNL     1      -6.154   8.948   5.913  0.00  0.00    -0.166 F 
ENDBRANCH  30  31
ENDBRANCH  22  30
ENDBRANCH  18  19
ENDBRANCH   1  18
TORSDOF 9
