REMARK  Name = ZINC40719028
REMARK  9 active torsions:
REMARK  status: ('A' for Active; 'I' for Inactive)
REMARK    1  A    between atoms: C_1  and  C_2
REMARK    2  A    between atoms: N_17  and  C_18
REMARK    3  A    between atoms: C_26  and  C_41
REMARK    4  A    between atoms: C_29  and  O_40
REMARK    5  A    between atoms: C_32  and  C_39
REMARK    6  A    between atoms: C_33  and  C_34
REMARK    7  A    between atoms: C_33  and  O_38
REMARK    8  A    between atoms: C_34  and  C_36
REMARK    9  A    between atoms: C_36  and  O_37
REMARK                            x       y       z     vdW  Elec       q    Type
REMARK                         _______ _______ _______ _____ _____    ______ ____
ROOT
ATOM      1  C   UNL     1       0.715   1.503   0.302  0.00  0.00    +0.011 C 
ATOM      2  C   UNL     1       0.467   0.002   0.149  0.00  0.00    +0.026 C 
ATOM      3  C   UNL     1      -1.051  -0.273  -0.033  0.00  0.00    +0.011 C 
ATOM      4  C   UNL     1      -1.470  -0.871   1.319  0.00  0.00    +0.002 C 
ATOM      5  C   UNL     1      -2.767  -1.627   1.350  0.00  0.00    -0.001 C 
ATOM      6  C   UNL     1      -3.259  -2.081  -0.012  0.00  0.00    +0.008 C 
ATOM      7  C   UNL     1      -4.294  -3.196   0.126  0.00  0.00    +0.031 C 
ATOM      8  C   UNL     1      -4.946  -3.151   1.487  0.00  0.00    -0.061 C 
ATOM      9  C   UNL     1      -6.274  -3.043   1.569  0.00  0.00    +0.028 C 
ATOM     10  C   UNL     1      -6.876  -2.989   2.910  0.00  0.00    +0.071 A 
ATOM     11  C   UNL     1      -6.087  -2.690   4.019  0.00  0.00    -0.001 A 
ATOM     12  C   UNL     1      -6.898  -2.718   5.134  0.00  0.00    +0.139 A 
ATOM     13  N   UNL     1      -8.124  -2.999   4.751  0.00  0.00    -0.174 NA
ATOM     14  N   UNL     1      -8.137  -3.161   3.354  0.00  0.00    -0.231 N 
ATOM     15  C   UNL     1      -4.616  -2.397   3.864  0.00  0.00    +0.050 C 
ATOM     16  C   UNL     1      -4.074  -3.249   2.717  0.00  0.00    -0.001 C 
ATOM     17  C   UNL     1      -2.666  -2.804   2.322  0.00  0.00    +0.031 C 
ATOM     18  C   UNL     1      -1.812  -2.416   3.521  0.00  0.00    +0.119 C 
ATOM     19  C   UNL     1      -0.341  -2.264   3.095  0.00  0.00    +0.041 C 
ATOM     20  C   UNL     1      -0.253  -1.745   1.681  0.00  0.00    +0.009 C 
ATOM     21  C   UNL     1       0.895  -0.743   1.437  0.00  0.00    +0.134 C 
ATOM     22  C   UNL     1      -0.056  -2.901   0.696  0.00  0.00    +0.015 C 
ATOM     23  C   UNL     1      -4.027  -4.715   3.164  0.00  0.00    +0.016 C 
ENDROOT
BRANCH  14  24
ATOM     24  C   UNL     1      -9.262  -3.451   2.570  0.00  0.00    +0.084 A 
ATOM     25  C   UNL     1     -10.273  -4.273   3.063  0.00  0.00    +0.032 A 
ATOM     26  C   UNL     1     -11.365  -4.531   2.251  0.00  0.00    +0.042 A 
ATOM     27  C   UNL     1     -11.415  -3.970   0.987  0.00  0.00    +0.129 A 
ATOM     28  N   UNL     1     -10.439  -3.196   0.550  0.00  0.00    -0.241 NA
ATOM     29  C   UNL     1      -9.386  -2.920   1.294  0.00  0.00    +0.140 A 
ATOM     30 CL   UNL     1     -12.780  -4.288  -0.038  0.00  0.00    -0.062 Cl
ENDBRANCH  14  24
BRANCH  21  31
ATOM     31  C   UNL     1       2.186  -1.482   1.220  0.00  0.00    +0.190 C 
ATOM     32  O   UNL     1       2.170  -2.609   0.785  0.00  0.00    -0.292 OA
BRANCH  31  33
ATOM     33  C   UNL     1       3.499  -0.818   1.544  0.00  0.00    +0.233 C 
BRANCH  33  34
ATOM     34  O   UNL     1       4.572  -1.716   1.254  0.00  0.00    -0.387 OA
ATOM     35  H   UNL     1       5.449  -1.354   1.439  0.00  0.00    +0.210 HD
ENDBRANCH  33  34
ENDBRANCH  31  33
ENDBRANCH  21  31
BRANCH  21  36
ATOM     36  O   UNL     1       1.002   0.165   2.529  0.00  0.00    -0.380 OA
ATOM     37  H   UNL     1       1.664   0.858   2.400  0.00  0.00    +0.211 HD
ENDBRANCH  21  36
BRANCH  18  38
ATOM     38  O   UNL     1      -2.255  -1.173   4.072  0.00  0.00    -0.391 OA
ATOM     39  H   UNL     1      -1.744  -0.878   4.839  0.00  0.00    +0.210 HD
ENDBRANCH  18  38
TORSDOF 6
