REMARK  Name = ZINC12455022
REMARK  8 active torsions:
REMARK  status: ('A' for Active; 'I' for Inactive)
REMARK    1  A    between atoms: C_1  and  N_2
REMARK    2  A    between atoms: C_3  and  C_5
REMARK    3  A    between atoms: N_7  and  C_29
REMARK    4  A    between atoms: C_9  and  C_12
REMARK    5  A    between atoms: N_14  and  C_15
REMARK    6  A    between atoms: C_15  and  C_16
REMARK    7  A    between atoms: C_16  and  C_18
REMARK    8  A    between atoms: C_16  and  N_70
REMARK                            x       y       z     vdW  Elec       q    Type
REMARK                         _______ _______ _______ _____ _____    ______ ____
ROOT
ATOM      1  C   UNL     1      -6.404   0.880   1.348  0.00  0.00    +0.249 C 
ATOM      2  O   UNL     1      -6.514   1.988   1.835  0.00  0.00    -0.270 OA
ATOM      3  N   UNL     1      -7.472   0.286   0.778  0.00  0.00    -0.312 N 
ATOM      4  H   UNL     1      -7.384  -0.598   0.389  0.00  0.00    +0.149 HD
ENDROOT
BRANCH   1   9
ATOM      5  C   UNL     1      -2.669   0.052   1.984  0.00  0.00    +0.100 A 
ATOM      6  C   UNL     1      -2.670  -1.196   1.401  0.00  0.00    +0.102 A 
ATOM      7  N   UNL     1      -3.783  -1.713   0.855  0.00  0.00    -0.349 N 
ATOM      8  C   UNL     1      -4.962  -1.070   0.832  0.00  0.00    +0.102 A 
ATOM      9  C   UNL     1      -5.105   0.186   1.380  0.00  0.00    +0.100 A 
ATOM     10  C   UNL     1      -3.929   0.815   2.002  0.00  0.00    +0.206 A 
ATOM     11  O   UNL     1      -3.993   1.923   2.508  0.00  0.00    -0.286 OA
BRANCH   7  12
ATOM     12  C   UNL     1      -3.707  -3.047   0.253  0.00  0.00    +0.087 C 
ATOM     13  C   UNL     1      -3.282  -4.062   1.315  0.00  0.00    +0.025 C 
ATOM     14  C   UNL     1      -3.202  -5.455   0.686  0.00  0.00    +0.002 C 
ATOM     15  C   UNL     1      -2.176  -5.444  -0.448  0.00  0.00    +0.000 C 
ATOM     16  C   UNL     1      -2.601  -4.429  -1.511  0.00  0.00    +0.002 C 
ATOM     17  C   UNL     1      -2.681  -3.036  -0.882  0.00  0.00    +0.025 C 
ENDBRANCH   7  12
BRANCH   5  20
ATOM     18  C   UNL     1       0.923   0.446   3.144  0.00  0.00    +0.128 C 
ATOM     19  N   UNL     1      -0.299  -0.108   2.558  0.00  0.00    -0.314 N 
ATOM     20  C   UNL     1      -1.442   0.607   2.579  0.00  0.00    +0.249 C 
ATOM     21  O   UNL     1      -1.458   1.711   3.090  0.00  0.00    -0.270 OA
ATOM     22  H   UNL     1      -0.286  -0.989   2.150  0.00  0.00    +0.149 HD
ENDBRANCH   5  20
ENDBRANCH   1   9
BRANCH   3  23
ATOM     23  C   UNL     1      -8.764   0.976   0.746  0.00  0.00    +0.094 C 
BRANCH  23  24
ATOM     24  C   UNL     1      -9.798   0.090   0.049  0.00  0.00    -0.020 C 
BRANCH  24  30
ATOM     25  C   UNL     1      -9.106   0.898  -2.125  0.00  0.00    -0.078 C 
ATOM     26  C   UNL     1      -8.455   0.483  -3.446  0.00  0.00    -0.019 C 
ATOM     27  C   UNL     1      -9.356  -0.529  -4.158  0.00  0.00    -0.004 C 
ATOM     28  C   UNL     1      -9.584  -1.732  -3.239  0.00  0.00    -0.019 C 
ATOM     29  C   UNL     1     -10.203  -1.253  -1.924  0.00  0.00    -0.078 C 
ATOM     30  N   UNL     1      -9.276  -0.301  -1.277  0.00  0.00    +0.385 N 
ATOM     31  H   UNL     1      -8.363  -0.755  -1.155  0.00  0.00    -0.081 HD
ENDBRANCH  24  30
BRANCH  24  32
ATOM     32  C   UNL     1     -11.093   0.846  -0.093  0.00  0.00    -0.059 A 
ATOM     33  C   UNL     1     -12.281   0.265   0.309  0.00  0.00    +0.002 A 
ATOM     34  C   UNL     1     -13.469   0.961   0.183  0.00  0.00    +0.000 A 
ATOM     35  C   UNL     1     -13.470   2.235  -0.354  0.00  0.00    +0.000 A 
ATOM     36  C   UNL     1     -12.283   2.814  -0.761  0.00  0.00    +0.000 A 
ATOM     37  C   UNL     1     -11.095   2.120  -0.631  0.00  0.00    +0.002 A 
ENDBRANCH  24  32
ENDBRANCH  23  24
ENDBRANCH   3  23
TORSDOF 7
