REMARK  Name = ZINC35784706
REMARK  15 active torsions:
REMARK  status: ('A' for Active; 'I' for Inactive)
REMARK    1  A    between atoms: C_1  and  C_2
REMARK    2  A    between atoms: C_2  and  C_3
REMARK    3  A    between atoms: C_3  and  C_4
REMARK    4  A    between atoms: C_4  and  C_5
REMARK    5  A    between atoms: C_5  and  C_7
REMARK    6  A    between atoms: C_5  and  O_37
REMARK    7  A    between atoms: C_7  and  N_8
REMARK    8  A    between atoms: N_8  and  C_9
REMARK    9  A    between atoms: N_8  and  C_30
REMARK   10  A    between atoms: C_9  and  C_10
REMARK   11  A    between atoms: C_11  and  C_29
REMARK   12  A    between atoms: N_13  and  C_23
REMARK   13  A    between atoms: C_14  and  O_15
REMARK   14  A    between atoms: O_15  and  C_16
REMARK   15  A    between atoms: C_30  and  C_31
REMARK                            x       y       z     vdW  Elec       q    Type
REMARK                         _______ _______ _______ _____ _____    ______ ____
ROOT
ATOM      1  C   UNL     1       0.736  -6.012  -3.864  0.00  0.00    +0.021 A 
ATOM      2  C   UNL     1      -0.239  -6.037  -2.862  0.00  0.00    +0.065 A 
ATOM      3  N   UNL     1      -1.416  -6.090  -3.431  0.00  0.00    -0.168 NA
ATOM      4  N   UNL     1      -1.235  -6.101  -4.820  0.00  0.00    -0.200 N 
ATOM      5  C   UNL     1       0.102  -6.047  -5.066  0.00  0.00    +0.225 A 
ATOM      6  C   UNL     1       0.021  -6.008  -1.378  0.00  0.00    +0.068 C 
ENDROOT
BRANCH   4   7
ATOM      7  C   UNL     1      -2.250  -6.153  -5.785  0.00  0.00    +0.069 A 
ATOM      8  C   UNL     1      -2.161  -5.375  -6.932  0.00  0.00    +0.028 A 
ATOM      9  C   UNL     1      -3.163  -5.429  -7.881  0.00  0.00    +0.002 A 
ATOM     10  C   UNL     1      -4.254  -6.257  -7.690  0.00  0.00    +0.000 A 
ATOM     11  C   UNL     1      -4.346  -7.032  -6.549  0.00  0.00    +0.002 A 
ATOM     12  C   UNL     1      -3.345  -6.987  -5.599  0.00  0.00    +0.028 A 
ENDBRANCH   4   7
BRANCH   1  13
ATOM     13  C   UNL     1       2.227  -5.952  -3.649  0.00  0.00    -0.036 C 
BRANCH  13  14
ATOM     14  N   UNL     1       2.680  -4.558  -3.752  0.00  0.00    +0.386 N 
ATOM     15  H   UNL     1       2.381  -4.172  -4.635  0.00  0.00    -0.081 HD
BRANCH  14  16
ATOM     16  C   UNL     1       2.104  -3.773  -2.653  0.00  0.00    -0.047 C 
BRANCH  16  17
ATOM     17  C   UNL     1       2.474  -2.299  -2.830  0.00  0.00    +0.098 C 
BRANCH  17  18
ATOM     18  O   UNL     1       1.861  -1.794  -4.018  0.00  0.00    -0.394 OA
ATOM     19  H   UNL     1       0.895  -1.847  -4.015  0.00  0.00    +0.210 HD
ENDBRANCH  17  18
BRANCH  17  20
ATOM     20  C   UNL     1       1.981  -1.500  -1.622  0.00  0.00    +0.029 C 
BRANCH  20  21
ATOM     21  C   UNL     1       2.458  -0.051  -1.739  0.00  0.00    +0.002 C 
BRANCH  21  23
ATOM     22  C   UNL     1       2.443   2.196  -0.648  0.00  0.00    +0.004 C 
ATOM     23  C   UNL     1       1.965   0.747  -0.531  0.00  0.00    -0.003 C 
ENDBRANCH  21  23
ENDBRANCH  20  21
ENDBRANCH  17  20
ENDBRANCH  16  17
ENDBRANCH  14  16
BRANCH  14  24
ATOM     24  C   UNL     1       4.146  -4.513  -3.670  0.00  0.00    -0.046 C 
BRANCH  24  25
ATOM     25  C   UNL     1       4.747  -5.202  -4.897  0.00  0.00    +0.102 C 
ATOM     26  C   UNL     1       6.288  -5.149  -4.825  0.00  0.00    +0.032 C 
ATOM     27  C   UNL     1       6.679  -4.882  -6.304  0.00  0.00    +0.030 C 
ATOM     28  C   UNL     1       5.500  -3.987  -6.763  0.00  0.00    +0.160 C 
ATOM     29  O   UNL     1       4.344  -4.513  -6.087  0.00  0.00    -0.378 OA
ENDBRANCH  24  25
ENDBRANCH  14  24
ENDBRANCH  13  14
ENDBRANCH   1  13
BRANCH   5  30
ATOM     30  O   UNL     1       0.694  -6.033  -6.287  0.00  0.00    -0.438 OA
BRANCH  30  31
ATOM     31  C   UNL     1       0.948  -7.226  -6.886  0.00  0.00    +0.131 A 
ATOM     32  C   UNL     1       0.505  -8.405  -6.303  0.00  0.00    +0.049 A 
ATOM     33  C   UNL     1       0.764  -9.616  -6.914  0.00  0.00    +0.042 A 
ATOM     34  C   UNL     1       1.465  -9.655  -8.107  0.00  0.00    +0.124 A 
ATOM     35  C   UNL     1       1.908  -8.480  -8.690  0.00  0.00    +0.042 A 
ATOM     36  C   UNL     1       1.646  -7.266  -8.085  0.00  0.00    +0.049 A 
ATOM     37  F   UNL     1       1.717 -10.841  -8.703  0.00  0.00    -0.205 F 
ENDBRANCH  30  31
ENDBRANCH   5  30
TORSDOF 13
