REMARK  Name = ZINC40016858
REMARK  11 active torsions:
REMARK  status: ('A' for Active; 'I' for Inactive)
REMARK    1  A    between atoms: C_1  and  C_2
REMARK    2  A    between atoms: C_2  and  O_3
REMARK    3  A    between atoms: O_3  and  C_4
REMARK    4  A    between atoms: C_4  and  C_6
REMARK    5  A    between atoms: C_7  and  C_39
REMARK    6  A    between atoms: C_14  and  C_15
REMARK    7  A    between atoms: C_22  and  C_25
REMARK    8  A    between atoms: C_27  and  C_29
REMARK    9  A    between atoms: C_33  and  O_35
REMARK   10  A    between atoms: O_35  and  C_36
REMARK   11  A    between atoms: C_36  and  C_37
REMARK                            x       y       z     vdW  Elec       q    Type
REMARK                         _______ _______ _______ _____ _____    ______ ____
ROOT
ATOM      1  C   UNL     1       1.036  -2.839  -3.043  0.00  0.00    +0.085 C 
ATOM      2  C   UNL     1       1.451  -4.135  -3.168  0.00  0.00    +0.053 C 
ATOM      3  N   UNL     1       2.311  -4.480  -4.118  0.00  0.00    -0.228 NA
ATOM      4  C   UNL     1       2.827  -3.655  -4.994  0.00  0.00    +0.178 A 
ATOM      5  N   UNL     1       2.543  -2.310  -5.045  0.00  0.00    -0.275 N 
ATOM      6  C   UNL     1       3.133  -1.564  -5.989  0.00  0.00    +0.268 A 
ATOM      7  O   UNL     1       2.913  -0.370  -6.072  0.00  0.00    -0.266 OA
ATOM      8  C   UNL     1       4.055  -2.231  -6.918  0.00  0.00    +0.081 A 
ATOM      9  C   UNL     1       4.771  -1.708  -7.948  0.00  0.00    +0.028 C 
ATOM     10  S   UNL     1       3.980  -3.915  -6.328  0.00  0.00    -0.046 S 
ATOM     11  C   UNL     1       1.579  -1.821  -4.019  0.00  0.00    +0.162 C 
ATOM     12  C   UNL     1       0.928  -5.182  -2.218  0.00  0.00    +0.066 C 
ENDROOT
BRANCH   9  13
ATOM     13  C   UNL     1       5.524  -2.595  -8.843  0.00  0.00    -0.023 A 
ATOM     14  C   UNL     1       6.577  -2.090  -9.617  0.00  0.00    +0.011 A 
ATOM     15  C   UNL     1       7.283  -2.924 -10.450  0.00  0.00    +0.046 A 
ATOM     16  C   UNL     1       6.960  -4.279 -10.536  0.00  0.00    +0.124 A 
ATOM     17  C   UNL     1       5.908  -4.776  -9.771  0.00  0.00    -0.002 A 
ATOM     18  C   UNL     1       5.200  -3.956  -8.927  0.00  0.00    +0.015 A 
ATOM     19  C   UNL     1       5.784  -6.253 -10.092  0.00  0.00    +0.083 C 
ATOM     20  C   UNL     1       6.620  -6.369 -11.388  0.00  0.00    +0.175 C 
ATOM     21  O   UNL     1       7.533  -5.264 -11.279  0.00  0.00    -0.488 OA
ATOM     22  C   UNL     1       7.375  -7.699 -11.429  0.00  0.00    +0.052 C 
ENDBRANCH   9  13
BRANCH  11  23
ATOM     23  C   UNL     1       0.410  -1.196  -4.736  0.00  0.00    -0.016 A 
ATOM     24  C   UNL     1      -0.195  -1.865  -5.784  0.00  0.00    +0.006 A 
ATOM     25  C   UNL     1      -1.268  -1.294  -6.444  0.00  0.00    +0.004 A 
ATOM     26  C   UNL     1      -1.737  -0.053  -6.057  0.00  0.00    +0.045 A 
ATOM     27  C   UNL     1      -1.132   0.619  -5.006  0.00  0.00    +0.121 A 
ATOM     28  C   UNL     1      -0.059   0.042  -4.342  0.00  0.00    +0.051 A 
BRANCH  27  29
ATOM     29  O   UNL     1      -1.592   1.840  -4.623  0.00  0.00    -0.488 OA
BRANCH  29  30
ATOM     30  C   UNL     1      -2.703   2.370  -5.348  0.00  0.00    +0.256 C 
BRANCH  30  31
ATOM     31  C   UNL     1      -3.071   3.720  -4.787  0.00  0.00    +0.006 C 
ATOM     32  C   UNL     1      -3.319   4.720  -5.596  0.00  0.00    +0.007 C 
ENDBRANCH  30  31
ENDBRANCH  29  30
ENDBRANCH  27  29
ENDBRANCH  11  23
BRANCH   1  33
ATOM     33  C   UNL     1       0.126  -2.465  -2.041  0.00  0.00    +0.339 C 
ATOM     34  O   UNL     1      -0.408  -3.317  -1.354  0.00  0.00    -0.245 OA
BRANCH  33  35
ATOM     35  O   UNL     1      -0.157  -1.159  -1.838  0.00  0.00    -0.462 OA
BRANCH  35  37
ATOM     36  C   UNL     1      -1.282   0.665  -0.723  0.00  0.00    +0.048 C 
ATOM     37  C   UNL     1      -1.091  -0.851  -0.802  0.00  0.00    +0.229 C 
ENDBRANCH  35  37
ENDBRANCH  33  35
ENDBRANCH   1  33
TORSDOF 8
