REMARK  Name = ZINC03012013
REMARK  5 active torsions:
REMARK  status: ('A' for Active; 'I' for Inactive)
REMARK    1  A    between atoms: C_6  and  C_7
REMARK    2  A    between atoms: C_10  and  C_31
REMARK    3  A    between atoms: C_15  and  C_17
REMARK    4  A    between atoms: N_19  and  C_20
REMARK    5  A    between atoms: C_20  and  C_21
REMARK                            x       y       z     vdW  Elec       q    Type
REMARK                         _______ _______ _______ _____ _____    ______ ____
ROOT
ATOM      1  C   UNL     1      -1.293  -0.775   0.011  0.00  0.00    +0.104 C 
ATOM      2  C   UNL     1      -1.588  -1.269   1.431  0.00  0.00    +0.063 C 
ATOM      3  C   UNL     1      -0.417  -2.115   1.943  0.00  0.00    +0.215 C 
ATOM      4  N   UNL     1      -0.080  -3.121   0.932  0.00  0.00    -0.238 N 
ATOM      5  C   UNL     1      -0.446  -3.028  -0.381  0.00  0.00    +0.119 A 
ATOM      6  C   UNL     1       0.021  -4.115  -1.025  0.00  0.00    +0.078 A 
ATOM      7  C   UNL     1       0.703  -4.912  -0.078  0.00  0.00    +0.149 A 
ATOM      8  N   UNL     1       0.637  -4.306   1.094  0.00  0.00    -0.164 NA
ATOM      9  N   UNL     1      -1.180  -1.944  -0.883  0.00  0.00    -0.322 N 
ATOM     10  H   UNL     1      -1.590  -1.960  -1.762  0.00  0.00    +0.148 HD
ENDROOT
BRANCH   1  16
ATOM     11  C   UNL     1      -0.017   1.378   0.010  0.00  0.00    +0.007 A 
ATOM     12  C   UNL     1       1.171   2.086   0.002  0.00  0.00    +0.020 A 
ATOM     13  C   UNL     1       2.378   1.410  -0.013  0.00  0.00    +0.041 A 
ATOM     14  C   UNL     1       2.396   0.027  -0.021  0.00  0.00    +0.020 A 
ATOM     15  C   UNL     1       1.208  -0.679  -0.013  0.00  0.00    +0.007 A 
ATOM     16  C   UNL     1       0.002  -0.004   0.002  0.00  0.00    -0.027 A 
ATOM     17 CL   UNL     1       3.870   2.298  -0.023  0.00  0.00    -0.084 Cl
ENDBRANCH   1  16
BRANCH   7  18
ATOM     18  C   UNL     1       1.375  -6.199  -0.352  0.00  0.00    +0.264 C 
ATOM     19  O   UNL     1       1.370  -6.661  -1.476  0.00  0.00    -0.268 OA
ATOM     20  N   UNL     1       1.993  -6.862   0.646  0.00  0.00    -0.306 N 
ATOM     21  H   UNL     1       1.996  -6.494   1.544  0.00  0.00    +0.149 HD
BRANCH  20  22
ATOM     22  C   UNL     1       2.659  -8.139   0.375  0.00  0.00    +0.140 C 
BRANCH  22  23
ATOM     23  C   UNL     1       3.266  -8.669   1.648  0.00  0.00    -0.027 A 
ATOM     24  C   UNL     1       4.560  -8.324   1.990  0.00  0.00    +0.009 A 
ATOM     25  C   UNL     1       5.122  -8.807   3.158  0.00  0.00    +0.050 A 
ATOM     26  C   UNL     1       4.388  -9.639   3.987  0.00  0.00    +0.166 A 
ATOM     27  C   UNL     1       3.084  -9.987   3.643  0.00  0.00    +0.167 A 
ATOM     28  C   UNL     1       2.526  -9.494   2.474  0.00  0.00    +0.054 A 
ATOM     29  O   UNL     1       2.580 -10.806   4.611  0.00  0.00    -0.453 OA
ATOM     30  C   UNL     1       3.724 -11.285   5.343  0.00  0.00    +0.466 C 
ATOM     31  O   UNL     1       4.701 -10.241   5.172  0.00  0.00    -0.453 OA
ENDBRANCH  22  23
ENDBRANCH  20  22
ENDBRANCH   7  18
BRANCH   3  32
ATOM     32  C   UNL     1      -0.818  -2.810   3.247  0.00  0.00    +0.412 C 
ATOM     33  F   UNL     1      -1.922  -3.636   3.014  0.00  0.00    -0.168 F 
ATOM     34  F   UNL     1       0.252  -3.581   3.712  0.00  0.00    -0.168 F 
ATOM     35  F   UNL     1      -1.150  -1.846   4.205  0.00  0.00    -0.168 F 
ENDBRANCH   3  32
TORSDOF 5
