REMARK  Name = ZINC07660693
REMARK  6 active torsions:
REMARK  status: ('A' for Active; 'I' for Inactive)
REMARK    1  A    between atoms: C_1  and  C_2
REMARK    2  A    between atoms: C_2  and  C_3
REMARK    3  A    between atoms: C_2  and  C_4
REMARK    4  A    between atoms: C_2  and  C_5
REMARK    5  A    between atoms: C_17  and  C_20
REMARK    6  A    between atoms: N_24  and  C_25
REMARK                            x       y       z     vdW  Elec       q    Type
REMARK                         _______ _______ _______ _____ _____    ______ ____
ROOT
ATOM      1  C   UNL     1       0.718  -0.497  -1.257  0.00  0.00    -0.000 C 
ATOM      2  C   UNL     1      -0.017   0.014  -2.499  0.00  0.00    +0.009 C 
ATOM      3  C   UNL     1       0.539  -0.669  -3.750  0.00  0.00    +0.037 C 
ATOM      4  C   UNL     1       2.053  -0.511  -3.762  0.00  0.00    -0.023 A 
ATOM      5  C   UNL     1       2.731  -0.194  -2.637  0.00  0.00    -0.004 A 
ATOM      6  S   UNL     1       4.430  -0.122  -3.136  0.00  0.00    -0.078 S 
ATOM      7  C   UNL     1       4.260  -0.486  -4.746  0.00  0.00    +0.080 A 
ATOM      8  C   UNL     1       2.885  -0.680  -4.941  0.00  0.00    +0.068 A 
ATOM      9  C   UNL     1       2.427  -1.038  -6.303  0.00  0.00    +0.248 C 
ATOM     10  O   UNL     1       1.282  -1.397  -6.514  0.00  0.00    -0.270 OA
ATOM     11  N   UNL     1       3.331  -0.951  -7.302  0.00  0.00    -0.288 N 
ATOM     12  C   UNL     1       4.663  -0.380  -7.134  0.00  0.00    +0.207 C 
ATOM     13  N   UNL     1       5.171  -0.597  -5.768  0.00  0.00    -0.315 N 
ATOM     14  C   UNL     1       2.158   0.038  -1.273  0.00  0.00    +0.046 C 
ATOM     15  H   UNL     1       3.082  -1.286  -8.178  0.00  0.00    +0.151 HD
ATOM     16  H   UNL     1       6.103  -0.808  -5.598  0.00  0.00    +0.149 HD
ENDROOT
BRANCH  12  17
ATOM     17  C   UNL     1       4.603   1.101  -7.407  0.00  0.00    +0.057 A 
ATOM     18  C   UNL     1       5.397   2.039  -6.852  0.00  0.00    +0.026 A 
ATOM     19  C   UNL     1       5.007   3.286  -7.380  0.00  0.00    +0.019 A 
ATOM     20  C   UNL     1       3.990   3.062  -8.237  0.00  0.00    +0.086 A 
ATOM     21  N   UNL     1       3.742   1.721  -8.262  0.00  0.00    -0.351 N 
ATOM     22  C   UNL     1       2.716   1.058  -9.071  0.00  0.00    +0.148 C 
ENDBRANCH  12  17
BRANCH   1  24
ATOM     23  C   UNL     1      -0.019   1.526   0.010  0.00  0.00    +0.011 C 
ATOM     24  C   UNL     1       0.002  -0.004   0.002  0.00  0.00    -0.035 C 
ATOM     25  C   UNL     1       0.742  -0.511   1.242  0.00  0.00    +0.011 C 
ATOM     26  C   UNL     1      -1.433  -0.534   0.013  0.00  0.00    +0.011 C 
ENDBRANCH   1  24
TORSDOF 2
