REMARK  Name = ZINC34747171
REMARK  5 active torsions:
REMARK  status: ('A' for Active; 'I' for Inactive)
REMARK    1  A    between atoms: C_2  and  C_3
REMARK    2  A    between atoms: C_3  and  N_4
REMARK    3  A    between atoms: N_23  and  C_24
REMARK    4  A    between atoms: C_24  and  C_25
REMARK    5  A    between atoms: N_27  and  C_28
REMARK                            x       y       z     vdW  Elec       q    Type
REMARK                         _______ _______ _______ _____ _____    ______ ____
ROOT
ATOM      1  N   UNL     1       0.388  -1.675   1.863  0.00  0.00    +0.384 N 
ATOM      2  C   UNL     1       0.184  -2.359   3.147  0.00  0.00    -0.059 C 
ATOM      3  C   UNL     1       1.418  -3.206   3.475  0.00  0.00    +0.089 C 
ATOM      4  N   UNL     1       1.680  -4.107   2.342  0.00  0.00    -0.304 N 
ATOM      5  C   UNL     1       1.738  -3.525   0.993  0.00  0.00    +0.089 C 
ATOM      6  C   UNL     1       0.489  -2.663   0.781  0.00  0.00    -0.059 C 
ATOM      7  C   UNL     1       1.865  -5.453   2.539  0.00  0.00    +0.202 A 
ATOM      8  N   UNL     1       0.818  -6.250   2.607  0.00  0.00    -0.208 NA
ATOM      9  C   UNL     1       0.969  -7.556   2.796  0.00  0.00    +0.117 A 
ATOM     10  C   UNL     1       2.234  -8.150   2.933  0.00  0.00    +0.076 A 
ATOM     11  C   UNL     1       2.241  -9.600   3.138  0.00  0.00    -0.023 A 
ATOM     12  C   UNL     1       1.044 -10.218   3.174  0.00  0.00    -0.004 A 
ATOM     13  S   UNL     1      -0.148  -8.927   2.942  0.00  0.00    -0.073 S 
ATOM     14  C   UNL     1       0.783 -11.681   3.369  0.00  0.00    +0.043 C 
ATOM     15  C   UNL     1       2.100 -12.441   3.155  0.00  0.00    +0.005 C 
ATOM     16  C   UNL     1       3.206 -11.740   3.949  0.00  0.00    +0.005 C 
ATOM     17  C   UNL     1       3.534 -10.393   3.305  0.00  0.00    +0.037 C 
ATOM     18  C   UNL     1       3.352  -7.260   2.855  0.00  0.00    +0.264 A 
ATOM     19  O   UNL     1       4.489  -7.685   2.962  0.00  0.00    -0.267 OA
ATOM     20  N   UNL     1       3.130  -5.947   2.656  0.00  0.00    -0.271 N 
ATOM     21  H   UNL     1       1.240  -1.135   1.905  0.00  0.00    -0.081 HD
ENDROOT
BRANCH   1  22
ATOM     22  C   UNL     1      -0.746  -0.779   1.602  0.00  0.00    -0.052 C 
BRANCH  22  24
ATOM     23  C   UNL     1      -0.776   1.567   2.279  0.00  0.00    +0.002 C 
ATOM     24  C   UNL     1      -0.777   0.309   2.645  0.00  0.00    -0.053 C 
ENDBRANCH  22  24
ENDBRANCH   1  22
BRANCH  20  25
ATOM     25  C   UNL     1       4.270  -5.031   2.570  0.00  0.00    +0.224 C 
BRANCH  25  26
ATOM     26  C   UNL     1       4.686  -4.614   3.957  0.00  0.00    +0.237 C 
ATOM     27  O   UNL     1       4.088  -5.041   4.923  0.00  0.00    -0.274 OA
ATOM     28  N   UNL     1       5.721  -3.768   4.125  0.00  0.00    -0.284 N 
ATOM     29  H   UNL     1       6.145  -3.361   3.353  0.00  0.00    +0.155 HD
BRANCH  28  30
ATOM     30  C   UNL     1       6.185  -3.476   5.413  0.00  0.00    +0.033 A 
ATOM     31  C   UNL     1       6.826  -2.271   5.665  0.00  0.00    +0.023 A 
ATOM     32  C   UNL     1       7.283  -1.985   6.936  0.00  0.00    +0.002 A 
ATOM     33  C   UNL     1       7.101  -2.899   7.959  0.00  0.00    +0.000 A 
ATOM     34  C   UNL     1       6.463  -4.100   7.711  0.00  0.00    +0.002 A 
ATOM     35  C   UNL     1       5.999  -4.389   6.443  0.00  0.00    +0.023 A 
ENDBRANCH  28  30
ENDBRANCH  25  26
ENDBRANCH  20  25
TORSDOF 5
