REMARK  Name = ZINC08369910
REMARK  6 active torsions:
REMARK  status: ('A' for Active; 'I' for Inactive)
REMARK    1  A    between atoms: C_1  and  C_2
REMARK    2  A    between atoms: C_5  and  C_27
REMARK    3  A    between atoms: C_6  and  N_8
REMARK    4  A    between atoms: C_9  and  C_11
REMARK    5  A    between atoms: C_12  and  C_26
REMARK    6  A    between atoms: C_17  and  C_19
REMARK                            x       y       z     vdW  Elec       q    Type
REMARK                         _______ _______ _______ _____ _____    ______ ____
ROOT
ATOM      1  C   UNL     1      -0.938   3.525   0.151  0.00  0.00    +0.056 C 
ATOM      2  C   UNL     1       0.167   4.277  -0.038  0.00  0.00    +0.017 C 
ATOM      3  N   UNL     1       1.416   3.740   0.089  0.00  0.00    -0.300 N 
ATOM      4  C   UNL     1       1.645   2.458   0.402  0.00  0.00    +0.135 C 
ATOM      5  S   UNL     1       3.263   1.913   0.530  0.00  0.00    -0.019 S 
ATOM      6  N   UNL     1       0.643   1.584   0.621  0.00  0.00    -0.315 N 
ATOM      7  C   UNL     1      -0.744   2.064   0.503  0.00  0.00    +0.139 C 
ATOM      8  C   UNL     1       0.019   5.734  -0.395  0.00  0.00    +0.061 C 
ATOM      9  H   UNL     1       2.180   4.319  -0.057  0.00  0.00    +0.154 HD
ATOM     10  H   UNL     1       0.831   0.660   0.847  0.00  0.00    +0.149 HD
ENDROOT
BRANCH   7  11
ATOM     11  C   UNL     1      -1.437   1.811   1.817  0.00  0.00    -0.023 A 
ATOM     12  C   UNL     1      -0.773   2.052   3.005  0.00  0.00    +0.007 A 
ATOM     13  C   UNL     1      -1.410   1.826   4.211  0.00  0.00    +0.020 A 
ATOM     14  C   UNL     1      -2.708   1.347   4.229  0.00  0.00    +0.041 A 
ATOM     15  C   UNL     1      -3.369   1.101   3.039  0.00  0.00    +0.020 A 
ATOM     16  C   UNL     1      -2.734   1.333   1.834  0.00  0.00    +0.007 A 
ATOM     17 CL   UNL     1      -3.505   1.055   5.743  0.00  0.00    -0.084 Cl
ENDBRANCH   7  11
BRANCH   1  19
ATOM     18  N   UNL     1      -2.714   4.903   0.975  0.00  0.00    -0.281 N 
ATOM     19  C   UNL     1      -2.234   4.081   0.021  0.00  0.00    +0.248 C 
ATOM     20  O   UNL     1      -2.915   3.817  -0.953  0.00  0.00    -0.270 OA
ATOM     21  H   UNL     1      -2.139   5.190   1.702  0.00  0.00    +0.155 HD
BRANCH  18  27
ATOM     22  C   UNL     1      -6.657   6.116  -1.698  0.00  0.00    +0.044 C 
ATOM     23  C   UNL     1      -5.976   5.939  -0.365  0.00  0.00    -0.049 A 
ATOM     24  C   UNL     1      -6.665   6.211   0.803  0.00  0.00    +0.004 A 
ATOM     25  C   UNL     1      -6.044   6.050   2.028  0.00  0.00    +0.005 A 
ATOM     26  C   UNL     1      -4.736   5.612   2.089  0.00  0.00    -0.029 A 
ATOM     27  C   UNL     1      -4.040   5.343   0.917  0.00  0.00    +0.037 A 
ATOM     28  C   UNL     1      -4.666   5.505  -0.312  0.00  0.00    +0.027 A 
ATOM     29  C   UNL     1      -4.062   5.431   3.425  0.00  0.00    +0.045 C 
ENDBRANCH  18  27
ENDBRANCH   1  19
TORSDOF 3
