REMARK  Name = ZINC31118991
REMARK  11 active torsions:
REMARK  status: ('A' for Active; 'I' for Inactive)
REMARK    1  A    between atoms: C_1  and  C_2
REMARK    2  A    between atoms: C_2  and  C_3
REMARK    3  A    between atoms: C_6  and  N_9
REMARK    4  A    between atoms: C_11  and  C_16
REMARK    5  A    between atoms: N_18  and  C_19
REMARK    6  A    between atoms: C_19  and  C_20
REMARK    7  A    between atoms: C_20  and  C_21
REMARK    8  A    between atoms: C_21  and  C_22
REMARK    9  A    between atoms: C_23  and  C_35
REMARK   10  A    between atoms: C_24  and  N_34
REMARK   11  A    between atoms: N_25  and  C_27
REMARK                            x       y       z     vdW  Elec       q    Type
REMARK                         _______ _______ _______ _____ _____    ______ ____
ROOT
ATOM      1  C   UNL     1      -0.974   9.331   3.968  0.00  0.00    +0.104 C 
ENDROOT
BRANCH   1   4
ATOM      2  C   UNL     1      -1.136   8.054   1.899  0.00  0.00    +0.218 C 
ATOM      3  O   UNL     1      -1.703   7.179   2.518  0.00  0.00    -0.275 OA
ATOM      4  N   UNL     1      -0.730   9.173   2.533  0.00  0.00    -0.315 N 
ATOM      5  H   UNL     1      -0.215   9.966   1.971  0.00  0.00    +0.149 HD
BRANCH   2   8
ATOM      6  N   UNL     1      -0.075   5.668   0.033  0.00  0.00    -0.271 N 
ATOM      7  C   UNL     1      -1.294   6.481  -0.063  0.00  0.00    +0.127 C 
ATOM      8  C   UNL     1      -0.885   7.891   0.422  0.00  0.00    +0.101 C 
ATOM      9  C   UNL     1       0.630   7.903   0.114  0.00  0.00    +0.110 C 
ATOM     10  C   UNL     1       1.021   6.441   0.124  0.00  0.00    +0.221 C 
ATOM     11  O   UNL     1       2.159   6.027   0.203  0.00  0.00    -0.275 OA
BRANCH   6  15
ATOM     12  C   UNL     1      -0.018   1.503   0.010  0.00  0.00    -0.048 A 
ATOM     13  C   UNL     1      -1.226   2.176   0.035  0.00  0.00    +0.005 A 
ATOM     14  C   UNL     1      -1.248   3.557   0.048  0.00  0.00    +0.024 A 
ATOM     15  C   UNL     1      -0.056   4.269   0.025  0.00  0.00    +0.036 A 
ATOM     16  C   UNL     1       1.155   3.590  -0.005  0.00  0.00    +0.024 A 
ATOM     17  C   UNL     1       1.170   2.209  -0.013  0.00  0.00    +0.005 A 
BRANCH  12  19
ATOM     18  C   UNL     1       0.041  -0.521   1.441  0.00  0.00    +0.009 C 
ATOM     19  C   UNL     1       0.002  -0.004   0.002  0.00  0.00    +0.032 C 
ENDBRANCH  12  19
ENDBRANCH   6  15
ENDBRANCH   2   8
ENDBRANCH   1   4
BRANCH   1  20
ATOM     20  C   UNL     1      -0.418  10.678   4.434  0.00  0.00    +0.025 C 
BRANCH  20  21
ATOM     21  C   UNL     1      -0.673  10.844   5.934  0.00  0.00    +0.060 C 
BRANCH  21  22
ATOM     22  C   UNL     1      -0.125  12.171   6.393  0.00  0.00    +0.083 A 
ATOM     23  C   UNL     1      -0.833  13.395   6.420  0.00  0.00    +0.114 A 
ATOM     24  C   UNL     1       0.041  14.361   6.911  0.00  0.00    +0.138 A 
ATOM     25  N   UNL     1       1.216  13.741   7.165  0.00  0.00    -0.217 N 
ATOM     26  N   UNL     1       1.081  12.386   6.839  0.00  0.00    -0.168 NA
BRANCH  25  27
ATOM     27  C   UNL     1       2.372  14.350   7.672  0.00  0.00    +0.068 A 
ATOM     28  C   UNL     1       2.689  15.651   7.306  0.00  0.00    +0.030 A 
ATOM     29  C   UNL     1       3.826  16.252   7.810  0.00  0.00    +0.040 A 
ATOM     30  C   UNL     1       4.654  15.554   8.673  0.00  0.00    +0.124 A 
ATOM     31  C   UNL     1       4.342  14.254   9.036  0.00  0.00    +0.040 A 
ATOM     32  C   UNL     1       3.204  13.652   8.537  0.00  0.00    +0.030 A 
ATOM     33  F   UNL     1       5.769  16.141   9.161  0.00  0.00    -0.205 F 
ENDBRANCH  25  27
BRANCH  24  34
ATOM     34  N   UNL     1      -0.238  15.700   7.102  0.00  0.00    -0.342 N 
ATOM     35  H   UNL     1       0.537  16.373   7.498  0.00  0.00    +0.144 HD
ATOM     36  H   UNL     1      -1.236  16.094   6.857  0.00  0.00    +0.144 HD
ENDBRANCH  24  34
BRANCH  23  37
ATOM     37  C   UNL     1      -2.192  13.602   6.018  0.00  0.00    +0.104 C 
ATOM     38  N   UNL     1      -3.270  13.766   5.699  0.00  0.00    -0.191 NA
ENDBRANCH  23  37
ENDBRANCH  21  22
ENDBRANCH  20  21
ENDBRANCH   1  20
TORSDOF 10
