REMARK  Name = ZINC08582808
REMARK  14 active torsions:
REMARK  status: ('A' for Active; 'I' for Inactive)
REMARK    1  A    between atoms: C_1  and  C_2
REMARK    2  A    between atoms: C_2  and  C_3
REMARK    3  A    between atoms: C_3  and  C_5
REMARK    4  A    between atoms: C_3  and  N_65
REMARK    5  A    between atoms: N_9  and  C_10
REMARK    6  A    between atoms: C_10  and  C_11
REMARK    7  A    between atoms: C_11  and  O_13
REMARK    8  A    between atoms: O_13  and  C_14
REMARK    9  A    between atoms: C_14  and  C_15
REMARK   10  A    between atoms: C_16  and  C_17
REMARK   11  A    between atoms: C_16  and  N_65
REMARK   12  A    between atoms: C_22  and  C_28
REMARK   13  A    between atoms: C_26  and  O_27
REMARK   14  A    between atoms: C_29  and  N_65
REMARK                            x       y       z     vdW  Elec       q    Type
REMARK                         _______ _______ _______ _____ _____    ______ ____
ROOT
ATOM      1  N   UNL     1       0.457   3.866  -1.782  0.00  0.00    +0.391 N 
ATOM      2  H   UNL     1       0.974   3.487  -2.584  0.00  0.00    -0.080 HD
ENDROOT
BRANCH   1   3
ATOM      3  C   UNL     1      -0.970   3.990  -2.144  0.00  0.00    -0.067 C 
ATOM      4  C   UNL     1      -1.524   2.604  -2.535  0.00  0.00    -0.015 C 
ATOM      5  C   UNL     1      -2.483   2.898  -3.715  0.00  0.00    -0.002 C 
ATOM      6  C   UNL     1      -1.740   4.013  -4.492  0.00  0.00    -0.002 C 
ATOM      7  C   UNL     1      -1.108   4.886  -3.388  0.00  0.00    -0.015 C 
ENDBRANCH   1   3
BRANCH   1   8
ATOM      8  C   UNL     1       1.008   5.195  -1.441  0.00  0.00    +0.003 C 
BRANCH   8   9
ATOM      9  C   UNL     1       0.589   5.599  -0.051  0.00  0.00    +0.139 A 
ATOM     10  N   UNL     1       0.894   4.988   1.067  0.00  0.00    -0.115 NA
ATOM     11  N   UNL     1       0.351   5.639   2.037  0.00  0.00    -0.023 NA
ATOM     12  N   UNL     1      -0.299   6.646   1.566  0.00  0.00    -0.043 NA
ATOM     13  N   UNL     1      -0.176   6.655   0.282  0.00  0.00    -0.220 N 
BRANCH  13  14
ATOM     14  C   UNL     1      -0.761   7.632  -0.641  0.00  0.00    +0.267 C 
BRANCH  14  15
ATOM     15  C   UNL     1      -2.125   7.160  -1.074  0.00  0.00    +0.329 C 
ATOM     16  O   UNL     1      -2.564   6.115  -0.655  0.00  0.00    -0.249 OA
BRANCH  15  17
ATOM     17  O   UNL     1      -2.853   7.900  -1.925  0.00  0.00    -0.464 OA
BRANCH  17  18
ATOM     18  C   UNL     1      -4.157   7.384  -2.298  0.00  0.00    +0.229 C 
ATOM     19  C   UNL     1      -4.832   8.357  -3.267  0.00  0.00    +0.048 C 
ENDBRANCH  17  18
ENDBRANCH  15  17
ENDBRANCH  14  15
ENDBRANCH  13  14
ENDBRANCH   8   9
BRANCH   8  21
ATOM     20  C   UNL     1       2.962   4.740  -2.931  0.00  0.00    +0.002 C 
ATOM     21  C   UNL     1       2.535   5.126  -1.513  0.00  0.00    -0.011 C 
ENDBRANCH   8  21
ENDBRANCH   1   8
BRANCH   1  22
ATOM     22  C   UNL     1       0.610   2.947  -0.634  0.00  0.00    -0.036 C 
BRANCH  22  23
ATOM     23  C   UNL     1       2.046   2.498  -0.563  0.00  0.00    -0.002 A 
ATOM     24  C   UNL     1       2.776   2.722   0.566  0.00  0.00    +0.017 A 
ATOM     25  C   UNL     1       4.116   2.285   0.592  0.00  0.00    +0.001 A 
ATOM     26  C   UNL     1       4.925   2.482   1.722  0.00  0.00    +0.010 A 
ATOM     27  C   UNL     1       6.215   2.046   1.711  0.00  0.00    +0.004 A 
ATOM     28  C   UNL     1       6.743   1.406   0.591  0.00  0.00    -0.048 A 
ATOM     29  C   UNL     1       5.987   1.200  -0.521  0.00  0.00    +0.031 A 
ATOM     30  C   UNL     1       4.651   1.635  -0.547  0.00  0.00    +0.075 A 
ATOM     31  N   UNL     1       3.884   1.444  -1.627  0.00  0.00    -0.213 NA
ATOM     32  C   UNL     1       2.633   1.849  -1.656  0.00  0.00    +0.214 A 
ATOM     33  C   UNL     1       8.175   0.936   0.613  0.00  0.00    +0.044 C 
BRANCH  32  34
ATOM     34  O   UNL     1       1.895   1.638  -2.774  0.00  0.00    -0.492 OA
ATOM     35  H   UNL     1       1.483   0.765  -2.814  0.00  0.00    +0.294 HD
ENDBRANCH  32  34
ENDBRANCH  22  23
ENDBRANCH   1  22
TORSDOF 11
