REMARK  Name = ZINC32802754
REMARK  6 active torsions:
REMARK  status: ('A' for Active; 'I' for Inactive)
REMARK    1  A    between atoms: C_4  and  C_7
REMARK    2  A    between atoms: C_7  and  C_8
REMARK    3  A    between atoms: C_7  and  N_17
REMARK    4  A    between atoms: N_20  and  C_21
REMARK    5  A    between atoms: C_21  and  C_22
REMARK    6  A    between atoms: C_22  and  C_23
REMARK                            x       y       z     vdW  Elec       q    Type
REMARK                         _______ _______ _______ _____ _____    ______ ____
ROOT
ATOM      1  N   UNL     1       3.630  -1.873   0.845  0.00  0.00    -0.289 N 
ATOM      2  C   UNL     1       3.871  -1.738   2.164  0.00  0.00    +0.300 C 
ATOM      3  O   UNL     1       4.155  -0.648   2.622  0.00  0.00    -0.253 OA
ATOM      4  N   UNL     1       3.796  -2.811   2.977  0.00  0.00    -0.299 N 
ATOM      5  H   UNL     1       3.403  -2.743   0.480  0.00  0.00    +0.151 HD
ATOM      6  H   UNL     1       3.569  -3.680   2.612  0.00  0.00    +0.150 HD
ENDROOT
BRANCH   1   7
ATOM      7  C   UNL     1       3.711  -0.707  -0.038  0.00  0.00    +0.135 C 
BRANCH   7   8
ATOM      8  C   UNL     1       4.014  -1.161  -1.442  0.00  0.00    -0.021 A 
ATOM      9  C   UNL     1       3.402  -2.299  -1.946  0.00  0.00    +0.008 A 
ATOM     10  C   UNL     1       3.663  -2.727  -3.217  0.00  0.00    +0.030 A 
ATOM     11  C   UNL     1       4.556  -2.014  -4.022  0.00  0.00    +0.089 A 
ATOM     12  C   UNL     1       5.176  -0.861  -3.512  0.00  0.00    +0.066 A 
ATOM     13  C   UNL     1       4.894  -0.438  -2.220  0.00  0.00    +0.033 A 
ATOM     14  N   UNL     1       5.986  -0.385  -4.524  0.00  0.00    -0.344 N 
ATOM     15  C   UNL     1       5.846  -1.227  -5.583  0.00  0.00    +0.197 A 
ATOM     16  N   UNL     1       5.010  -2.179  -5.291  0.00  0.00    -0.236 NA
ATOM     17  H   UNL     1       6.551   0.403  -4.486  0.00  0.00    +0.167 HD
ENDBRANCH   7   8
BRANCH   7  21
ATOM     18  C   UNL     1      -0.017   1.378   0.010  0.00  0.00    +0.000 A 
ATOM     19  C   UNL     1       1.171   2.086   0.002  0.00  0.00    +0.000 A 
ATOM     20  C   UNL     1       2.377   1.411  -0.013  0.00  0.00    +0.006 A 
ATOM     21  C   UNL     1       2.396   0.029  -0.020  0.00  0.00    -0.023 A 
ATOM     22  C   UNL     1       1.208  -0.679  -0.012  0.00  0.00    +0.006 A 
ATOM     23  C   UNL     1       0.002  -0.004   0.002  0.00  0.00    +0.000 A 
ENDBRANCH   7  21
ENDBRANCH   1   7
BRANCH   4  24
ATOM     24  C   UNL     1       4.058  -2.664   4.411  0.00  0.00    +0.110 C 
BRANCH  24  25
ATOM     25  C   UNL     1       3.908  -4.022   5.098  0.00  0.00    +0.054 C 
BRANCH  25  26
ATOM     26  C   UNL     1       4.177  -3.871   6.574  0.00  0.00    -0.042 A 
ATOM     27  C   UNL     1       5.463  -4.019   7.059  0.00  0.00    +0.007 A 
ATOM     28  C   UNL     1       5.714  -3.883   8.411  0.00  0.00    +0.050 A 
ATOM     29  C   UNL     1       4.676  -3.595   9.285  0.00  0.00    +0.162 A 
ATOM     30  C   UNL     1       3.383  -3.443   8.796  0.00  0.00    +0.162 A 
ATOM     31  C   UNL     1       3.139  -3.578   7.438  0.00  0.00    +0.053 A 
ATOM     32  O   UNL     1       2.351  -3.153   9.635  0.00  0.00    -0.485 OA
ATOM     33  C   UNL     1       2.570  -3.388  11.030  0.00  0.00    +0.270 C 
ATOM     34  C   UNL     1       3.942  -2.810  11.406  0.00  0.00    +0.270 C 
ATOM     35  O   UNL     1       4.937  -3.467  10.614  0.00  0.00    -0.485 OA
ENDBRANCH  25  26
ENDBRANCH  24  25
ENDBRANCH   4  24
TORSDOF 6
