REMARK  Name = ZINC41034521
REMARK  4 active torsions:
REMARK  status: ('A' for Active; 'I' for Inactive)
REMARK    1  A    between atoms: C_1  and  C_2
REMARK    2  A    between atoms: C_7  and  C_9
REMARK    3  A    between atoms: C_7  and  N_12
REMARK    4  A    between atoms: C_13  and  C_15
REMARK                            x       y       z     vdW  Elec       q    Type
REMARK                         _______ _______ _______ _____ _____    ______ ____
ROOT
ATOM      1  N   UNL     1       2.256   1.486   1.044  0.00  0.00    -0.296 N 
ATOM      2  C   UNL     1       1.859   2.148   2.149  0.00  0.00    +0.246 C 
ATOM      3  O   UNL     1       1.516   1.530   3.138  0.00  0.00    -0.270 OA
ATOM      4  H   UNL     1       2.530   1.979   0.255  0.00  0.00    +0.150 HD
ENDROOT
BRANCH   2   5
ATOM      5  C   UNL     1       1.839   3.626   2.157  0.00  0.00    +0.051 A 
ATOM      6  C   UNL     1       2.225   4.339   1.020  0.00  0.00    +0.029 A 
ATOM      7  C   UNL     1       2.204   5.719   1.035  0.00  0.00    +0.019 A 
ATOM      8  C   UNL     1       1.800   6.396   2.173  0.00  0.00    +0.016 A 
ATOM      9  C   UNL     1       1.415   5.696   3.302  0.00  0.00    +0.016 A 
ATOM     10  C   UNL     1       1.427   4.316   3.299  0.00  0.00    +0.026 A 
ATOM     11  I   UNL     1       0.836   3.258   5.008  0.00  0.00    -0.043 I 
ATOM     12 BR   UNL     1       2.728   6.686  -0.503  0.00  0.00    -0.050 Br
ENDBRANCH   2   5
BRANCH   1  18
ATOM     13  C   UNL     1      -0.087   1.524   0.176  0.00  0.00    +0.007 C 
ATOM     14  C   UNL     1      -0.066  -0.006   0.168  0.00  0.00    -0.012 C 
ATOM     15  C   UNL     1       0.442  -0.502  -1.187  0.00  0.00    +0.003 C 
ATOM     16  C   UNL     1       1.857   0.029  -1.427  0.00  0.00    +0.003 C 
ATOM     17  C   UNL     1       2.784  -0.475  -0.319  0.00  0.00    +0.037 C 
ATOM     18  C   UNL     1       2.276   0.021   1.036  0.00  0.00    +0.136 C 
ATOM     19  C   UNL     1       0.861  -0.509   1.276  0.00  0.00    +0.040 C 
BRANCH  18  20
ATOM     20  C   UNL     1       3.190  -0.475   2.127  0.00  0.00    +0.379 C 
ATOM     21  O   UNL     1       3.771   0.321   2.845  0.00  0.00    -0.244 OA
ATOM     22  O   UNL     1       3.348  -1.673   2.292  0.00  0.00    -0.244 OA
ENDBRANCH  18  20
ENDBRANCH   1  18
TORSDOF 3
