REMARK  Name = ZINC25616127
REMARK  10 active torsions:
REMARK  status: ('A' for Active; 'I' for Inactive)
REMARK    1  A    between atoms: C_1  and  C_2
REMARK    2  A    between atoms: C_2  and  C_3
REMARK    3  A    between atoms: C_8  and  N_9
REMARK    4  A    between atoms: C_13  and  S_14
REMARK    5  A    between atoms: S_14  and  C_15
REMARK    6  A    between atoms: C_15  and  C_16
REMARK    7  A    between atoms: N_18  and  C_19
REMARK    8  A    between atoms: C_19  and  C_20
REMARK    9  A    between atoms: C_20  and  C_22
REMARK   10  A    between atoms: C_20  and  N_27
REMARK                            x       y       z     vdW  Elec       q    Type
REMARK                         _______ _______ _______ _____ _____    ______ ____
ROOT
ATOM      1  C   UNL     1       2.865   7.284   4.178  0.00  0.00    +0.223 C 
ATOM      2  O   UNL     1       1.733   6.949   4.457  0.00  0.00    -0.275 OA
ATOM      3  N   UNL     1       3.657   7.832   5.121  0.00  0.00    -0.316 N 
ATOM      4  H   UNL     1       4.684   8.135   4.868  0.00  0.00    +0.149 HD
ENDROOT
BRANCH   1   5
ATOM      5  C   UNL     1       3.385   7.088   2.778  0.00  0.00    +0.173 C 
BRANCH   5   6
ATOM      6  S   UNL     1       2.095   6.337   1.754  0.00  0.00    -0.076 S 
BRANCH   6  11
ATOM      7  N   UNL     1       2.454   5.723  -0.954  0.00  0.00    -0.276 N 
ATOM      8  C   UNL     1       3.468   5.847  -1.867  0.00  0.00    +0.230 A 
ATOM      9  N   UNL     1       4.482   6.384  -1.250  0.00  0.00    -0.137 NA
ATOM     10  N   UNL     1       4.184   6.606  -0.019  0.00  0.00    -0.122 NA
ATOM     11  C   UNL     1       2.950   6.225   0.217  0.00  0.00    +0.196 A 
BRANCH   7  17
ATOM     12  C   UNL     1       0.057   6.012  -1.067  0.00  0.00    -0.024 A 
ATOM     13  C   UNL     1      -1.203   5.490  -1.286  0.00  0.00    +0.005 A 
ATOM     14  C   UNL     1      -1.352   4.156  -1.619  0.00  0.00    +0.000 A 
ATOM     15  C   UNL     1      -0.241   3.338  -1.723  0.00  0.00    +0.002 A 
ATOM     16  C   UNL     1       1.021   3.855  -1.505  0.00  0.00    +0.026 A 
ATOM     17  C   UNL     1       1.174   5.195  -1.176  0.00  0.00    +0.053 A 
BRANCH  12  19
ATOM     18  C   UNL     1       0.503   8.274  -1.980  0.00  0.00    +0.009 C 
ATOM     19  C   UNL     1       0.219   7.467  -0.711  0.00  0.00    +0.034 C 
ENDBRANCH  12  19
ENDBRANCH   7  17
ENDBRANCH   6  11
ENDBRANCH   5   6
ENDBRANCH   1   5
BRANCH   3  20
ATOM     20  C   UNL     1       3.151   8.023   6.483  0.00  0.00    +0.096 C 
BRANCH  20  21
ATOM     21  C   UNL     1       4.194   8.772   7.314  0.00  0.00    +0.016 C 
BRANCH  21  22
ATOM     22  N   UNL     1       5.479   8.062   7.244  0.00  0.00    +0.387 N 
ATOM     23  C   UNL     1       5.347   6.686   7.740  0.00  0.00    -0.078 C 
ATOM     24  C   UNL     1       6.662   5.935   7.518  0.00  0.00    -0.019 C 
ATOM     25  C   UNL     1       7.789   6.659   8.258  0.00  0.00    -0.004 C 
ATOM     26  C   UNL     1       7.873   8.104   7.757  0.00  0.00    -0.019 C 
ATOM     27  C   UNL     1       6.524   8.792   7.973  0.00  0.00    -0.078 C 
ATOM     28  H   UNL     1       5.781   8.011   6.187  0.00  0.00    -0.081 HD
ENDBRANCH  21  22
BRANCH  21  29
ATOM     29  C   UNL     1       4.361  10.168   6.770  0.00  0.00    +0.093 A 
ATOM     30  C   UNL     1       3.803  11.281   7.278  0.00  0.00    +0.043 A 
ATOM     31  C   UNL     1       4.223  12.358   6.463  0.00  0.00    +0.041 A 
ATOM     32  C   UNL     1       5.012  11.837   5.506  0.00  0.00    +0.195 A 
ATOM     33  O   UNL     1       5.097  10.511   5.701  0.00  0.00    -0.469 OA
ENDBRANCH  21  29
ENDBRANCH  20  21
ENDBRANCH   3  20
TORSDOF 9
