REMARK  Name = ZINC11881817
REMARK  14 active torsions:
REMARK  status: ('A' for Active; 'I' for Inactive)
REMARK    1  A    between atoms: C_1  and  C_2
REMARK    2  A    between atoms: C_4  and  C_7
REMARK    3  A    between atoms: C_7  and  N_8
REMARK    4  A    between atoms: N_8  and  C_9
REMARK    5  A    between atoms: C_10  and  C_12
REMARK    6  A    between atoms: C_12  and  O_13
REMARK    7  A    between atoms: O_13  and  C_14
REMARK    8  A    between atoms: C_17  and  C_29
REMARK    9  A    between atoms: C_19  and  C_20
REMARK   10  A    between atoms: C_20  and  N_67
REMARK   11  A    between atoms: C_21  and  N_67
REMARK   12  A    between atoms: C_22  and  C_23
REMARK   13  A    between atoms: C_22  and  N_67
REMARK   14  A    between atoms: C_24  and  C_28
REMARK                            x       y       z     vdW  Elec       q    Type
REMARK                         _______ _______ _______ _____ _____    ______ ____
ROOT
ATOM      1  C   UNL     1      -3.530  -1.638   5.164  0.00  0.00    +0.123 A 
ATOM      2  C   UNL     1      -4.096  -0.659   5.970  0.00  0.00    +0.046 A 
ATOM      3  C   UNL     1      -4.485  -0.964   7.257  0.00  0.00    +0.012 A 
ATOM      4  C   UNL     1      -4.300  -2.253   7.753  0.00  0.00    -0.017 A 
ATOM      5  C   UNL     1      -3.726  -3.232   6.944  0.00  0.00    +0.013 A 
ATOM      6  C   UNL     1      -3.344  -2.923   5.655  0.00  0.00    -0.022 A 
ENDROOT
BRANCH   4   7
ATOM      7  C   UNL     1      -4.711  -2.583   9.140  0.00  0.00    -0.014 A 
ATOM      8  C   UNL     1      -4.525  -3.872   9.636  0.00  0.00    +0.012 A 
ATOM      9  C   UNL     1      -4.908  -4.177  10.926  0.00  0.00    +0.050 A 
ATOM     10  C   UNL     1      -5.478  -3.204  11.733  0.00  0.00    +0.166 A 
ATOM     11  C   UNL     1      -5.666  -1.913  11.242  0.00  0.00    +0.167 A 
ATOM     12  C   UNL     1      -5.279  -1.602   9.951  0.00  0.00    +0.058 A 
ATOM     13  O   UNL     1      -6.238  -1.153  12.221  0.00  0.00    -0.453 OA
ATOM     14  C   UNL     1      -6.772  -2.092  13.173  0.00  0.00    +0.466 C 
ATOM     15  O   UNL     1      -5.932  -3.251  13.020  0.00  0.00    -0.453 OA
ENDBRANCH   4   7
BRANCH   1  16
ATOM     16  O   UNL     1      -3.152  -1.337   3.894  0.00  0.00    -0.483 OA
BRANCH  16  17
ATOM     17  C   UNL     1      -3.373   0.005   3.453  0.00  0.00    +0.324 C 
BRANCH  17  20
ATOM     18  N   UNL     1      -3.004   1.338   1.403  0.00  0.00    -0.294 N 
ATOM     19  C   UNL     1      -3.585   2.487   2.102  0.00  0.00    +0.132 C 
ATOM     20  C   UNL     1      -2.895   0.151   2.031  0.00  0.00    +0.253 C 
ATOM     21  O   UNL     1      -2.414  -0.800   1.452  0.00  0.00    -0.272 OA
BRANCH  18  22
ATOM     22  C   UNL     1      -2.540   1.480   0.020  0.00  0.00    +0.184 C 
BRANCH  22  26
ATOM     23  C   UNL     1       2.549   1.586  -0.013  0.00  0.00    +0.069 C 
ATOM     24  C   UNL     1       1.089   1.961   0.002  0.00  0.00    +0.081 A 
ATOM     25  C   UNL     1      -0.013   1.076   0.008  0.00  0.00    +0.072 A 
ATOM     26  C   UNL     1      -1.091   1.895   0.017  0.00  0.00    +0.155 A 
ATOM     27  O   UNL     1      -0.615   3.148   0.024  0.00  0.00    -0.358 OA
ATOM     28  N   UNL     1       0.594   3.165   0.013  0.00  0.00    -0.083 NA
ENDBRANCH  22  26
ENDBRANCH  18  22
ENDBRANCH  17  20
ENDBRANCH  16  17
ENDBRANCH   1  16
BRANCH   6  29
ATOM     29  C   UNL     1      -2.724  -3.981   4.779  0.00  0.00    -0.039 C 
BRANCH  29  31
ATOM     30  C   UNL     1      -0.885  -2.554   4.115  0.00  0.00    -0.095 C 
ATOM     31  N   UNL     1      -1.256  -3.813   4.794  0.00  0.00    +0.384 N 
ATOM     32  H   UNL     1      -0.934  -3.773   5.769  0.00  0.00    -0.081 HD
BRANCH  31  33
ATOM     33  C   UNL     1      -0.609  -4.959   4.122  0.00  0.00    -0.017 C 
BRANCH  33  34
ATOM     34  C   UNL     1       0.880  -4.875   4.343  0.00  0.00    +0.091 A 
ATOM     35  C   UNL     1       1.574  -5.439   5.432  0.00  0.00    +0.103 A 
ATOM     36  N   UNL     1       2.842  -5.181   5.314  0.00  0.00    -0.054 NA
ATOM     37  O   UNL     1       3.014  -4.429   4.124  0.00  0.00    -0.242 OA
ATOM     38  N   UNL     1       1.723  -4.277   3.556  0.00  0.00    -0.056 NA
ATOM     39  C   UNL     1       0.944  -6.219   6.557  0.00  0.00    +0.071 C 
ENDBRANCH  33  34
ENDBRANCH  31  33
ENDBRANCH  29  31
ENDBRANCH   6  29
TORSDOF 10
