REMARK  Name = ZINC15938520
REMARK  6 active torsions:
REMARK  status: ('A' for Active; 'I' for Inactive)
REMARK    1  A    between atoms: C_3  and  C_6
REMARK    2  A    between atoms: N_8  and  N_9
REMARK    3  A    between atoms: C_10  and  C_11
REMARK    4  A    between atoms: C_16  and  O_17
REMARK    5  A    between atoms: O_17  and  C_18
REMARK    6  A    between atoms: C_18  and  C_20
REMARK                            x       y       z     vdW  Elec       q    Type
REMARK                         _______ _______ _______ _____ _____    ______ ____
ROOT
ATOM      1  C   UNL     1       2.409   0.115   0.157  0.00  0.00    +0.038 A 
ATOM      2  C   UNL     1       3.636  -0.552   0.142  0.00  0.00    +0.028 A 
ATOM      3  C   UNL     1       4.809   0.168   0.053  0.00  0.00    +0.019 A 
ATOM      4  C   UNL     1       4.776   1.551  -0.021  0.00  0.00    +0.019 A 
ATOM      5  C   UNL     1       3.568   2.222  -0.008  0.00  0.00    +0.048 A 
ATOM      6  C   UNL     1       2.380   1.514   0.076  0.00  0.00    +0.141 A 
ATOM      7 BR   UNL     1       6.470  -0.736   0.033  0.00  0.00    -0.050 Br
ENDROOT
BRANCH   1   9
ATOM      8  N   UNL     1       1.093  -1.861  -0.203  0.00  0.00    -0.187 NA
ATOM      9  C   UNL     1       1.151  -0.647   0.253  0.00  0.00    +0.142 C 
BRANCH   8  12
ATOM     10  C   UNL     1       2.143  -3.670  -1.340  0.00  0.00    +0.270 C 
ATOM     11  O   UNL     1       1.177  -4.370  -1.096  0.00  0.00    -0.268 OA
ATOM     12  N   UNL     1       2.150  -2.375  -0.966  0.00  0.00    -0.203 N 
ATOM     13  H   UNL     1       2.888  -1.800  -1.221  0.00  0.00    +0.178 HD
BRANCH  10  16
ATOM     14  C   UNL     1       4.658  -5.773  -3.195  0.00  0.00    +0.008 A 
ATOM     15  C   UNL     1       3.459  -5.502  -2.583  0.00  0.00    +0.021 A 
ATOM     16  C   UNL     1       3.300  -4.236  -2.040  0.00  0.00    +0.075 A 
ATOM     17  S   UNL     1       4.872  -3.478  -2.410  0.00  0.00    -0.092 S 
ATOM     18  C   UNL     1       5.617  -4.812  -3.230  0.00  0.00    +0.046 A 
ENDBRANCH  10  16
ENDBRANCH   8  12
ENDBRANCH   1   9
BRANCH   6  19
ATOM     19  O   UNL     1       1.192   2.173   0.083  0.00  0.00    -0.422 OA
BRANCH  19  20
ATOM     20  C   UNL     1       0.662   2.464   1.287  0.00  0.00    +0.344 C 
ATOM     21  O   UNL     1       1.286   2.222   2.301  0.00  0.00    -0.245 OA
BRANCH  20  22
ATOM     22  C   UNL     1      -0.679   3.077   1.375  0.00  0.00    +0.059 A 
ATOM     23  C   UNL     1      -1.441   3.264   0.220  0.00  0.00    +0.016 A 
ATOM     24  C   UNL     1      -2.694   3.833   0.309  0.00  0.00    +0.016 A 
ATOM     25  C   UNL     1      -3.193   4.227   1.539  0.00  0.00    +0.018 A 
ATOM     26  C   UNL     1      -2.440   4.049   2.688  0.00  0.00    +0.016 A 
ATOM     27  C   UNL     1      -1.188   3.477   2.613  0.00  0.00    +0.016 A 
ATOM     28 BR   UNL     1      -4.910   5.012   1.651  0.00  0.00    -0.050 Br
ENDBRANCH  20  22
ENDBRANCH  19  20
ENDBRANCH   6  19
TORSDOF 6
