REMARK  Name = ZINC35483779
REMARK  3 active torsions:
REMARK  status: ('A' for Active; 'I' for Inactive)
REMARK    1  A    between atoms: N_16  and  C_18
REMARK    2  A    between atoms: C_18  and  C_19
REMARK    3  A    between atoms: N_21  and  C_22
REMARK                            x       y       z     vdW  Elec       q    Type
REMARK                         _______ _______ _______ _____ _____    ______ ____
ROOT
ATOM      1  C   UNL     1      -0.017   1.367   0.010  0.00  0.00    +0.211 A 
ATOM      2  N   UNL     1       1.081   2.064   0.003  0.00  0.00    -0.229 NA
ATOM      3  C   UNL     1       2.287   1.498  -0.013  0.00  0.00    +0.114 A 
ATOM      4  C   UNL     1       2.465   0.110  -0.022  0.00  0.00    +0.056 A 
ATOM      5  C   UNL     1       3.799  -0.365  -0.038  0.00  0.00    -0.024 A 
ATOM      6  C   UNL     1       4.793   0.555  -0.044  0.00  0.00    -0.004 A 
ATOM      7  S   UNL     1       3.953   2.117  -0.027  0.00  0.00    -0.073 S 
ATOM      8  C   UNL     1       6.268   0.303  -0.062  0.00  0.00    +0.043 C 
ATOM      9  C   UNL     1       6.512  -1.170   0.298  0.00  0.00    +0.005 C 
ATOM     10  C   UNL     1       5.566  -2.041  -0.534  0.00  0.00    +0.005 C 
ATOM     11  C   UNL     1       4.127  -1.856  -0.051  0.00  0.00    +0.037 C 
ATOM     12  C   UNL     1       1.207  -0.681  -0.013  0.00  0.00    +0.173 A 
ATOM     13  N   UNL     1       0.002  -0.004   0.002  0.00  0.00    -0.233 N 
ATOM     14  C   UNL     1      -0.988  -0.920   0.006  0.00  0.00    +0.353 A 
ATOM     15  O   UNL     1      -2.183  -0.685   0.016  0.00  0.00    -0.244 OA
ATOM     16  N   UNL     1      -0.418  -2.144  -0.004  0.00  0.00    -0.203 N 
ATOM     17  N   UNL     1       0.973  -1.963  -0.015  0.00  0.00    -0.148 NA
ENDROOT
BRANCH  16  18
ATOM     18  C   UNL     1      -1.125  -3.428  -0.003  0.00  0.00    +0.244 C 
BRANCH  18  19
ATOM     19  C   UNL     1      -1.379  -3.862  -1.424  0.00  0.00    +0.235 C 
ATOM     20  O   UNL     1      -1.008  -3.167  -2.346  0.00  0.00    -0.274 OA
ATOM     21  N   UNL     1      -2.020  -5.022  -1.669  0.00  0.00    -0.311 N 
ATOM     22  H   UNL     1      -2.318  -5.577  -0.932  0.00  0.00    +0.149 HD
BRANCH  21  23
ATOM     23  C   UNL     1      -2.268  -5.444  -3.050  0.00  0.00    +0.073 C 
ATOM     24  C   UNL     1      -3.601  -4.853  -3.553  0.00  0.00    +0.022 C 
ATOM     25  C   UNL     1      -4.206  -5.974  -4.433  0.00  0.00    +0.002 C 
ATOM     26  C   UNL     1      -3.830  -7.260  -3.655  0.00  0.00    +0.002 C 
ATOM     27  C   UNL     1      -2.413  -6.974  -3.115  0.00  0.00    +0.022 C 
ENDBRANCH  21  23
ENDBRANCH  18  19
ENDBRANCH  16  18
TORSDOF 3
