REMARK  Name = ZINC36308785
REMARK  13 active torsions:
REMARK  status: ('A' for Active; 'I' for Inactive)
REMARK    1  A    between atoms: C_1  and  C_2
REMARK    2  A    between atoms: C_2  and  C_3
REMARK    3  A    between atoms: C_2  and  C_33
REMARK    4  A    between atoms: C_2  and  O_35
REMARK    5  A    between atoms: C_3  and  N_4
REMARK    6  A    between atoms: N_4  and  C_5
REMARK    7  A    between atoms: N_4  and  C_26
REMARK    8  A    between atoms: C_5  and  C_6
REMARK    9  A    between atoms: C_7  and  C_20
REMARK   10  A    between atoms: N_9  and  C_19
REMARK   11  A    between atoms: C_10  and  O_11
REMARK   12  A    between atoms: O_11  and  C_12
REMARK   13  A    between atoms: C_26  and  C_27
REMARK                            x       y       z     vdW  Elec       q    Type
REMARK                         _______ _______ _______ _____ _____    ______ ____
ROOT
ATOM      1  C   UNL     1       3.441  -1.968   2.495  0.00  0.00    +0.025 A 
ATOM      2  C   UNL     1       2.569  -3.070   2.560  0.00  0.00    +0.098 A 
ATOM      3  N   UNL     1       3.016  -3.996   1.738  0.00  0.00    -0.168 NA
ATOM      4  N   UNL     1       4.180  -3.514   1.126  0.00  0.00    -0.235 N 
ATOM      5  C   UNL     1       4.420  -2.265   1.602  0.00  0.00    +0.221 A 
ATOM      6  C   UNL     1       4.994  -4.231   0.141  0.00  0.00    +0.176 C 
ENDROOT
BRANCH   2   7
ATOM      7  C   UNL     1       1.356  -3.172   3.410  0.00  0.00    +0.002 A 
ATOM      8  C   UNL     1       0.313  -2.263   3.251  0.00  0.00    +0.010 A 
ATOM      9  C   UNL     1      -0.813  -2.362   4.044  0.00  0.00    +0.001 A 
ATOM     10  C   UNL     1      -0.906  -3.362   4.995  0.00  0.00    +0.000 A 
ATOM     11  C   UNL     1       0.127  -4.268   5.157  0.00  0.00    +0.001 A 
ATOM     12  C   UNL     1       1.254  -4.181   4.365  0.00  0.00    +0.010 A 
ENDBRANCH   2   7
BRANCH   1  13
ATOM     13  C   UNL     1       3.309  -0.683   3.272  0.00  0.00    -0.035 C 
BRANCH  13  14
ATOM     14  N   UNL     1       3.143   0.439   2.339  0.00  0.00    +0.386 N 
ATOM     15  H   UNL     1       3.424   0.151   1.413  0.00  0.00    -0.081 HD
BRANCH  14  16
ATOM     16  C   UNL     1       1.733   0.851   2.316  0.00  0.00    -0.039 C 
BRANCH  16  18
ATOM     17  C   UNL     1       1.899   0.679   4.803  0.00  0.00    +0.044 C 
ATOM     18  C   UNL     1       1.378   1.528   3.641  0.00  0.00    +0.067 C 
BRANCH  18  19
ATOM     19  C   UNL     1      -0.119   1.664   3.751  0.00  0.00    -0.003 C 
ATOM     20  C   UNL     1      -0.668   2.853   3.784  0.00  0.00    +0.006 C 
ENDBRANCH  18  19
BRANCH  18  21
ATOM     21  O   UNL     1       1.979   2.824   3.691  0.00  0.00    -0.387 OA
ATOM     22  H   UNL     1       1.679   3.423   2.994  0.00  0.00    +0.210 HD
ENDBRANCH  18  21
ENDBRANCH  16  18
ENDBRANCH  14  16
BRANCH  14  23
ATOM     23  C   UNL     1       3.976   1.567   2.776  0.00  0.00    -0.046 C 
BRANCH  23  24
ATOM     24  C   UNL     1       4.095   2.584   1.639  0.00  0.00    +0.102 C 
ATOM     25  C   UNL     1       5.075   3.707   2.041  0.00  0.00    +0.032 C 
ATOM     26  C   UNL     1       4.386   4.971   1.458  0.00  0.00    +0.030 C 
ATOM     27  C   UNL     1       2.892   4.602   1.644  0.00  0.00    +0.160 C 
ATOM     28  O   UNL     1       2.820   3.188   1.392  0.00  0.00    -0.378 OA
ENDBRANCH  23  24
ENDBRANCH  14  23
ENDBRANCH  13  14
ENDBRANCH   1  13
BRANCH   5  29
ATOM     29  O   UNL     1       5.454  -1.460   1.250  0.00  0.00    -0.437 OA
BRANCH  29  30
ATOM     30  C   UNL     1       6.663  -1.683   1.830  0.00  0.00    +0.149 A 
ATOM     31  C   UNL     1       6.790  -2.643   2.822  0.00  0.00    +0.048 A 
ATOM     32  C   UNL     1       8.020  -2.869   3.410  0.00  0.00    +0.004 A 
ATOM     33  C   UNL     1       9.124  -2.138   3.011  0.00  0.00    +0.002 A 
ATOM     34  C   UNL     1       9.000  -1.179   2.022  0.00  0.00    +0.024 A 
ATOM     35  C   UNL     1       7.773  -0.954   1.425  0.00  0.00    +0.083 A 
ATOM     36 CL   UNL     1       7.620   0.243   0.178  0.00  0.00    -0.080 Cl
ENDBRANCH  29  30
ENDBRANCH   5  29
TORSDOF 11
