REMARK  Name = ZINC20850605
REMARK  12 active torsions:
REMARK  status: ('A' for Active; 'I' for Inactive)
REMARK    1  A    between atoms: C_1  and  C_2
REMARK    2  A    between atoms: C_5  and  C_37
REMARK    3  A    between atoms: C_6  and  C_8
REMARK    4  A    between atoms: C_8  and  S_9
REMARK    5  A    between atoms: S_9  and  C_10
REMARK    6  A    between atoms: C_15  and  C_27
REMARK    7  A    between atoms: C_21  and  C_25
REMARK    8  A    between atoms: C_21  and  C_26
REMARK    9  A    between atoms: C_30  and  O_35
REMARK   10  A    between atoms: C_31  and  O_33
REMARK   11  A    between atoms: O_33  and  C_34
REMARK   12  A    between atoms: O_35  and  C_36
REMARK                            x       y       z     vdW  Elec       q    Type
REMARK                         _______ _______ _______ _____ _____    ______ ____
ROOT
ATOM      1  C   UNL     1       2.323   4.656  -3.228  0.00  0.00    +0.211 A 
ATOM      2  N   UNL     1       3.335   4.993  -2.414  0.00  0.00    -0.187 NA
ATOM      3  C   UNL     1       3.035   4.665  -1.187  0.00  0.00    +0.219 A 
ATOM      4  N   UNL     1       1.805   4.096  -1.191  0.00  0.00    -0.220 N 
ATOM      5  N   UNL     1       1.365   4.104  -2.514  0.00  0.00    -0.141 NA
ATOM      6  C   UNL     1       1.149   3.596   0.010  0.00  0.00    +0.176 C 
ATOM      7  C   UNL     1       1.867   4.101   1.242  0.00  0.00    +0.041 C 
ATOM      8  C   UNL     1       3.090   4.668   1.178  0.00  0.00    +0.020 C 
ATOM      9  N   UNL     1       3.756   4.820  -0.014  0.00  0.00    -0.287 N 
ATOM     10  C   UNL     1       3.780   5.168   2.425  0.00  0.00    +0.058 C 
ATOM     11  C   UNL     1       3.358   4.316   3.624  0.00  0.00    -0.023 C 
ATOM     12  C   UNL     1       1.835   4.401   3.763  0.00  0.00    +0.086 C 
ATOM     13  C   UNL     1       1.202   3.956   2.474  0.00  0.00    +0.164 C 
ATOM     14  O   UNL     1       0.093   3.460   2.496  0.00  0.00    -0.292 OA
ATOM     15  C   UNL     1       3.775   2.862   3.396  0.00  0.00    +0.011 C 
ATOM     16  C   UNL     1       4.022   4.850   4.895  0.00  0.00    +0.011 C 
ATOM     17  H   UNL     1       4.829   5.058  -0.056  0.00  0.00    +0.155 HD
ENDROOT
BRANCH   6  18
ATOM     18  C   UNL     1       1.171   2.089   0.002  0.00  0.00    -0.015 A 
ATOM     19  C   UNL     1       2.379   1.417  -0.013  0.00  0.00    +0.010 A 
ATOM     20  C   UNL     1       2.405   0.035  -0.021  0.00  0.00    +0.050 A 
ATOM     21  C   UNL     1       1.218  -0.680  -0.013  0.00  0.00    +0.162 A 
ATOM     22  C   UNL     1       0.002  -0.004   0.002  0.00  0.00    +0.162 A 
ATOM     23  C   UNL     1      -0.017   1.381   0.010  0.00  0.00    +0.055 A 
BRANCH  22  24
ATOM     24  O   UNL     1      -1.165  -0.702   0.009  0.00  0.00    -0.491 OA
ATOM     25  C   UNL     1      -2.375   0.059   0.024  0.00  0.00    +0.277 C 
ENDBRANCH  22  24
BRANCH  21  26
ATOM     26  O   UNL     1       1.242  -2.040  -0.021  0.00  0.00    -0.491 OA
ATOM     27  C   UNL     1       2.526  -2.666  -0.037  0.00  0.00    +0.277 C 
ENDBRANCH  21  26
ENDBRANCH   6  18
BRANCH   1  28
ATOM     28  S   UNL     1       2.283   4.911  -4.971  0.00  0.00    -0.080 S 
BRANCH  28  29
ATOM     29  C   UNL     1       3.876   5.700  -5.335  0.00  0.00    +0.112 C 
BRANCH  29  35
ATOM     30  C   UNL     1       3.119   8.746  -9.233  0.00  0.00    +0.044 C 
ATOM     31  C   UNL     1       3.611   7.434  -8.678  0.00  0.00    -0.050 A 
ATOM     32  C   UNL     1       4.150   6.484  -9.525  0.00  0.00    +0.003 A 
ATOM     33  C   UNL     1       4.601   5.280  -9.017  0.00  0.00    +0.004 A 
ATOM     34  C   UNL     1       4.516   5.028  -7.660  0.00  0.00    -0.046 A 
ATOM     35  C   UNL     1       3.973   5.976  -6.814  0.00  0.00    -0.034 A 
ATOM     36  C   UNL     1       3.522   7.180  -7.322  0.00  0.00    +0.008 A 
ATOM     37  C   UNL     1       5.013   3.718  -7.104  0.00  0.00    +0.044 C 
ENDBRANCH  29  35
ENDBRANCH  28  29
ENDBRANCH   1  28
TORSDOF 6
