REMARK  Name = ZINC13030293
REMARK  11 active torsions:
REMARK  status: ('A' for Active; 'I' for Inactive)
REMARK    1  A    between atoms: C_1  and  C_2
REMARK    2  A    between atoms: C_7  and  N_8
REMARK    3  A    between atoms: C_9  and  C_11
REMARK    4  A    between atoms: C_11  and  N_52
REMARK    5  A    between atoms: C_12  and  N_52
REMARK    6  A    between atoms: C_13  and  C_15
REMARK    7  A    between atoms: C_13  and  C_16
REMARK    8  A    between atoms: C_13  and  N_52
REMARK    9  A    between atoms: N_18  and  C_19
REMARK   10  A    between atoms: C_22  and  S_25
REMARK   11  A    between atoms: S_25  and  N_28
REMARK                            x       y       z     vdW  Elec       q    Type
REMARK                         _______ _______ _______ _____ _____    ______ ____
ROOT
ATOM      1  C   UNL     1      -0.041   1.216   0.177  0.00  0.00    +0.017 C 
ATOM      2  C   UNL     1      -0.811   1.725  -1.043  0.00  0.00    -0.004 C 
ENDROOT
BRANCH   1   3
ATOM      3  C   UNL     1      -0.675   1.757   1.433  0.00  0.00    +0.203 C 
ATOM      4  O   UNL     1      -0.028   2.451   2.188  0.00  0.00    -0.277 OA
ATOM      5  N   UNL     1      -1.961   1.469   1.716  0.00  0.00    -0.287 N 
ATOM      6  H   UNL     1      -2.457   0.858   1.149  0.00  0.00    +0.155 HD
BRANCH   5   7
ATOM      7  C   UNL     1      -2.579   2.051   2.828  0.00  0.00    +0.033 A 
ATOM      8  C   UNL     1      -1.851   2.284   3.987  0.00  0.00    +0.025 A 
ATOM      9  C   UNL     1      -2.462   2.865   5.080  0.00  0.00    +0.030 A 
ATOM     10  C   UNL     1      -3.802   3.202   5.027  0.00  0.00    +0.105 A 
ATOM     11  C   UNL     1      -4.532   2.965   3.876  0.00  0.00    +0.030 A 
ATOM     12  C   UNL     1      -3.925   2.391   2.777  0.00  0.00    +0.025 A 
BRANCH  10  13
ATOM     13  S   UNL     1      -4.581   3.936   6.427  0.00  0.00    +0.056 S 
ATOM     14  O   UNL     1      -3.552   4.553   7.187  0.00  0.00    -0.153 OA
ATOM     15  O   UNL     1      -5.703   4.657   5.936  0.00  0.00    -0.153 OA
BRANCH  13  16
ATOM     16  N   UNL     1      -5.181   2.703   7.355  0.00  0.00    -0.204 NA
ATOM     17  H   UNL     1      -5.062   1.782   7.074  0.00  0.00    +0.144 HD
ATOM     18  H   UNL     1      -5.652   2.901   8.180  0.00  0.00    +0.144 HD
ENDBRANCH  13  16
ENDBRANCH  10  13
ENDBRANCH   5   7
ENDBRANCH   1   3
BRANCH   1  20
ATOM     19  C   UNL     1       1.429   3.135   0.046  0.00  0.00    -0.094 C 
ATOM     20  N   UNL     1       1.368   1.661   0.123  0.00  0.00    +0.391 N 
ATOM     21  H   UNL     1       1.849   1.350   0.975  0.00  0.00    -0.080 HD
BRANCH  20  22
ATOM     22  C   UNL     1       2.040   1.065  -1.051  0.00  0.00    +0.020 C 
BRANCH  22  24
ATOM     23  N   UNL     1       4.351   0.893  -1.917  0.00  0.00    -0.287 N 
ATOM     24  C   UNL     1       3.517   1.352  -0.963  0.00  0.00    +0.201 C 
ATOM     25  O   UNL     1       3.955   1.996  -0.033  0.00  0.00    -0.278 OA
ATOM     26  H   UNL     1       4.015   0.311  -2.616  0.00  0.00    +0.155 HD
BRANCH  23  33
ATOM     27  C   UNL     1       6.225  -0.843  -3.171  0.00  0.00    +0.046 C 
ATOM     28  C   UNL     1       6.651   0.437  -2.498  0.00  0.00    -0.028 A 
ATOM     29  C   UNL     1       7.984   0.800  -2.483  0.00  0.00    +0.020 A 
ATOM     30  C   UNL     1       8.376   1.972  -1.860  0.00  0.00    +0.018 A 
ATOM     31  C   UNL     1       7.434   2.786  -1.257  0.00  0.00    +0.017 A 
ATOM     32  C   UNL     1       6.099   2.431  -1.274  0.00  0.00    +0.024 A 
ATOM     33  C   UNL     1       5.703   1.255  -1.898  0.00  0.00    +0.036 A 
ATOM     34 BR   UNL     1      10.202   2.461  -1.834  0.00  0.00    -0.050 Br
ENDBRANCH  23  33
ENDBRANCH  22  24
ENDBRANCH  20  22
ENDBRANCH   1  20
TORSDOF 8
