REMARK  Name = ZINC29936391
REMARK  6 active torsions:
REMARK  status: ('A' for Active; 'I' for Inactive)
REMARK    1  A    between atoms: C_3  and  C_6
REMARK    2  A    between atoms: C_6  and  C_8
REMARK    3  A    between atoms: C_6  and  N_15
REMARK    4  A    between atoms: N_15  and  C_16
REMARK    5  A    between atoms: C_16  and  C_17
REMARK    6  A    between atoms: N_19  and  C_20
REMARK                            x       y       z     vdW  Elec       q    Type
REMARK                         _______ _______ _______ _____ _____    ______ ____
ROOT
ATOM      1  N   UNL     1       1.943  -2.507   0.857  0.00  0.00    +0.392 N 
ATOM      2  H   UNL     1       0.851  -2.378   0.813  0.00  0.00    -0.084 HD
ATOM      3  H   UNL     1       2.204  -3.528   0.540  0.00  0.00    -0.084 HD
ENDROOT
BRANCH   1   4
ATOM      4  C   UNL     1       2.588  -1.536  -0.036  0.00  0.00    -0.003 C 
BRANCH   4   5
ATOM      5  C   UNL     1       2.630  -2.091  -1.436  0.00  0.00    -0.056 A 
ATOM      6  C   UNL     1       1.549  -2.795  -1.933  0.00  0.00    +0.005 A 
ATOM      7  C   UNL     1       1.584  -3.301  -3.218  0.00  0.00    +0.038 A 
ATOM      8  C   UNL     1       2.708  -3.112  -4.005  0.00  0.00    +0.123 A 
ATOM      9  C   UNL     1       3.793  -2.412  -3.505  0.00  0.00    +0.038 A 
ATOM     10  C   UNL     1       3.753  -1.902  -2.221  0.00  0.00    +0.005 A 
ATOM     11  F   UNL     1       2.746  -3.610  -5.260  0.00  0.00    -0.205 F 
ENDBRANCH   4   5
BRANCH   4  14
ATOM     12  C   UNL     1       1.344   2.065  -0.023  0.00  0.00    +0.008 A 
ATOM     13  C   UNL     1       2.258   1.028  -0.031  0.00  0.00    +0.010 A 
ATOM     14  C   UNL     1       1.803  -0.249  -0.029  0.00  0.00    -0.020 A 
ATOM     15  S   UNL     1       0.034  -0.011  -0.018  0.00  0.00    -0.103 S 
ATOM     16  C   UNL     1       0.020   1.774  -0.015  0.00  0.00    +0.045 A 
ENDBRANCH   4  14
ENDBRANCH   1   4
BRANCH   1  17
ATOM     17  C   UNL     1       2.383  -2.319   2.246  0.00  0.00    +0.016 C 
BRANCH  17  18
ATOM     18  C   UNL     1       1.702  -3.331   3.131  0.00  0.00    +0.200 C 
ATOM     19  O   UNL     1       0.926  -4.131   2.651  0.00  0.00    -0.278 OA
ATOM     20  N   UNL     1       1.955  -3.348   4.454  0.00  0.00    -0.286 N 
ATOM     21  H   UNL     1       2.713  -2.673   4.878  0.00  0.00    +0.155 HD
BRANCH  20  22
ATOM     22  C   UNL     1       1.252  -4.225   5.291  0.00  0.00    +0.051 A 
ATOM     23  C   UNL     1       0.883  -5.481   4.828  0.00  0.00    +0.073 A 
ATOM     24  C   UNL     1       0.189  -6.349   5.656  0.00  0.00    +0.164 A 
ATOM     25  C   UNL     1      -0.137  -5.960   6.950  0.00  0.00    +0.163 A 
ATOM     26  C   UNL     1       0.232  -4.705   7.410  0.00  0.00    +0.066 A 
ATOM     27  C   UNL     1       0.929  -3.841   6.586  0.00  0.00    +0.043 A 
ATOM     28 BR   UNL     1       1.436  -2.133   7.220  0.00  0.00    -0.048 Br
ATOM     29  O   UNL     1      -0.815  -6.801   7.780  0.00  0.00    -0.485 OA
ATOM     30  C   UNL     1      -1.495  -7.902   7.165  0.00  0.00    +0.270 C 
ATOM     31  C   UNL     1      -0.537  -8.557   6.161  0.00  0.00    +0.270 C 
ATOM     32  O   UNL     1      -0.170  -7.575   5.185  0.00  0.00    -0.485 OA
ENDBRANCH  20  22
ENDBRANCH  17  18
ENDBRANCH   1  17
TORSDOF 6
