REMARK  Name = ZINC13211635
REMARK  10 active torsions:
REMARK  status: ('A' for Active; 'I' for Inactive)
REMARK    1  A    between atoms: C_1  and  C_2
REMARK    2  A    between atoms: C_2  and  C_3
REMARK    3  A    between atoms: C_2  and  N_56
REMARK    4  A    between atoms: C_6  and  N_9
REMARK    5  A    between atoms: N_9  and  C_10
REMARK    6  A    between atoms: C_13  and  S_19
REMARK    7  A    between atoms: C_15  and  N_16
REMARK    8  A    between atoms: S_19  and  N_22
REMARK    9  A    between atoms: N_22  and  C_23
REMARK   10  A    between atoms: C_28  and  C_29
REMARK                            x       y       z     vdW  Elec       q    Type
REMARK                         _______ _______ _______ _____ _____    ______ ____
ROOT
ATOM      1  C   UNL     1       0.770   4.035   0.475  0.00  0.00    +0.058 A 
ATOM      2  C   UNL     1      -0.545   4.424   0.254  0.00  0.00    +0.027 A 
ATOM      3  C   UNL     1      -1.562   3.493   0.340  0.00  0.00    +0.031 A 
ATOM      4  C   UNL     1      -1.271   2.175   0.640  0.00  0.00    +0.111 A 
ATOM      5  C   UNL     1       0.036   1.786   0.866  0.00  0.00    +0.063 A 
ATOM      6  C   UNL     1       1.058   2.711   0.781  0.00  0.00    +0.149 A 
ENDROOT
BRANCH   6   7
ATOM      7  N   UNL     1       2.458   2.293   1.017  0.00  0.00    +0.058 N 
ATOM      8  O   UNL     1       2.847   1.212   0.611  0.00  0.00    -0.126 OA
ATOM      9  O   UNL     1       3.221   3.029   1.617  0.00  0.00    -0.126 OA
ENDBRANCH   6   7
BRANCH   4  10
ATOM     10  S   UNL     1      -2.571   0.989   0.742  0.00  0.00    +0.072 S 
ATOM     11  O   UNL     1      -3.641   1.491  -0.047  0.00  0.00    -0.150 OA
ATOM     12  O   UNL     1      -1.981  -0.281   0.505  0.00  0.00    -0.150 OA
BRANCH  10  13
ATOM     13  N   UNL     1      -3.103   0.979   2.310  0.00  0.00    -0.215 N 
ATOM     14  H   UNL     1      -3.058   0.163   2.832  0.00  0.00    +0.174 HD
BRANCH  13  15
ATOM     15  C   UNL     1      -3.615   2.139   2.877  0.00  0.00    +0.062 A 
ATOM     16  C   UNL     1      -4.343   3.033   2.101  0.00  0.00    +0.025 A 
ATOM     17  C   UNL     1      -4.854   4.182   2.668  0.00  0.00    +0.002 A 
ATOM     18  C   UNL     1      -4.639   4.459   4.009  0.00  0.00    +0.001 A 
ATOM     19  C   UNL     1      -3.916   3.588   4.793  0.00  0.00    +0.017 A 
ATOM     20  C   UNL     1      -3.395   2.417   4.235  0.00  0.00    +0.085 A 
BRANCH  20  21
ATOM     21  C   UNL     1      -2.620   1.480   5.067  0.00  0.00    +0.388 C 
ATOM     22  O   UNL     1      -2.169   0.463   4.579  0.00  0.00    -0.241 OA
ATOM     23  O   UNL     1      -2.412   1.752   6.371  0.00  0.00    -0.241 OA
ENDBRANCH  20  21
ENDBRANCH  13  15
ENDBRANCH  10  13
ENDBRANCH   4  10
BRANCH   1  24
ATOM     24  N   UNL     1       1.801   4.973   0.388  0.00  0.00    -0.339 N 
ATOM     25  H   UNL     1       2.726   4.684   0.436  0.00  0.00    +0.146 HD
BRANCH  24  28
ATOM     26  C   UNL     1       2.336   8.722   0.532  0.00  0.00    -0.077 C 
ATOM     27  C   UNL     1       2.644   7.241   0.761  0.00  0.00    +0.003 C 
ATOM     28  C   UNL     1       1.486   6.395   0.224  0.00  0.00    +0.067 C 
ATOM     29  C   UNL     1       1.280   6.706  -1.261  0.00  0.00    +0.003 C 
ATOM     30  C   UNL     1       1.014   8.203  -1.431  0.00  0.00    -0.077 C 
ATOM     31  N   UNL     1       2.175   8.960  -0.918  0.00  0.00    +0.381 N 
ATOM     32  H   UNL     1       3.021   8.641  -1.404  0.00  0.00    -0.081 HD
BRANCH  31  34
ATOM     33  C   UNL     1       1.799  10.620  -2.677  0.00  0.00    -0.014 C 
ATOM     34  C   UNL     1       1.990  10.403  -1.175  0.00  0.00    -0.075 C 
ATOM     35  C   UNL     1       0.766  10.931  -0.424  0.00  0.00    -0.014 C 
ENDBRANCH  31  34
ENDBRANCH  24  28
ENDBRANCH   1  24
TORSDOF 8
