REMARK  Name = ZINC21805434
REMARK  9 active torsions:
REMARK  status: ('A' for Active; 'I' for Inactive)
REMARK    1  A    between atoms: C_1  and  C_2
REMARK    2  A    between atoms: C_5  and  C_8
REMARK    3  A    between atoms: C_8  and  C_10
REMARK    4  A    between atoms: C_8  and  N_29
REMARK    5  A    between atoms: C_10  and  N_11
REMARK    6  A    between atoms: C_12  and  C_14
REMARK    7  A    between atoms: C_16  and  C_19
REMARK    8  A    between atoms: N_29  and  C_30
REMARK    9  A    between atoms: N_29  and  C_31
REMARK                            x       y       z     vdW  Elec       q    Type
REMARK                         _______ _______ _______ _____ _____    ______ ____
ROOT
ATOM      1  N   UNL     1     -11.357  -1.115   2.619  0.00  0.00    -0.311 N 
ATOM      2  C   UNL     1     -10.601  -1.279   3.723  0.00  0.00    +0.266 C 
ATOM      3  O   UNL     1     -11.121  -1.278   4.821  0.00  0.00    -0.268 OA
ATOM      4  H   UNL     1     -10.885  -1.116   1.625  0.00  0.00    +0.149 HD
ENDROOT
BRANCH   2   5
ATOM      5  C   UNL     1      -9.134  -1.463   3.597  0.00  0.00    +0.168 A 
ATOM      6  C   UNL     1      -8.207  -1.654   4.655  0.00  0.00    +0.086 A 
ATOM      7  C   UNL     1      -7.003  -1.766   4.017  0.00  0.00    +0.168 A 
ATOM      8  O   UNL     1      -7.259  -1.653   2.702  0.00  0.00    -0.354 OA
ATOM      9  N   UNL     1      -8.437  -1.486   2.488  0.00  0.00    -0.073 NA
BRANCH   7  10
ATOM     10  C   UNL     1      -5.683  -1.976   4.647  0.00  0.00    +0.020 A 
ATOM     11  C   UNL     1      -5.573  -2.074   6.036  0.00  0.00    +0.012 A 
ATOM     12  C   UNL     1      -4.337  -2.267   6.609  0.00  0.00    +0.004 A 
ATOM     13  C   UNL     1      -3.195  -2.365   5.821  0.00  0.00    -0.044 A 
ATOM     14  C   UNL     1      -3.297  -2.273   4.449  0.00  0.00    -0.044 A 
ATOM     15  C   UNL     1      -4.537  -2.077   3.861  0.00  0.00    +0.015 A 
ATOM     16  C   UNL     1      -2.101  -2.378   3.539  0.00  0.00    +0.035 C 
ATOM     17  C   UNL     1      -0.809  -2.153   4.321  0.00  0.00    +0.005 C 
ATOM     18  C   UNL     1      -0.819  -3.073   5.547  0.00  0.00    +0.005 C 
ATOM     19  C   UNL     1      -1.877  -2.563   6.524  0.00  0.00    +0.035 C 
ENDBRANCH   7  10
ENDBRANCH   2   5
BRANCH   1  20
ATOM     20  C   UNL     1     -12.805  -0.933   2.743  0.00  0.00    +0.094 C 
BRANCH  20  21
ATOM     21  C   UNL     1     -13.406  -0.667   1.361  0.00  0.00    -0.021 C 
BRANCH  21  26
ATOM     22  C   UNL     1     -19.131  -0.048   1.835  0.00  0.00    +0.044 C 
ATOM     23  C   UNL     1     -17.638  -0.209   1.712  0.00  0.00    -0.050 A 
ATOM     24  C   UNL     1     -16.849   0.881   1.394  0.00  0.00    +0.003 A 
ATOM     25  C   UNL     1     -15.479   0.733   1.281  0.00  0.00    +0.002 A 
ATOM     26  C   UNL     1     -14.899  -0.505   1.485  0.00  0.00    -0.059 A 
ATOM     27  C   UNL     1     -15.688  -1.596   1.797  0.00  0.00    +0.002 A 
ATOM     28  C   UNL     1     -17.058  -1.447   1.915  0.00  0.00    +0.003 A 
ENDBRANCH  21  26
BRANCH  21  29
ATOM     29  N   UNL     1     -13.108  -1.797   0.471  0.00  0.00    +0.382 N 
ATOM     30  C   UNL     1     -12.958  -3.043   1.235  0.00  0.00    -0.096 C 
ATOM     31  C   UNL     1     -14.138  -1.936  -0.567  0.00  0.00    -0.096 C 
ATOM     32  H   UNL     1     -12.150  -1.590  -0.029  0.00  0.00    -0.082 HD
ENDBRANCH  21  29
ENDBRANCH  20  21
ENDBRANCH   1  20
TORSDOF 6
