REMARK  Name = ZINC13499826
REMARK  8 active torsions:
REMARK  status: ('A' for Active; 'I' for Inactive)
REMARK    1  A    between atoms: C_1  and  C_2
REMARK    2  A    between atoms: C_2  and  C_3
REMARK    3  A    between atoms: C_11  and  C_15
REMARK    4  A    between atoms: C_18  and  S_21
REMARK    5  A    between atoms: S_21  and  C_22
REMARK    6  A    between atoms: C_22  and  C_23
REMARK    7  A    between atoms: N_25  and  N_26
REMARK    8  A    between atoms: C_27  and  C_29
REMARK                            x       y       z     vdW  Elec       q    Type
REMARK                         _______ _______ _______ _____ _____    ______ ____
ROOT
ATOM      1  C   UNL     1      -2.013  -5.769  -0.010  0.00  0.00    +0.118 A 
ATOM      2  N   UNL     1      -2.537  -6.961  -0.011  0.00  0.00    -0.226 NA
ATOM      3  C   UNL     1      -3.851  -7.161   0.002  0.00  0.00    +0.114 A 
ATOM      4  C   UNL     1      -4.772  -6.103   0.018  0.00  0.00    +0.056 A 
ATOM      5  C   UNL     1      -6.146  -6.452   0.031  0.00  0.00    -0.024 A 
ATOM      6  C   UNL     1      -6.459  -7.769   0.028  0.00  0.00    -0.004 A 
ATOM      7  S   UNL     1      -4.893  -8.600   0.006  0.00  0.00    -0.073 S 
ATOM      8  C   UNL     1      -7.825  -8.381   0.040  0.00  0.00    +0.046 C 
ATOM      9  C   UNL     1      -8.847  -7.290  -0.313  0.00  0.00    -0.009 C 
ATOM     10  C   UNL     1      -8.547  -6.046   0.528  0.00  0.00    +0.008 C 
ATOM     11  C   UNL     1      -7.248  -5.396   0.051  0.00  0.00    +0.037 C 
ATOM     12  C   UNL     1     -10.260  -7.790  -0.003  0.00  0.00    +0.008 C 
ATOM     13  C   UNL     1      -4.167  -4.753   0.017  0.00  0.00    +0.173 A 
ATOM     14  N   UNL     1      -2.793  -4.649   0.004  0.00  0.00    -0.257 N 
ATOM     15  C   UNL     1      -2.530  -3.307   0.009  0.00  0.00    +0.198 A 
ATOM     16  N   UNL     1      -3.686  -2.685   0.029  0.00  0.00    -0.122 NA
ATOM     17  N   UNL     1      -4.652  -3.536   0.028  0.00  0.00    -0.128 NA
ENDROOT
BRANCH   1  19
ATOM     18  C   UNL     1       0.009  -5.580   1.413  0.00  0.00    +0.012 C 
ATOM     19  C   UNL     1      -0.513  -5.622  -0.025  0.00  0.00    +0.071 C 
ENDBRANCH   1  19
BRANCH  15  20
ATOM     20  S   UNL     1      -0.937  -2.554  -0.003  0.00  0.00    -0.076 S 
BRANCH  20  21
ATOM     21  C   UNL     1      -1.293  -0.775   0.010  0.00  0.00    +0.174 C 
BRANCH  21  22
ATOM     22  C   UNL     1       0.002  -0.004   0.002  0.00  0.00    +0.239 C 
ATOM     23  O   UNL     1       1.060  -0.596  -0.011  0.00  0.00    -0.273 OA
ATOM     24  N   UNL     1      -0.016   1.344   0.009  0.00  0.00    -0.233 N 
ATOM     25  H   UNL     1      -0.863   1.817   0.016  0.00  0.00    +0.173 HD
BRANCH  24  26
ATOM     26  N   UNL     1       1.187   2.061   0.002  0.00  0.00    -0.228 N 
ATOM     27  C   UNL     1       1.169   3.408   0.009  0.00  0.00    +0.295 C 
ATOM     28  O   UNL     1       0.107   4.002   0.022  0.00  0.00    -0.265 OA
ATOM     29  H   UNL     1       2.034   1.587  -0.009  0.00  0.00    +0.173 HD
BRANCH  27  30
ATOM     30  C   UNL     1       2.429   4.159   0.001  0.00  0.00    +0.190 A 
ATOM     31  C   UNL     1       2.553   5.518   0.007  0.00  0.00    +0.054 A 
ATOM     32  C   UNL     1       3.929   5.798  -0.004  0.00  0.00    +0.042 A 
ATOM     33  C   UNL     1       4.576   4.612  -0.015  0.00  0.00    +0.196 A 
ATOM     34  O   UNL     1       3.669   3.626  -0.008  0.00  0.00    -0.458 OA
ENDBRANCH  27  30
ENDBRANCH  24  26
ENDBRANCH  21  22
ENDBRANCH  20  21
ENDBRANCH  15  20
TORSDOF 6
