REMARK  Name = ZINC02646275
REMARK  3 active torsions:
REMARK  status: ('A' for Active; 'I' for Inactive)
REMARK    1  A    between atoms: C_3  and  C_9
REMARK    2  A    between atoms: C_9  and  S_10
REMARK    3  A    between atoms: S_10  and  C_11
REMARK                            x       y       z     vdW  Elec       q    Type
REMARK                         _______ _______ _______ _____ _____    ______ ____
ROOT
ATOM      1  C   UNL     1      -1.763   5.808  -4.186  0.00  0.00    +0.170 A 
ATOM      2  N   UNL     1      -1.653   4.495  -4.528  0.00  0.00    -0.301 N 
ATOM      3  H   UNL     1      -1.777   4.240  -5.487  0.00  0.00    +0.171 HD
ATOM      4  C   UNL     1      -1.383   3.519  -3.630  0.00  0.00    +0.261 A 
ATOM      5  O   UNL     1      -1.289   2.348  -3.955  0.00  0.00    -0.267 OA
ATOM      6  C   UNL     1      -1.215   3.947  -2.273  0.00  0.00    +0.075 A 
ATOM      7  C   UNL     1      -0.921   3.104  -1.125  0.00  0.00    -0.023 A 
ATOM      8  C   UNL     1      -0.805   3.725   0.070  0.00  0.00    -0.004 A 
ATOM      9  S   UNL     1      -1.076   5.446  -0.270  0.00  0.00    -0.073 S 
ATOM     10  C   UNL     1      -1.346   5.330  -2.011  0.00  0.00    +0.117 A 
ATOM     11  N   UNL     1      -1.613   6.239  -2.940  0.00  0.00    -0.216 NA
ATOM     12  C   UNL     1      -0.510   3.093   1.396  0.00  0.00    +0.043 C 
ATOM     13  C   UNL     1      -0.726   1.578   1.270  0.00  0.00    +0.005 C 
ATOM     14  C   UNL     1      -0.013   1.086   0.008  0.00  0.00    +0.005 C 
ATOM     15  C   UNL     1      -0.749   1.591  -1.233  0.00  0.00    +0.037 C 
ENDROOT
BRANCH   1  16
ATOM     16  S   UNL     1      -2.118   6.984  -5.449  0.00  0.00    -0.083 S 
BRANCH  16  17
ATOM     17  C   UNL     1      -2.148   8.503  -4.465  0.00  0.00    +0.114 C 
BRANCH  17  20
ATOM     18  C   UNL     1      -4.023  11.145  -6.405  0.00  0.00    +0.020 A 
ATOM     19  C   UNL     1      -3.751  10.067  -5.582  0.00  0.00    +0.007 A 
ATOM     20  C   UNL     1      -2.444   9.677  -5.363  0.00  0.00    -0.019 A 
ATOM     21  C   UNL     1      -1.405  10.367  -5.963  0.00  0.00    +0.046 A 
ATOM     22  C   UNL     1      -1.677  11.442  -6.790  0.00  0.00    +0.040 A 
ATOM     23  C   UNL     1      -2.986  11.832  -7.009  0.00  0.00    +0.042 A 
ATOM     24 CL   UNL     1      -3.327  13.185  -8.043  0.00  0.00    -0.083 Cl
ATOM     25 CL   UNL     1       0.237   9.881  -5.682  0.00  0.00    -0.083 Cl
ENDBRANCH  17  20
ENDBRANCH  16  17
ENDBRANCH   1  16
TORSDOF 3
