REMARK  Name = ZINC02148757
REMARK  12 active torsions:
REMARK  status: ('A' for Active; 'I' for Inactive)
REMARK    1  A    between atoms: C_1  and  C_2
REMARK    2  A    between atoms: C_5  and  S_8
REMARK    3  A    between atoms: S_8  and  N_11
REMARK    4  A    between atoms: N_11  and  C_12
REMARK    5  A    between atoms: C_12  and  C_14
REMARK    6  A    between atoms: C_12  and  C_21
REMARK    7  A    between atoms: C_14  and  C_15
REMARK    8  A    between atoms: C_21  and  O_23
REMARK    9  A    between atoms: O_23  and  C_24
REMARK   10  A    between atoms: C_28  and  C_37
REMARK   11  A    between atoms: C_29  and  C_36
REMARK   12  A    between atoms: C_34  and  C_35
REMARK                            x       y       z     vdW  Elec       q    Type
REMARK                         _______ _______ _______ _____ _____    ______ ____
ROOT
ATOM      1  C   UNL     1      -6.450   4.612   7.199  0.00  0.00    +0.189 C 
ENDROOT
BRANCH   1   2
ATOM      2  N   UNL     1      -7.835   4.591   6.724  0.00  0.00    -0.176 NA
ATOM      3  H   UNL     1      -8.136   5.249   6.077  0.00  0.00    +0.149 HD
BRANCH   2   4
ATOM      4  S   UNL     1      -8.888   3.445   7.290  0.00  0.00    +0.059 S 
ATOM      5  O   UNL     1     -10.149   3.723   6.697  0.00  0.00    -0.153 OA
ATOM      6  O   UNL     1      -8.238   2.190   7.145  0.00  0.00    -0.153 OA
BRANCH   4  11
ATOM      7  C   UNL     1      -9.526   4.382  13.216  0.00  0.00    +0.044 C 
ATOM      8  C   UNL     1      -9.367   4.148  11.736  0.00  0.00    -0.050 A 
ATOM      9  C   UNL     1     -10.270   4.701  10.848  0.00  0.00    +0.005 A 
ATOM     10  C   UNL     1     -10.124   4.486   9.490  0.00  0.00    +0.029 A 
ATOM     11  C   UNL     1      -9.074   3.719   9.021  0.00  0.00    +0.105 A 
ATOM     12  C   UNL     1      -8.174   3.162   9.909  0.00  0.00    +0.029 A 
ATOM     13  C   UNL     1      -8.317   3.381  11.267  0.00  0.00    +0.005 A 
ENDBRANCH   4  11
ENDBRANCH   2   4
ENDBRANCH   1   2
BRANCH   1  14
ATOM     14  C   UNL     1      -5.580   3.836   6.244  0.00  0.00    +0.331 C 
ATOM     15  O   UNL     1      -6.067   3.318   5.267  0.00  0.00    -0.249 OA
BRANCH  14  16
ATOM     16  O   UNL     1      -4.263   3.719   6.480  0.00  0.00    -0.424 OA
BRANCH  16  17
ATOM     17  C   UNL     1      -3.519   3.099   5.528  0.00  0.00    +0.138 A 
ATOM     18  C   UNL     1      -3.198   1.750   5.671  0.00  0.00    +0.047 A 
ATOM     19  C   UNL     1      -2.452   1.113   4.722  0.00  0.00    +0.015 A 
ATOM     20  C   UNL     1      -2.005   1.818   3.599  0.00  0.00    +0.021 A 
ATOM     21  C   UNL     1      -1.207   1.159   2.563  0.00  0.00    -0.030 A 
ATOM     22  C   UNL     1      -0.799   1.899   1.500  0.00  0.00    +0.037 A 
ATOM     23  C   UNL     1      -1.157   3.260   1.414  0.00  0.00    +0.340 A 
ATOM     24  O   UNL     1      -0.788   3.911   0.452  0.00  0.00    -0.245 OA
ATOM     25  O   UNL     1      -1.892   3.857   2.364  0.00  0.00    -0.422 OA
ATOM     26  C   UNL     1      -2.325   3.180   3.450  0.00  0.00    +0.146 A 
ATOM     27  C   UNL     1      -3.085   3.812   4.423  0.00  0.00    +0.035 A 
ATOM     28  C   UNL     1      -3.437   5.270   4.278  0.00  0.00    +0.051 C 
ATOM     29  C   UNL     1       0.029   1.265   0.411  0.00  0.00    +0.051 C 
ATOM     30  C   UNL     1      -0.843  -0.299   2.676  0.00  0.00    +0.045 C 
ENDBRANCH  16  17
ENDBRANCH  14  16
ENDBRANCH   1  14
BRANCH   1  31
ATOM     31  C   UNL     1      -5.958   6.059   7.275  0.00  0.00    +0.067 C 
BRANCH  31  32
ATOM     32  C   UNL     1      -6.750   6.804   8.319  0.00  0.00    -0.045 A 
ATOM     33  C   UNL     1      -7.947   7.406   7.979  0.00  0.00    +0.004 A 
ATOM     34  C   UNL     1      -8.675   8.085   8.938  0.00  0.00    +0.000 A 
ATOM     35  C   UNL     1      -8.201   8.171  10.234  0.00  0.00    +0.000 A 
ATOM     36  C   UNL     1      -7.002   7.574  10.572  0.00  0.00    +0.000 A 
ATOM     37  C   UNL     1      -6.276   6.890   9.615  0.00  0.00    +0.004 A 
ENDBRANCH  31  32
ENDBRANCH   1  31
TORSDOF 8
