REMARK  Name = ZINC02956868
REMARK  12 active torsions:
REMARK  status: ('A' for Active; 'I' for Inactive)
REMARK    1  A    between atoms: C_1  and  C_2
REMARK    2  A    between atoms: C_2  and  C_3
REMARK    3  A    between atoms: C_6  and  N_9
REMARK    4  A    between atoms: C_13  and  C_37
REMARK    5  A    between atoms: C_14  and  C_32
REMARK    6  A    between atoms: N_17  and  C_20
REMARK    7  A    between atoms: C_20  and  C_21
REMARK    8  A    between atoms: N_23  and  C_24
REMARK    9  A    between atoms: C_27  and  C_31
REMARK   10  A    between atoms: C_29  and  C_30
REMARK   11  A    between atoms: N_34  and  C_35
REMARK   12  A    between atoms: N_34  and  C_36
REMARK                            x       y       z     vdW  Elec       q    Type
REMARK                         _______ _______ _______ _____ _____    ______ ____
ROOT
ATOM      1  N   UNL     1       4.133  -4.515   1.546  0.00  0.00    -0.228 N 
ATOM      2  C   UNL     1       3.688  -5.172   0.460  0.00  0.00    +0.270 A 
ATOM      3  O   UNL     1       3.203  -6.283   0.568  0.00  0.00    -0.266 OA
ATOM      4  C   UNL     1       3.794  -4.525  -0.870  0.00  0.00    +0.075 A 
ATOM      5  C   UNL     1       3.400  -5.019  -2.119  0.00  0.00    -0.017 A 
ATOM      6  C   UNL     1       3.598  -4.238  -3.220  0.00  0.00    +0.080 A 
ATOM      7  S   UNL     1       4.350  -2.774  -2.532  0.00  0.00    -0.065 S 
ATOM      8  C   UNL     1       4.369  -3.244  -0.873  0.00  0.00    +0.098 A 
ATOM      9  N   UNL     1       4.793  -2.654   0.280  0.00  0.00    -0.278 N 
ATOM     10  C   UNL     1       4.677  -3.290   1.461  0.00  0.00    +0.338 A 
ATOM     11  O   UNL     1       5.069  -2.743   2.474  0.00  0.00    -0.246 OA
ATOM     12  C   UNL     1       2.770  -6.382  -2.245  0.00  0.00    +0.046 C 
ENDROOT
BRANCH   1  16
ATOM     13  C   UNL     1       3.831  -6.342   5.280  0.00  0.00    -0.047 A 
ATOM     14  C   UNL     1       4.736  -6.819   4.350  0.00  0.00    +0.005 A 
ATOM     15  C   UNL     1       4.838  -6.216   3.111  0.00  0.00    +0.026 A 
ATOM     16  C   UNL     1       4.031  -5.129   2.801  0.00  0.00    +0.054 A 
ATOM     17  C   UNL     1       3.128  -4.649   3.740  0.00  0.00    +0.026 A 
ATOM     18  C   UNL     1       3.026  -5.260   4.974  0.00  0.00    +0.005 A 
BRANCH  13  20
ATOM     19  C   UNL     1       4.690  -6.332   7.606  0.00  0.00    +0.009 C 
ATOM     20  C   UNL     1       3.722  -7.002   6.630  0.00  0.00    +0.032 C 
ENDBRANCH  13  20
ENDBRANCH   1  16
BRANCH   6  21
ATOM     21  C   UNL     1       3.274  -4.528  -4.619  0.00  0.00    +0.253 C 
ATOM     22  O   UNL     1       2.865  -5.631  -4.932  0.00  0.00    -0.269 OA
ATOM     23  N   UNL     1       3.429  -3.575  -5.559  0.00  0.00    -0.303 N 
ATOM     24  C   UNL     1       3.230  -3.901  -6.973  0.00  0.00    +0.132 C 
ATOM     25  C   UNL     1       3.797  -2.212  -5.166  0.00  0.00    +0.132 C 
ENDBRANCH   6  21
BRANCH   9  26
ATOM     26  C   UNL     1       5.388  -1.316   0.234  0.00  0.00    +0.223 C 
BRANCH  26  27
ATOM     27  C   UNL     1       4.307  -0.279   0.395  0.00  0.00    +0.237 C 
ATOM     28  O   UNL     1       3.152  -0.624   0.536  0.00  0.00    -0.274 OA
ATOM     29  N   UNL     1       4.622   1.031   0.384  0.00  0.00    -0.284 N 
ATOM     30  H   UNL     1       5.531   1.310   0.193  0.00  0.00    +0.155 HD
BRANCH  29  31
ATOM     31  C   UNL     1       3.637   1.990   0.647  0.00  0.00    +0.036 A 
ATOM     32  C   UNL     1       2.309   1.726   0.340  0.00  0.00    +0.024 A 
ATOM     33  C   UNL     1       1.340   2.677   0.596  0.00  0.00    +0.005 A 
ATOM     34  C   UNL     1       1.691   3.886   1.167  0.00  0.00    -0.050 A 
ATOM     35  C   UNL     1       3.012   4.152   1.475  0.00  0.00    +0.008 A 
ATOM     36  C   UNL     1       3.986   3.207   1.217  0.00  0.00    -0.029 A 
ATOM     37  C   UNL     1       5.427   3.498   1.553  0.00  0.00    +0.045 C 
ATOM     38  C   UNL     1       0.631   4.920   1.450  0.00  0.00    +0.044 C 
ENDBRANCH  29  31
ENDBRANCH  26  27
ENDBRANCH   9  26
TORSDOF 6
