REMARK  Name = ZINC18199412
REMARK  2 active torsions:
REMARK  status: ('A' for Active; 'I' for Inactive)
REMARK    1  A    between atoms: C_3  and  C_8
REMARK    2  A    between atoms: C_5  and  O_7
REMARK                            x       y       z     vdW  Elec       q    Type
REMARK                         _______ _______ _______ _____ _____    ______ ____
ROOT
ATOM      1  C   UNL     1      -0.957   5.276   0.063  0.00  0.00    +0.092 C 
ATOM      2  C   UNL     1      -0.530   5.858   1.378  0.00  0.00    +0.067 A 
ATOM      3  C   UNL     1      -0.475   5.087   2.500  0.00  0.00    +0.113 A 
ATOM      4  N   UNL     1      -0.090   5.650   3.693  0.00  0.00    -0.295 N 
ATOM      5  H   UNL     1      -0.050   5.088   4.519  0.00  0.00    +0.172 HD
ATOM      6  C   UNL     1       0.234   6.955   3.755  0.00  0.00    +0.328 A 
ATOM      7  O   UNL     1       0.570   7.439   4.818  0.00  0.00    -0.247 OA
ATOM      8  N   UNL     1       0.190   7.732   2.657  0.00  0.00    -0.275 N 
ATOM      9  H   UNL     1       0.436   8.699   2.724  0.00  0.00    +0.173 HD
ATOM     10  C   UNL     1      -0.183   7.218   1.468  0.00  0.00    +0.260 A 
ATOM     11  O   UNL     1      -0.219   7.928   0.478  0.00  0.00    -0.267 OA
ATOM     12  N   UNL     1      -0.803   3.756   2.438  0.00  0.00    -0.303 N 
ATOM     13  C   UNL     1      -0.805   3.091   1.241  0.00  0.00    +0.017 C 
ATOM     14  C   UNL     1      -0.867   3.771   0.077  0.00  0.00    +0.024 C 
ATOM     15  C   UNL     1      -0.855   3.097  -1.157  0.00  0.00    +0.162 C 
ATOM     16  O   UNL     1      -0.919   3.739  -2.187  0.00  0.00    -0.292 OA
ATOM     17  C   UNL     1      -0.762   1.597  -1.227  0.00  0.00    +0.080 C 
ATOM     18  C   UNL     1      -0.013   1.086   0.008  0.00  0.00    +0.014 C 
ATOM     19  C   UNL     1      -0.737   1.583   1.261  0.00  0.00    +0.051 C 
ATOM     20  H   UNL     1      -1.035   3.280   3.251  0.00  0.00    +0.153 HD
ENDROOT
BRANCH   1  23
ATOM     21  C   UNL     1      -4.700   5.662   0.381  0.00  0.00    +0.004 A 
ATOM     22  C   UNL     1      -3.393   5.286   0.634  0.00  0.00    +0.005 A 
ATOM     23  C   UNL     1      -2.380   5.683  -0.219  0.00  0.00    -0.032 A 
ATOM     24  C   UNL     1      -2.672   6.448  -1.331  0.00  0.00    +0.050 A 
ATOM     25  C   UNL     1      -3.982   6.822  -1.590  0.00  0.00    +0.117 A 
ATOM     26  C   UNL     1      -4.997   6.427  -0.730  0.00  0.00    +0.045 A 
BRANCH  25  27
ATOM     27  O   UNL     1      -4.272   7.575  -2.684  0.00  0.00    -0.507 OA
ATOM     28  H   UNL     1      -4.472   7.057  -3.476  0.00  0.00    +0.292 HD
ENDBRANCH  25  27
ENDBRANCH   1  23
TORSDOF 2
