REMARK  Name = ZINC21993101
REMARK  13 active torsions:
REMARK  status: ('A' for Active; 'I' for Inactive)
REMARK    1  A    between atoms: C_1  and  C_2
REMARK    2  A    between atoms: C_2  and  C_3
REMARK    3  A    between atoms: C_2  and  N_4
REMARK    4  A    between atoms: N_4  and  C_5
REMARK    5  A    between atoms: N_4  and  C_31
REMARK    6  A    between atoms: C_5  and  C_6
REMARK    7  A    between atoms: C_6  and  N_7
REMARK    8  A    between atoms: C_17  and  S_18
REMARK    9  A    between atoms: S_18  and  C_19
REMARK   10  A    between atoms: C_19  and  C_20
REMARK   11  A    between atoms: N_22  and  C_23
REMARK   12  A    between atoms: C_31  and  C_32
REMARK   13  A    between atoms: C_31  and  C_33
REMARK                            x       y       z     vdW  Elec       q    Type
REMARK                         _______ _______ _______ _____ _____    ______ ____
ROOT
ATOM      1  N   UNL     1       0.198  -4.188   0.727  0.00  0.00    -0.289 N 
ATOM      2  C   UNL     1       1.400  -3.571   0.654  0.00  0.00    +0.262 A 
ATOM      3  O   UNL     1       2.434  -4.209   0.588  0.00  0.00    -0.267 OA
ATOM      4  C   UNL     1       1.410  -2.102   0.658  0.00  0.00    +0.065 A 
ATOM      5  C   UNL     1       2.596  -1.373   0.587  0.00  0.00    +0.015 A 
ATOM      6  C   UNL     1       2.549  -0.006   0.595  0.00  0.00    +0.001 A 
ATOM      7  C   UNL     1       1.333   0.661   0.672  0.00  0.00    +0.002 A 
ATOM      8  C   UNL     1       0.156  -0.028   0.743  0.00  0.00    +0.028 A 
ATOM      9  C   UNL     1       0.171  -1.426   0.737  0.00  0.00    +0.079 A 
ATOM     10  N   UNL     1      -0.967  -2.145   0.806  0.00  0.00    -0.223 NA
ATOM     11  C   UNL     1      -0.953  -3.455   0.802  0.00  0.00    +0.173 A 
ENDROOT
BRANCH   1  12
ATOM     12  C   UNL     1       0.129  -5.651   0.727  0.00  0.00    +0.109 C 
BRANCH  12  13
ATOM     13  C   UNL     1       0.195  -6.165   2.167  0.00  0.00    -0.056 C 
BRANCH  13  14
ATOM     14  N   UNL     1      -0.009  -7.620   2.177  0.00  0.00    +0.384 N 
ATOM     15  H   UNL     1      -0.883  -7.843   1.547  0.00  0.00    -0.081 HD
BRANCH  14  17
ATOM     16  C   UNL     1       0.969  -8.454   0.093  0.00  0.00    -0.014 C 
ATOM     17  C   UNL     1       1.150  -8.319   1.606  0.00  0.00    -0.074 C 
ATOM     18  C   UNL     1       2.421  -7.520   1.898  0.00  0.00    -0.014 C 
ENDBRANCH  14  17
BRANCH  14  19
ATOM     19  C   UNL     1      -0.298  -8.101   3.535  0.00  0.00    -0.074 C 
ATOM     20  C   UNL     1      -1.494  -7.335   4.104  0.00  0.00    -0.014 C 
ATOM     21  C   UNL     1      -0.625  -9.595   3.488  0.00  0.00    -0.014 C 
ENDBRANCH  14  19
ENDBRANCH  13  14
ENDBRANCH  12  13
ENDBRANCH   1  12
BRANCH  11  22
ATOM     22  S   UNL     1      -2.490  -4.312   0.895  0.00  0.00    -0.078 S 
BRANCH  22  23
ATOM     23  C   UNL     1      -3.629  -2.908   0.971  0.00  0.00    +0.173 C 
BRANCH  23  24
ATOM     24  C   UNL     1      -5.045  -3.414   1.058  0.00  0.00    +0.228 C 
ATOM     25  O   UNL     1      -5.263  -4.607   1.068  0.00  0.00    -0.275 OA
ATOM     26  N   UNL     1      -6.070  -2.541   1.125  0.00  0.00    -0.282 N 
ATOM     27  H   UNL     1      -5.881  -1.462   1.025  0.00  0.00    +0.155 HD
BRANCH  26  28
ATOM     28  C   UNL     1      -7.376  -3.008   1.322  0.00  0.00    +0.072 A 
ATOM     29  C   UNL     1      -7.601  -4.134   2.102  0.00  0.00    +0.064 A 
ATOM     30  C   UNL     1      -8.893  -4.590   2.298  0.00  0.00    +0.125 A 
ATOM     31  C   UNL     1      -9.959  -3.929   1.710  0.00  0.00    +0.041 A 
ATOM     32  C   UNL     1      -9.736  -2.811   0.928  0.00  0.00    +0.043 A 
ATOM     33  C   UNL     1      -8.448  -2.347   0.732  0.00  0.00    +0.145 A 
ATOM     34  F   UNL     1      -8.231  -1.254  -0.031  0.00  0.00    -0.204 F 
ATOM     35  F   UNL     1      -9.114  -5.682   3.061  0.00  0.00    -0.205 F 
ENDBRANCH  26  28
ENDBRANCH  23  24
ENDBRANCH  22  23
ENDBRANCH  11  22
TORSDOF 9
