REMARK  Name = ZINC08559764
REMARK  6 active torsions:
REMARK  status: ('A' for Active; 'I' for Inactive)
REMARK    1  A    between atoms: C_1  and  C_2
REMARK    2  A    between atoms: C_5  and  C_8
REMARK    3  A    between atoms: C_13  and  C_18
REMARK    4  A    between atoms: C_21  and  O_24
REMARK    5  A    between atoms: O_24  and  C_25
REMARK    6  A    between atoms: C_30  and  C_32
REMARK                            x       y       z     vdW  Elec       q    Type
REMARK                         _______ _______ _______ _____ _____    ______ ____
ROOT
ATOM      1  C   UNL     1      -2.514   0.980   0.019  0.00  0.00    +0.175 C 
ATOM      2  C   UNL     1      -3.310   1.332  -1.218  0.00  0.00    +0.041 C 
ATOM      3  C   UNL     1      -4.406   2.119  -1.166  0.00  0.00    +0.020 C 
ATOM      4  C   UNL     1      -5.166   2.474  -2.423  0.00  0.00    +0.060 C 
ATOM      5  C   UNL     1      -5.065   1.324  -3.426  0.00  0.00    +0.032 C 
ATOM      6  C   UNL     1      -3.583   1.076  -3.729  0.00  0.00    +0.088 C 
ATOM      7  C   UNL     1      -2.861   0.801  -2.440  0.00  0.00    +0.164 C 
ATOM      8  O   UNL     1      -1.865   0.103  -2.455  0.00  0.00    -0.292 OA
ATOM      9  N   UNL     1      -4.874   2.632   0.019  0.00  0.00    -0.287 N 
ATOM     10  C   UNL     1      -4.381   2.101   1.200  0.00  0.00    +0.219 A 
ATOM     11  N   UNL     1      -3.275   1.316   1.215  0.00  0.00    -0.221 N 
ATOM     12  N   UNL     1      -3.068   0.949   2.544  0.00  0.00    -0.153 NA
ATOM     13  C   UNL     1      -4.022   1.512   3.244  0.00  0.00    +0.150 A 
ATOM     14  N   UNL     1      -4.815   2.210   2.425  0.00  0.00    -0.198 NA
ATOM     15  C   UNL     1      -4.198   1.391   4.736  0.00  0.00    +0.090 C 
ATOM     16  H   UNL     1      -5.530   3.347   0.029  0.00  0.00    +0.155 HD
ENDROOT
BRANCH   1  21
ATOM     17  C   UNL     1       2.451   3.937   0.000  0.00  0.00    +0.044 C 
ATOM     18  C   UNL     1       1.156   3.165   0.008  0.00  0.00    -0.050 A 
ATOM     19  C   UNL     1       1.175   1.783   0.000  0.00  0.00    +0.004 A 
ATOM     20  C   UNL     1      -0.013   1.076   0.008  0.00  0.00    +0.006 A 
ATOM     21  C   UNL     1      -1.219   1.751   0.017  0.00  0.00    -0.018 A 
ATOM     22  C   UNL     1      -1.238   3.133   0.029  0.00  0.00    +0.006 A 
ATOM     23  C   UNL     1      -0.050   3.840   0.022  0.00  0.00    +0.004 A 
ENDBRANCH   1  21
BRANCH   5  24
ATOM     24  C   UNL     1      -5.788   1.693  -4.696  0.00  0.00    -0.043 A 
ATOM     25  C   UNL     1      -5.391   2.805  -5.417  0.00  0.00    +0.007 A 
ATOM     26  C   UNL     1      -6.049   3.142  -6.585  0.00  0.00    +0.046 A 
ATOM     27  C   UNL     1      -7.114   2.372  -7.027  0.00  0.00    +0.120 A 
ATOM     28  C   UNL     1      -7.514   1.261  -6.298  0.00  0.00    +0.046 A 
ATOM     29  C   UNL     1      -6.849   0.924  -5.135  0.00  0.00    +0.007 A 
BRANCH  27  30
ATOM     30  O   UNL     1      -7.767   2.706  -8.171  0.00  0.00    -0.495 OA
ATOM     31  C   UNL     1      -7.301   3.863  -8.870  0.00  0.00    +0.277 C 
ENDBRANCH  27  30
ENDBRANCH   5  24
TORSDOF 3
