REMARK  Name = ZINC08751471
REMARK  6 active torsions:
REMARK  status: ('A' for Active; 'I' for Inactive)
REMARK    1  A    between atoms: C_1  and  C_2
REMARK    2  A    between atoms: C_2  and  C_4
REMARK    3  A    between atoms: C_2  and  N_14
REMARK    4  A    between atoms: C_15  and  C_17
REMARK    5  A    between atoms: N_20  and  C_23
REMARK    6  A    between atoms: C_26  and  C_28
REMARK                            x       y       z     vdW  Elec       q    Type
REMARK                         _______ _______ _______ _____ _____    ______ ____
ROOT
ATOM      1  C   UNL     1      -6.653  -0.158  -2.322  0.00  0.00    +0.078 C 
ATOM      2  C   UNL     1      -7.372   0.948  -1.545  0.00  0.00    +0.031 C 
ATOM      3  C   UNL     1      -8.423   1.598  -2.448  0.00  0.00    +0.107 C 
ATOM      4  N   UNL     1      -9.384   0.582  -2.896  0.00  0.00    -0.317 N 
ATOM      5  C   UNL     1      -8.722  -0.465  -3.685  0.00  0.00    +0.107 C 
ATOM      6  C   UNL     1      -7.682  -1.178  -2.818  0.00  0.00    +0.031 C 
ENDROOT
BRANCH   4   7
ATOM      7  C   UNL     1     -10.425   1.162  -3.611  0.00  0.00    +0.099 A 
ATOM      8  C   UNL     1     -11.178   2.179  -3.032  0.00  0.00    +0.042 A 
ATOM      9  C   UNL     1     -12.210   2.747  -3.755  0.00  0.00    +0.017 A 
ATOM     10  C   UNL     1     -12.457   2.278  -5.039  0.00  0.00    +0.071 A 
ATOM     11  C   UNL     1     -11.671   1.266  -5.551  0.00  0.00    +0.096 A 
ATOM     12  N   UNL     1     -10.644   0.688  -4.872  0.00  0.00    -0.349 N 
ATOM     13  H   UNL     1     -10.070  -0.057  -5.282  0.00  0.00    +0.167 HD
BRANCH  10  14
ATOM     14  C   UNL     1     -13.572   2.868  -5.864  0.00  0.00    +0.419 C 
ATOM     15  F   UNL     1     -13.081   3.946  -6.607  0.00  0.00    -0.166 F 
ATOM     16  F   UNL     1     -14.075   1.893  -6.732  0.00  0.00    -0.166 F 
ATOM     17  F   UNL     1     -14.594   3.311  -5.017  0.00  0.00    -0.166 F 
ENDBRANCH  10  14
ENDBRANCH   4   7
BRANCH   1  19
ATOM     18  N   UNL     1      -4.657  -0.137  -0.860  0.00  0.00    -0.309 N 
ATOM     19  C   UNL     1      -5.660  -0.844  -1.419  0.00  0.00    +0.217 C 
ATOM     20  O   UNL     1      -5.762  -2.031  -1.195  0.00  0.00    -0.275 OA
ATOM     21  H   UNL     1      -4.575   0.813  -1.039  0.00  0.00    +0.149 HD
BRANCH  18  23
ATOM     22  C   UNL     1      -4.250  -0.858   1.441  0.00  0.00    +0.033 C 
ATOM     23  C   UNL     1      -3.692  -0.803   0.018  0.00  0.00    +0.100 C 
BRANCH  23  24
ATOM     24  C   UNL     1      -2.397  -0.033   0.016  0.00  0.00    -0.024 A 
ATOM     25  C   UNL     1      -2.415   1.349   0.025  0.00  0.00    +0.009 A 
ATOM     26  C   UNL     1      -1.229   2.059   0.019  0.00  0.00    +0.050 A 
ATOM     27  C   UNL     1      -0.017   1.385   0.010  0.00  0.00    +0.162 A 
ATOM     28  C   UNL     1       0.002  -0.004   0.002  0.00  0.00    +0.162 A 
ATOM     29  C   UNL     1      -1.192  -0.710   0.004  0.00  0.00    +0.055 A 
ATOM     30  O   UNL     1       1.181  -0.685  -0.007  0.00  0.00    -0.485 OA
ATOM     31  C   UNL     1       2.347   0.053  -0.387  0.00  0.00    +0.270 C 
ATOM     32  C   UNL     1       2.334   1.392   0.364  0.00  0.00    +0.270 C 
ATOM     33  O   UNL     1       1.143   2.098   0.002  0.00  0.00    -0.485 OA
ENDBRANCH  23  24
ENDBRANCH  18  23
ENDBRANCH   1  19
TORSDOF 5
