REMARK  Name = ZINC46844088
REMARK  6 active torsions:
REMARK  status: ('A' for Active; 'I' for Inactive)
REMARK    1  A    between atoms: C_1  and  C_2
REMARK    2  A    between atoms: N_5  and  S_11
REMARK    3  A    between atoms: C_7  and  C_10
REMARK    4  A    between atoms: S_11  and  C_14
REMARK    5  A    between atoms: C_16  and  C_21
REMARK    6  A    between atoms: C_27  and  C_29
REMARK                            x       y       z     vdW  Elec       q    Type
REMARK                         _______ _______ _______ _____ _____    ______ ____
ROOT
ATOM      1  C   UNL     1      -1.362  -3.287  -2.388  0.00  0.00    +0.124 A 
ATOM      2  C   UNL     1      -0.959  -4.573  -2.679  0.00  0.00    +0.043 A 
ATOM      3  C   UNL     1      -0.018  -4.796  -3.687  0.00  0.00    +0.039 A 
ATOM      4  C   UNL     1       0.508  -3.714  -4.394  0.00  0.00    +0.014 A 
ATOM      5  C   UNL     1       0.097  -2.432  -4.095  0.00  0.00    +0.023 A 
ATOM      6  C   UNL     1      -0.841  -2.218  -3.097  0.00  0.00    +0.067 A 
ATOM      7 CL   UNL     1      -1.359  -0.602  -2.731  0.00  0.00    -0.082 Cl
ENDROOT
BRANCH   3   8
ATOM      8  C   UNL     1       0.418  -6.172  -4.003  0.00  0.00    +0.247 C 
ATOM      9  O   UNL     1      -0.322  -7.111  -3.783  0.00  0.00    -0.270 OA
ATOM     10  N   UNL     1       1.638  -6.386  -4.535  0.00  0.00    -0.290 N 
ATOM     11  C   UNL     1       2.605  -5.341  -4.915  0.00  0.00    +0.109 C 
ATOM     12  C   UNL     1       3.986  -6.042  -4.866  0.00  0.00    +0.021 C 
ATOM     13  C   UNL     1       3.637  -7.456  -5.401  0.00  0.00    +0.029 C 
ATOM     14  C   UNL     1       2.226  -7.702  -4.827  0.00  0.00    +0.107 C 
BRANCH  14  15
ATOM     15  C   UNL     1       1.381  -8.427  -5.843  0.00  0.00    -0.020 A 
ATOM     16  C   UNL     1       1.144  -9.783  -5.718  0.00  0.00    +0.013 A 
ATOM     17  C   UNL     1       0.380 -10.405  -6.649  0.00  0.00    +0.045 A 
ATOM     18  S   UNL     1      -0.031  -9.059  -7.748  0.00  0.00    -0.105 S 
ATOM     19  C   UNL     1       0.839  -7.758  -6.889  0.00  0.00    +0.050 A 
ENDBRANCH  14  15
ENDBRANCH   3   8
BRANCH   1  20
ATOM     20  S   UNL     1      -2.549  -3.004  -1.117  0.00  0.00    +0.062 S 
ATOM     21  O   UNL     1      -2.900  -4.279  -0.598  0.00  0.00    -0.153 OA
ATOM     22  O   UNL     1      -3.512  -2.107  -1.653  0.00  0.00    -0.153 OA
BRANCH  20  26
ATOM     23  C   UNL     1      -0.544   1.336   0.683  0.00  0.00    +0.039 C 
ATOM     24  C   UNL     1      -0.461  -0.158   0.361  0.00  0.00    +0.131 C 
ATOM     25  C   UNL     1      -1.877  -0.731   0.225  0.00  0.00    +0.140 C 
ATOM     26  N   UNL     1      -1.775  -2.194   0.103  0.00  0.00    -0.172 NA
ATOM     27  C   UNL     1      -0.966  -2.916   1.098  0.00  0.00    +0.140 C 
ATOM     28  C   UNL     1       0.405  -2.236   1.192  0.00  0.00    +0.131 C 
ATOM     29  O   UNL     1       0.223  -0.836   1.417  0.00  0.00    -0.371 OA
ATOM     30  C   UNL     1       1.197  -2.843   2.352  0.00  0.00    +0.039 C 
ENDBRANCH  20  26
ENDBRANCH   1  20
TORSDOF 4
