REMARK  Name = ZINC40016562
REMARK  12 active torsions:
REMARK  status: ('A' for Active; 'I' for Inactive)
REMARK    1  A    between atoms: C_1  and  C_2
REMARK    2  A    between atoms: C_2  and  C_3
REMARK    3  A    between atoms: C_3  and  C_4
REMARK    4  A    between atoms: C_4  and  O_5
REMARK    5  A    between atoms: O_5  and  C_6
REMARK    6  A    between atoms: C_9  and  C_12
REMARK    7  A    between atoms: C_14  and  C_36
REMARK    8  A    between atoms: C_15  and  C_35
REMARK    9  A    between atoms: C_22  and  C_23
REMARK   10  A    between atoms: C_30  and  C_33
REMARK   11  A    between atoms: C_36  and  O_38
REMARK   12  A    between atoms: O_38  and  C_39
REMARK                            x       y       z     vdW  Elec       q    Type
REMARK                         _______ _______ _______ _____ _____    ______ ____
ROOT
ATOM      1  C   UNL     1       1.510  -8.873  -3.157  0.00  0.00    +0.162 C 
ATOM      2  C   UNL     1       2.818  -9.443  -2.659  0.00  0.00    +0.085 C 
ATOM      3  C   UNL     1       3.716  -9.896  -3.585  0.00  0.00    +0.053 C 
ATOM      4  N   UNL     1       3.439  -9.832  -4.881  0.00  0.00    -0.228 NA
ATOM      5  C   UNL     1       2.331  -9.352  -5.386  0.00  0.00    +0.178 A 
ATOM      6  N   UNL     1       1.298  -8.847  -4.632  0.00  0.00    -0.275 N 
ATOM      7  C   UNL     1       0.211  -8.382  -5.262  0.00  0.00    +0.268 A 
ATOM      8  O   UNL     1      -0.728  -7.924  -4.638  0.00  0.00    -0.266 OA
ATOM      9  C   UNL     1       0.187  -8.440  -6.730  0.00  0.00    +0.081 A 
ATOM     10  C   UNL     1      -0.781  -8.040  -7.594  0.00  0.00    +0.028 C 
ATOM     11  S   UNL     1       1.775  -9.180  -7.070  0.00  0.00    -0.046 S 
ATOM     12  C   UNL     1       5.032 -10.472  -3.129  0.00  0.00    +0.066 C 
ENDROOT
BRANCH  10  13
ATOM     13  C   UNL     1      -0.663  -8.351  -9.024  0.00  0.00    -0.023 A 
ATOM     14  C   UNL     1       0.239  -9.329  -9.463  0.00  0.00    +0.011 A 
ATOM     15  C   UNL     1       0.344  -9.621 -10.801  0.00  0.00    +0.046 A 
ATOM     16  C   UNL     1      -0.444  -8.948 -11.737  0.00  0.00    +0.124 A 
ATOM     17  C   UNL     1      -1.333  -7.971 -11.297  0.00  0.00    -0.002 A 
ATOM     18  C   UNL     1      -1.456  -7.677  -9.962  0.00  0.00    +0.015 A 
ATOM     19  C   UNL     1      -2.019  -7.409 -12.528  0.00  0.00    +0.083 C 
ATOM     20  C   UNL     1      -1.103  -7.920 -13.665  0.00  0.00    +0.175 C 
ATOM     21  O   UNL     1      -0.502  -9.092 -13.089  0.00  0.00    -0.488 OA
ATOM     22  C   UNL     1      -0.039  -6.878 -14.015  0.00  0.00    +0.052 C 
ENDBRANCH  10  13
BRANCH   1  26
ATOM     23  C   UNL     1       1.190  -4.864  -1.712  0.00  0.00    +0.121 A 
ATOM     24  C   UNL     1       0.578  -5.901  -1.024  0.00  0.00    +0.046 A 
ATOM     25  C   UNL     1       0.683  -7.196  -1.493  0.00  0.00    +0.009 A 
ATOM     26  C   UNL     1       1.397  -7.459  -2.648  0.00  0.00    -0.020 A 
ATOM     27  C   UNL     1       2.008  -6.427  -3.335  0.00  0.00    +0.009 A 
ATOM     28  C   UNL     1       1.901  -5.129  -2.873  0.00  0.00    +0.046 A 
BRANCH  23  29
ATOM     29  O   UNL     1       1.089  -3.589  -1.253  0.00  0.00    -0.492 OA
BRANCH  29  30
ATOM     30  C   UNL     1       0.341  -3.390  -0.051  0.00  0.00    +0.229 C 
BRANCH  30  31
ATOM     31  C   UNL     1       0.337  -1.903   0.307  0.00  0.00    +0.041 C 
BRANCH  31  33
ATOM     32  C   UNL     1      -0.467  -0.202   1.951  0.00  0.00    +0.004 C 
ATOM     33  C   UNL     1      -0.463  -1.690   1.593  0.00  0.00    -0.000 C 
ENDBRANCH  31  33
ENDBRANCH  30  31
ENDBRANCH  29  30
ENDBRANCH  23  29
ENDBRANCH   1  26
BRANCH   2  34
ATOM     34  C   UNL     1       3.102  -9.506  -1.285  0.00  0.00    +0.339 C 
ATOM     35  O   UNL     1       4.098 -10.090  -0.896  0.00  0.00    -0.245 OA
BRANCH  34  36
ATOM     36  O   UNL     1       2.272  -8.919  -0.396  0.00  0.00    -0.465 OA
ATOM     37  C   UNL     1       2.623  -9.022   0.985  0.00  0.00    +0.280 C 
ENDBRANCH  34  36
ENDBRANCH   2  34
TORSDOF 8
