REMARK  Name = ZINC23251610
REMARK  6 active torsions:
REMARK  status: ('A' for Active; 'I' for Inactive)
REMARK    1  A    between atoms: C_1  and  C_2
REMARK    2  A    between atoms: C_2  and  C_3
REMARK    3  A    between atoms: C_3  and  N_4
REMARK    4  A    between atoms: C_7  and  C_9
REMARK    5  A    between atoms: C_18  and  N_22
REMARK    6  A    between atoms: N_25  and  C_28
REMARK                            x       y       z     vdW  Elec       q    Type
REMARK                         _______ _______ _______ _____ _____    ______ ____
ROOT
ATOM      1  N   UNL     1       0.640  -1.982  -1.059  0.00  0.00    -0.267 N 
ATOM      2  C   UNL     1       1.725  -2.717  -0.769  0.00  0.00    +0.043 A 
ATOM      3  C   UNL     1       1.440  -4.001  -1.101  0.00  0.00    +0.007 A 
ATOM      4  C   UNL     1       0.128  -3.988  -1.601  0.00  0.00    +0.151 A 
ATOM      5  N   UNL     1      -0.289  -2.735  -1.539  0.00  0.00    -0.166 NA
ATOM      6  C   UNL     1       2.390  -5.156  -0.940  0.00  0.00    +0.058 C 
ATOM      7  C   UNL     1       3.804  -4.593  -0.744  0.00  0.00    +0.061 C 
ATOM      8  C   UNL     1       3.779  -3.512   0.340  0.00  0.00    +0.025 C 
ATOM      9  C   UNL     1       3.041  -2.273  -0.183  0.00  0.00    +0.057 C 
ENDROOT
BRANCH   4  10
ATOM     10  C   UNL     1      -0.640  -5.150  -2.094  0.00  0.00    +0.267 C 
ATOM     11  O   UNL     1      -0.182  -6.271  -1.987  0.00  0.00    -0.268 OA
ATOM     12  N   UNL     1      -1.848  -4.967  -2.663  0.00  0.00    -0.292 N 
ATOM     13  C   UNL     1      -2.358  -3.614  -2.939  0.00  0.00    +0.136 C 
ATOM     14  C   UNL     1      -2.825  -3.562  -4.398  0.00  0.00    +0.179 C 
ATOM     15  O   UNL     1      -3.728  -4.644  -4.642  0.00  0.00    -0.377 OA
ATOM     16  C   UNL     1      -3.147  -5.940  -4.481  0.00  0.00    +0.179 C 
ATOM     17  C   UNL     1      -2.694  -6.113  -3.031  0.00  0.00    +0.136 C 
ENDBRANCH   4  10
BRANCH   7  18
ATOM     18  N   UNL     1       4.710  -5.675  -0.336  0.00  0.00    -0.303 NA
ATOM     19  C   UNL     1       4.284  -6.264   0.941  0.00  0.00    +0.066 C 
ATOM     20  C   UNL     1       5.216  -7.423   1.301  0.00  0.00    -0.062 C 
ATOM     21  N   UNL     1       6.595  -6.929   1.406  0.00  0.00    +0.385 N 
ATOM     22  C   UNL     1       7.015  -6.366   0.116  0.00  0.00    -0.062 C 
ATOM     23  C   UNL     1       6.098  -5.197  -0.254  0.00  0.00    +0.066 C 
ATOM     24  H   UNL     1       6.643  -6.214   2.116  0.00  0.00    -0.081 HD
BRANCH  21  25
ATOM     25  C   UNL     1       7.487  -8.039   1.768  0.00  0.00    -0.065 C 
ATOM     26  C   UNL     1       7.051  -8.624   3.113  0.00  0.00    -0.009 C 
ATOM     27  C   UNL     1       7.980  -9.780   3.491  0.00  0.00    -0.012 C 
ATOM     28  C   UNL     1       9.416  -9.265   3.600  0.00  0.00    +0.007 C 
ATOM     29  C   UNL     1       9.852  -8.679   2.256  0.00  0.00    -0.012 C 
ATOM     30  C   UNL     1       8.923  -7.524   1.878  0.00  0.00    -0.009 C 
ATOM     31  C   UNL     1       9.780  -9.764   1.179  0.00  0.00    +0.007 C 
ATOM     32  C   UNL     1       8.343 -10.279   1.070  0.00  0.00    -0.012 C 
ATOM     33  C   UNL     1       7.907 -10.865   2.415  0.00  0.00    +0.007 C 
ATOM     34  C   UNL     1       7.414  -9.123   0.692  0.00  0.00    -0.009 C 
ENDBRANCH  21  25
ENDBRANCH   7  18
BRANCH   1  35
ATOM     35  C   UNL     1       0.526  -0.535  -0.854  0.00  0.00    +0.143 C 
BRANCH  35  37
ATOM     36  C   UNL     1      -0.136   1.250   0.763  0.00  0.00    +0.005 C 
ATOM     37  C   UNL     1      -0.017  -0.260   0.550  0.00  0.00    +0.020 C 
ENDBRANCH  35  37
ENDBRANCH   1  35
TORSDOF 5
