REMARK  Name = ZINC40126643
REMARK  7 active torsions:
REMARK  status: ('A' for Active; 'I' for Inactive)
REMARK    1  A    between atoms: C_1  and  C_2
REMARK    2  A    between atoms: C_5  and  C_8
REMARK    3  A    between atoms: C_8  and  O_9
REMARK    4  A    between atoms: O_9  and  C_10
REMARK    5  A    between atoms: C_14  and  C_16
REMARK    6  A    between atoms: C_16  and  C_18
REMARK    7  A    between atoms: C_23  and  C_25
REMARK                            x       y       z     vdW  Elec       q    Type
REMARK                         _______ _______ _______ _____ _____    ______ ____
ROOT
ATOM      1  C   UNL     1       4.479  -8.534  -0.062  0.00  0.00    +0.195 C 
ATOM      2  O   UNL     1       5.429  -7.782   0.049  0.00  0.00    -0.287 OA
ENDROOT
BRANCH   1   3
ATOM      3  C   UNL     1       4.674  -9.983   0.045  0.00  0.00    +0.076 C 
ATOM      4  C   UNL     1       5.370 -10.769  -0.809  0.00  0.00    +0.249 C 
ATOM      5  C   UNL     1       5.318 -12.168  -0.334  0.00  0.00    +0.285 C 
ATOM      6  O   UNL     1       5.848 -13.112  -0.885  0.00  0.00    -0.267 OA
ATOM      7  N   UNL     1       4.597 -12.240   0.800  0.00  0.00    -0.298 N 
ATOM      8  C   UNL     1       4.142 -10.886   1.133  0.00  0.00    +0.142 C 
ATOM      9  O   UNL     1       6.011 -10.342  -1.921  0.00  0.00    -0.282 OA
ATOM     10  H   UNL     1       4.414 -13.045   1.310  0.00  0.00    +0.150 HD
BRANCH   8  11
ATOM     11  C   UNL     1       4.693 -10.465   2.471  0.00  0.00    -0.023 A 
ATOM     12  C   UNL     1       6.008 -10.739   2.794  0.00  0.00    +0.006 A 
ATOM     13  C   UNL     1       6.514 -10.353   4.021  0.00  0.00    +0.000 A 
ATOM     14  C   UNL     1       5.704  -9.692   4.926  0.00  0.00    +0.000 A 
ATOM     15  C   UNL     1       4.388  -9.416   4.602  0.00  0.00    +0.000 A 
ATOM     16  C   UNL     1       3.884  -9.799   3.373  0.00  0.00    +0.006 A 
ENDBRANCH   8  11
ENDBRANCH   1   3
BRANCH   1  21
ATOM     17  C   UNL     1       1.658  -6.099  -0.560  0.00  0.00    +0.122 A 
ATOM     18  C   UNL     1       0.590  -6.964  -0.761  0.00  0.00    +0.046 A 
ATOM     19  C   UNL     1       0.788  -8.332  -0.735  0.00  0.00    +0.004 A 
ATOM     20  C   UNL     1       2.048  -8.847  -0.509  0.00  0.00    +0.012 A 
ATOM     21  C   UNL     1       3.127  -7.986  -0.305  0.00  0.00    +0.026 A 
ATOM     22  C   UNL     1       2.927  -6.604  -0.338  0.00  0.00    +0.057 A 
BRANCH  17  23
ATOM     23  O   UNL     1       1.457  -4.755  -0.586  0.00  0.00    -0.487 OA
BRANCH  23  24
ATOM     24  C   UNL     1       0.122  -4.303  -0.820  0.00  0.00    +0.264 C 
BRANCH  24  29
ATOM     25  C   UNL     1       0.010   1.475  -0.800  0.00  0.00    +0.044 C 
ATOM     26  C   UNL     1       0.040  -0.032  -0.805  0.00  0.00    -0.050 A 
ATOM     27  C   UNL     1       0.263  -0.715  -1.986  0.00  0.00    +0.004 A 
ATOM     28  C   UNL     1       0.290  -2.097  -1.991  0.00  0.00    +0.007 A 
ATOM     29  C   UNL     1       0.094  -2.796  -0.815  0.00  0.00    -0.010 A 
ATOM     30  C   UNL     1      -0.129  -2.113   0.366  0.00  0.00    +0.007 A 
ATOM     31  C   UNL     1      -0.152  -0.731   0.372  0.00  0.00    +0.004 A 
ENDBRANCH  24  29
ENDBRANCH  23  24
ENDBRANCH  17  23
ENDBRANCH   1  21
TORSDOF 6
