REMARK  Name = ZINC23083098
REMARK  9 active torsions:
REMARK  status: ('A' for Active; 'I' for Inactive)
REMARK    1  A    between atoms: C_1  and  C_2
REMARK    2  A    between atoms: C_6  and  N_8
REMARK    3  A    between atoms: C_12  and  S_13
REMARK    4  A    between atoms: S_13  and  C_14
REMARK    5  A    between atoms: C_14  and  C_16
REMARK    6  A    between atoms: C_14  and  C_17
REMARK    7  A    between atoms: N_19  and  C_20
REMARK    8  A    between atoms: C_23  and  N_30
REMARK    9  A    between atoms: C_25  and  C_26
REMARK                            x       y       z     vdW  Elec       q    Type
REMARK                         _______ _______ _______ _____ _____    ______ ____
ROOT
ATOM      1  C   UNL     1       5.547   1.850   3.809  0.00  0.00    +0.230 C 
ATOM      2  O   UNL     1       4.677   1.209   4.361  0.00  0.00    -0.274 OA
ATOM      3  N   UNL     1       6.840   1.651   4.134  0.00  0.00    -0.284 N 
ATOM      4  H   UNL     1       7.634   2.164   3.572  0.00  0.00    +0.155 HD
ENDROOT
BRANCH   3   5
ATOM      5  C   UNL     1       7.172   0.790   5.186  0.00  0.00    +0.045 A 
ATOM      6  C   UNL     1       6.257   0.548   6.203  0.00  0.00    +0.026 A 
ATOM      7  C   UNL     1       6.588  -0.302   7.240  0.00  0.00    +0.034 A 
ATOM      8  C   UNL     1       7.829  -0.912   7.266  0.00  0.00    +0.127 A 
ATOM      9  C   UNL     1       8.742  -0.674   6.256  0.00  0.00    +0.047 A 
ATOM     10  C   UNL     1       8.415   0.171   5.213  0.00  0.00    +0.078 A 
BRANCH  10  11
ATOM     11  C   UNL     1       9.408   0.426   4.109  0.00  0.00    +0.419 C 
ATOM     12  F   UNL     1      10.576  -0.303   4.356  0.00  0.00    -0.166 F 
ATOM     13  F   UNL     1       8.859   0.026   2.886  0.00  0.00    -0.166 F 
ATOM     14  F   UNL     1       9.711   1.791   4.060  0.00  0.00    -0.166 F 
ENDBRANCH  10  11
BRANCH   8  15
ATOM     15  N   UNL     1       8.180  -1.823   8.379  0.00  0.00    +0.056 N 
ATOM     16  O   UNL     1       7.376  -2.035   9.270  0.00  0.00    -0.126 OA
ATOM     17  O   UNL     1       9.272  -2.361   8.404  0.00  0.00    -0.126 OA
ENDBRANCH   8  15
ENDBRANCH   3   5
BRANCH   1  18
ATOM     18  C   UNL     1       5.182   2.870   2.761  0.00  0.00    +0.137 C 
ATOM     19  C   UNL     1       5.203   4.268   3.381  0.00  0.00    +0.029 C 
BRANCH  18  20
ATOM     20  S   UNL     1       3.525   2.516   2.126  0.00  0.00    -0.075 S 
BRANCH  20  25
ATOM     21  N   UNL     1       2.356   3.923   0.021  0.00  0.00    -0.295 N 
ATOM     22  C   UNL     1       2.687   4.966  -0.817  0.00  0.00    +0.113 A 
ATOM     23  C   UNL     1       3.925   5.364  -0.478  0.00  0.00    +0.131 A 
ATOM     24  N   UNL     1       4.355   4.595   0.537  0.00  0.00    -0.230 NA
ATOM     25  C   UNL     1       3.421   3.728   0.851  0.00  0.00    +0.174 A 
BRANCH  21  31
ATOM     26  C   UNL     1      -2.562   3.897   0.067  0.00  0.00    +0.044 C 
ATOM     27  C   UNL     1      -1.244   3.166   0.045  0.00  0.00    -0.048 A 
ATOM     28  C   UNL     1      -1.221   1.783   0.022  0.00  0.00    +0.003 A 
ATOM     29  C   UNL     1      -0.014   1.109   0.006  0.00  0.00    +0.002 A 
ATOM     30  C   UNL     1       1.173   1.815   0.004  0.00  0.00    +0.026 A 
ATOM     31  C   UNL     1       1.153   3.203   0.022  0.00  0.00    +0.049 A 
ATOM     32  C   UNL     1      -0.060   3.877   0.043  0.00  0.00    +0.029 A 
ENDBRANCH  21  31
ENDBRANCH  20  25
ENDBRANCH  18  20
ENDBRANCH   1  18
TORSDOF 7
