REMARK  Name = ZINC12496852
REMARK  10 active torsions:
REMARK  status: ('A' for Active; 'I' for Inactive)
REMARK    1  A    between atoms: C_1  and  O_2
REMARK    2  A    between atoms: O_2  and  C_3
REMARK    3  A    between atoms: C_3  and  C_5
REMARK    4  A    between atoms: C_5  and  C_31
REMARK    5  A    between atoms: C_10  and  C_12
REMARK    6  A    between atoms: C_15  and  O_18
REMARK    7  A    between atoms: N_21  and  C_24
REMARK    8  A    between atoms: C_31  and  C_32
REMARK    9  A    between atoms: C_32  and  S_33
REMARK   10  A    between atoms: S_33  and  C_34
REMARK                            x       y       z     vdW  Elec       q    Type
REMARK                         _______ _______ _______ _____ _____    ______ ____
ROOT
ATOM      1  C   UNL     1       0.002  -0.004   0.002  0.00  0.00    +0.044 C 
ATOM      2  C   UNL     1       0.687  -0.503  -1.201  0.00  0.00    +0.086 C 
ATOM      3  C   UNL     1       0.028  -1.925  -1.414  0.00  0.00    +0.077 C 
ATOM      4  C   UNL     1      -1.425  -1.453  -1.289  0.00  0.00    -0.027 C 
ATOM      5  C   UNL     1       0.630  -2.170  -2.770  0.00  0.00    +0.229 C 
ATOM      6  O   UNL     1       0.116  -2.743  -3.707  0.00  0.00    -0.275 OA
ATOM      7  N   UNL     1       1.877  -1.612  -2.727  0.00  0.00    -0.210 N 
ATOM      8  C   UNL     1       2.031  -0.753  -1.674  0.00  0.00    +0.229 C 
ATOM      9  O   UNL     1       3.067  -0.302  -1.236  0.00  0.00    -0.275 OA
ATOM     10  N   UNL     1      -1.382  -0.550  -0.122  0.00  0.00    +0.395 N 
ATOM     11  H   UNL     1      -2.047   0.221  -0.254  0.00  0.00    -0.083 HD
ATOM     12  H   UNL     1      -1.626  -1.071   0.729  0.00  0.00    -0.083 HD
ENDROOT
BRANCH   7  13
ATOM     13  C   UNL     1       2.889  -1.901  -3.654  0.00  0.00    +0.044 A 
ATOM     14  C   UNL     1       4.129  -1.285  -3.543  0.00  0.00    +0.027 A 
ATOM     15  C   UNL     1       5.127  -1.575  -4.454  0.00  0.00    +0.040 A 
ATOM     16  C   UNL     1       4.887  -2.470  -5.483  0.00  0.00    +0.124 A 
ATOM     17  C   UNL     1       3.650  -3.080  -5.599  0.00  0.00    +0.040 A 
ATOM     18  C   UNL     1       2.651  -2.797  -4.687  0.00  0.00    +0.027 A 
ATOM     19  F   UNL     1       5.863  -2.748  -6.375  0.00  0.00    -0.205 F 
ENDBRANCH   7  13
BRANCH   4  20
ATOM     20  C   UNL     1      -2.349  -2.620  -1.055  0.00  0.00    -0.060 A 
ATOM     21  C   UNL     1      -2.465  -3.165   0.210  0.00  0.00    +0.005 A 
ATOM     22  C   UNL     1      -3.316  -4.232   0.429  0.00  0.00    +0.045 A 
ATOM     23  C   UNL     1      -4.045  -4.763  -0.625  0.00  0.00    +0.117 A 
ATOM     24  C   UNL     1      -3.921  -4.219  -1.895  0.00  0.00    +0.045 A 
ATOM     25  C   UNL     1      -3.074  -3.149  -2.107  0.00  0.00    +0.005 A 
BRANCH  23  26
ATOM     26  O   UNL     1      -4.878  -5.816  -0.414  0.00  0.00    -0.507 OA
ATOM     27  H   UNL     1      -4.457  -6.679  -0.528  0.00  0.00    +0.292 HD
ENDBRANCH  23  26
ENDBRANCH   4  20
BRANCH   1  28
ATOM     28  C   UNL     1       0.673  -0.528   1.246  0.00  0.00    +0.297 C 
ATOM     29  O   UNL     1       1.845  -0.820   1.222  0.00  0.00    -0.252 OA
BRANCH  28  31
ATOM     30  C   UNL     1       0.680  -1.179   3.538  0.00  0.00    +0.280 C 
ATOM     31  O   UNL     1      -0.032  -0.669   2.379  0.00  0.00    -0.469 OA
ENDBRANCH  28  31
ENDBRANCH   1  28
BRANCH   1  32
ATOM     32  C   UNL     1      -0.019   1.526   0.010  0.00  0.00    +0.010 C 
BRANCH  32  33
ATOM     33  C   UNL     1      -0.735   2.019   1.269  0.00  0.00    +0.068 C 
BRANCH  33  34
ATOM     34  S   UNL     1      -0.759   3.833   1.279  0.00  0.00    -0.164 S 
ATOM     35  C   UNL     1      -1.631   4.252   2.814  0.00  0.00    +0.084 C 
ENDBRANCH  33  34
ENDBRANCH  32  33
ENDBRANCH   1  32
TORSDOF 8
