REMARK  Name = ZINC12524086
REMARK  11 active torsions:
REMARK  status: ('A' for Active; 'I' for Inactive)
REMARK    1  A    between atoms: C_1  and  C_2
REMARK    2  A    between atoms: C_5  and  C_8
REMARK    3  A    between atoms: C_8  and  N_9
REMARK    4  A    between atoms: N_12  and  C_18
REMARK    5  A    between atoms: C_13  and  C_16
REMARK    6  A    between atoms: C_13  and  C_17
REMARK    7  A    between atoms: N_14  and  O_15
REMARK    8  A    between atoms: C_21  and  N_25
REMARK    9  A    between atoms: C_22  and  O_24
REMARK   10  A    between atoms: N_26  and  C_27
REMARK   11  A    between atoms: C_30  and  S_33
REMARK                            x       y       z     vdW  Elec       q    Type
REMARK                         _______ _______ _______ _____ _____    ______ ____
ROOT
ATOM      1  C   UNL     1       4.509  -5.615  -1.723  0.00  0.00    +0.042 A 
ATOM      2  C   UNL     1       5.728  -6.085  -1.239  0.00  0.00    +0.026 A 
ATOM      3  C   UNL     1       6.762  -6.349  -2.108  0.00  0.00    +0.035 A 
ATOM      4  C   UNL     1       6.590  -6.145  -3.482  0.00  0.00    +0.127 A 
ATOM      5  C   UNL     1       5.360  -5.672  -3.967  0.00  0.00    +0.146 A 
ATOM      6  C   UNL     1       4.326  -5.415  -3.085  0.00  0.00    +0.071 A 
ENDROOT
BRANCH   1  10
ATOM      7  N   UNL     1       1.447  -4.746  -0.032  0.00  0.00    -0.207 N 
ATOM      8  C   UNL     1       2.210  -4.891  -1.158  0.00  0.00    +0.200 C 
ATOM      9  N   UNL     1       1.804  -4.629  -2.369  0.00  0.00    -0.271 NA
ATOM     10  N   UNL     1       3.466  -5.350  -0.835  0.00  0.00    -0.250 N 
ATOM     11  C   UNL     1       3.495  -5.509   0.626  0.00  0.00    +0.132 C 
ATOM     12  N   UNL     1       2.155  -5.093   1.081  0.00  0.00    -0.081 NA
ATOM     13  C   UNL     1       3.759  -6.969   0.998  0.00  0.00    +0.053 C 
ATOM     14  C   UNL     1       4.564  -4.601   1.239  0.00  0.00    +0.053 C 
ATOM     15  H   UNL     1       0.901  -4.307  -2.518  0.00  0.00    +0.189 HD
BRANCH  12  16
ATOM     16  O   UNL     1       1.492  -6.176   1.808  0.00  0.00    -0.293 OA
ATOM     17  H   UNL     1       0.600  -5.959   2.109  0.00  0.00    +0.239 HD
ENDBRANCH  12  16
BRANCH   7  18
ATOM     18  C   UNL     1       0.059  -4.275  -0.021  0.00  0.00    +0.164 C 
BRANCH  18  23
ATOM     19  C   UNL     1      -0.018   1.503   0.010  0.00  0.00    +0.044 C 
ATOM     20  C   UNL     1       0.002  -0.004   0.002  0.00  0.00    -0.050 A 
ATOM     21  C   UNL     1       0.006  -0.689  -1.199  0.00  0.00    +0.003 A 
ATOM     22  C   UNL     1       0.025  -2.071  -1.206  0.00  0.00    +0.005 A 
ATOM     23  C   UNL     1       0.040  -2.768  -0.013  0.00  0.00    -0.029 A 
ATOM     24  C   UNL     1       0.037  -2.084   1.188  0.00  0.00    +0.005 A 
ATOM     25  C   UNL     1       0.023  -0.702   1.195  0.00  0.00    +0.003 A 
ENDBRANCH  18  23
ENDBRANCH   7  18
ENDBRANCH   1  10
BRANCH   5  26
ATOM     26  O   UNL     1       5.185  -5.471  -5.298  0.00  0.00    -0.505 OA
ATOM     27  H   UNL     1       4.849  -6.245  -5.772  0.00  0.00    +0.292 HD
ENDBRANCH   5  26
BRANCH   4  28
ATOM     28  N   UNL     1       7.612  -6.404  -4.345  0.00  0.00    -0.146 NA
ATOM     29  N   UNL     1       8.741  -6.839  -3.896  0.00  0.00    -0.149 NA
BRANCH  29  30
ATOM     30  C   UNL     1       9.766  -7.099  -4.762  0.00  0.00    +0.086 A 
ATOM     31  C   UNL     1       9.597  -6.890  -6.133  0.00  0.00    +0.031 A 
ATOM     32  C   UNL     1      10.636  -7.155  -7.001  0.00  0.00    +0.032 A 
ATOM     33  C   UNL     1      11.844  -7.627  -6.516  0.00  0.00    +0.120 A 
ATOM     34  C   UNL     1      12.018  -7.835  -5.159  0.00  0.00    +0.032 A 
ATOM     35  C   UNL     1      10.990  -7.570  -4.279  0.00  0.00    +0.031 A 
BRANCH  33  36
ATOM     36  S   UNL     1      13.165  -7.963  -7.632  0.00  0.00    +0.140 S 
ATOM     37  O   UNL     1      13.949  -9.039  -7.047  0.00  0.00    -0.140 OA
ATOM     38  O   UNL     1      12.561  -8.356  -8.896  0.00  0.00    -0.140 OA
ATOM     39  O   UNL     1      13.935  -6.735  -7.757  0.00  0.00    -0.043 OA
ENDBRANCH  33  36
ENDBRANCH  29  30
ENDBRANCH   4  28
TORSDOF 8
