REMARK  Name = ZINC02193793
REMARK  10 active torsions:
REMARK  status: ('A' for Active; 'I' for Inactive)
REMARK    1  A    between atoms: C_2  and  C_3
REMARK    2  A    between atoms: C_3  and  C_4
REMARK    3  A    between atoms: C_8  and  C_11
REMARK    4  A    between atoms: C_9  and  O_10
REMARK    5  A    between atoms: N_12  and  N_13
REMARK    6  A    between atoms: C_14  and  C_16
REMARK    7  A    between atoms: C_16  and  S_17
REMARK    8  A    between atoms: S_17  and  C_18
REMARK    9  A    between atoms: C_21  and  C_29
REMARK   10  A    between atoms: N_22  and  C_23
REMARK                            x       y       z     vdW  Elec       q    Type
REMARK                         _______ _______ _______ _____ _____    ______ ____
ROOT
ATOM      1  S   UNL     1      -2.721  -8.811  -2.192  0.00  0.00    -0.076 S 
ENDROOT
BRANCH   1   2
ATOM      2  C   UNL     1      -3.369 -10.450  -2.181  0.00  0.00    +0.197 A 
ATOM      3  N   UNL     1      -3.334 -11.295  -1.176  0.00  0.00    -0.122 NA
ATOM      4  N   UNL     1      -3.898 -12.401  -1.508  0.00  0.00    -0.128 NA
ATOM      5  C   UNL     1      -4.328 -12.332  -2.746  0.00  0.00    +0.169 A 
ATOM      6  N   UNL     1      -4.008 -11.077  -3.216  0.00  0.00    -0.270 N 
BRANCH   5   7
ATOM      7  C   UNL     1      -5.029 -13.398  -3.494  0.00  0.00    +0.020 A 
ATOM      8  C   UNL     1      -5.148 -13.317  -4.883  0.00  0.00    +0.013 A 
ATOM      9  C   UNL     1      -5.803 -14.314  -5.575  0.00  0.00    +0.021 A 
ATOM     10  C   UNL     1      -6.342 -15.394  -4.895  0.00  0.00    +0.041 A 
ATOM     11  C   UNL     1      -6.227 -15.479  -3.517  0.00  0.00    +0.021 A 
ATOM     12  C   UNL     1      -5.569 -14.491  -2.815  0.00  0.00    +0.013 A 
ATOM     13 CL   UNL     1      -7.165 -16.645  -5.773  0.00  0.00    -0.084 Cl
ENDBRANCH   5   7
BRANCH   6  14
ATOM     14  C   UNL     1      -4.279 -10.553  -4.487  0.00  0.00    +0.051 A 
ATOM     15  C   UNL     1      -5.591 -10.343  -4.889  0.00  0.00    +0.026 A 
ATOM     16  C   UNL     1      -5.854  -9.827  -6.143  0.00  0.00    +0.002 A 
ATOM     17  C   UNL     1      -4.811  -9.520  -6.998  0.00  0.00    +0.000 A 
ATOM     18  C   UNL     1      -3.503  -9.728  -6.601  0.00  0.00    +0.002 A 
ATOM     19  C   UNL     1      -3.234 -10.238  -5.346  0.00  0.00    +0.026 A 
ENDBRANCH   6  14
ENDBRANCH   1   2
BRANCH   1  20
ATOM     20  C   UNL     1      -2.015  -8.607  -0.534  0.00  0.00    +0.174 C 
BRANCH  20  22
ATOM     21  N   UNL     1      -0.833  -6.851   0.746  0.00  0.00    -0.206 N 
ATOM     22  C   UNL     1      -1.418  -7.229  -0.408  0.00  0.00    +0.242 C 
ATOM     23  O   UNL     1      -1.464  -6.460  -1.345  0.00  0.00    -0.273 OA
ATOM     24  H   UNL     1      -0.796  -7.466   1.496  0.00  0.00    +0.177 HD
BRANCH  21  26
ATOM     25  C   UNL     1       0.285  -5.206   1.975  0.00  0.00    +0.142 C 
ATOM     26  N   UNL     1      -0.279  -5.570   0.863  0.00  0.00    -0.188 NA
BRANCH  25  31
ATOM     27  C   UNL     1       1.369  -1.702   1.144  0.00  0.00    -0.002 A 
ATOM     28  C   UNL     1       1.967  -1.322   2.331  0.00  0.00    +0.007 A 
ATOM     29  C   UNL     1       2.019  -2.200   3.400  0.00  0.00    +0.001 A 
ATOM     30  C   UNL     1       1.475  -3.462   3.292  0.00  0.00    +0.013 A 
ATOM     31  C   UNL     1       0.868  -3.858   2.098  0.00  0.00    +0.036 A 
ATOM     32  C   UNL     1       0.812  -2.965   1.019  0.00  0.00    +0.129 A 
BRANCH  32  33
ATOM     33  O   UNL     1       0.220  -3.337  -0.145  0.00  0.00    -0.506 OA
ATOM     34  H   UNL     1       0.821  -3.756  -0.776  0.00  0.00    +0.292 HD
ENDBRANCH  32  33
BRANCH  27  35
ATOM     35  C   UNL     1       1.317  -0.740  -0.015  0.00  0.00    +0.065 C 
BRANCH  35  37
ATOM     36  C   UNL     1      -0.016   1.306   0.009  0.00  0.00    +0.004 C 
ATOM     37  C   UNL     1       0.002  -0.004   0.002  0.00  0.00    -0.030 C 
ENDBRANCH  35  37
ENDBRANCH  27  35
ENDBRANCH  25  31
ENDBRANCH  21  26
ENDBRANCH  20  22
ENDBRANCH   1  20
TORSDOF 10
