REMARK  Name = ZINC59247922
REMARK  6 active torsions:
REMARK  status: ('A' for Active; 'I' for Inactive)
REMARK    1  A    between atoms: C_1  and  C_2
REMARK    2  A    between atoms: C_2  and  O_3
REMARK    3  A    between atoms: O_3  and  C_4
REMARK    4  A    between atoms: C_7  and  N_10
REMARK    5  A    between atoms: C_16  and  C_17
REMARK    6  A    between atoms: C_20  and  N_22
REMARK                            x       y       z     vdW  Elec       q    Type
REMARK                         _______ _______ _______ _____ _____    ______ ____
ROOT
ATOM      1  N   UNL     1       1.099  -5.910  -1.831  0.00  0.00    -0.226 NA
ATOM      2  C   UNL     1       0.845  -6.453  -3.001  0.00  0.00    +0.166 C 
ATOM      3  N   UNL     1       0.889  -7.783  -3.367  0.00  0.00    -0.260 N 
ATOM      4  C   UNL     1       0.598  -8.139  -4.606  0.00  0.00    +0.257 C 
ATOM      5  O   UNL     1       0.632  -9.310  -4.943  0.00  0.00    -0.269 OA
ATOM      6  C   UNL     1       0.242  -7.125  -5.537  0.00  0.00    +0.081 C 
ATOM      7  C   UNL     1      -0.100  -7.243  -6.866  0.00  0.00    +0.066 C 
ATOM      8  S   UNL     1       0.347  -5.659  -4.522  0.00  0.00    -0.049 S 
ATOM      9  H   UNL     1       1.135  -8.457  -2.715  0.00  0.00    +0.157 HD
ENDROOT
BRANCH   1  13
ATOM     10  C   UNL     1       0.777  -1.811  -1.336  0.00  0.00    +0.121 A 
ATOM     11  C   UNL     1       0.241  -2.667  -0.384  0.00  0.00    +0.048 A 
ATOM     12  C   UNL     1       0.346  -4.033  -0.545  0.00  0.00    +0.031 A 
ATOM     13  C   UNL     1       0.992  -4.554  -1.668  0.00  0.00    +0.067 A 
ATOM     14  C   UNL     1       1.529  -3.689  -2.623  0.00  0.00    +0.031 A 
ATOM     15  C   UNL     1       1.415  -2.324  -2.457  0.00  0.00    +0.048 A 
BRANCH  10  16
ATOM     16  O   UNL     1       0.671  -0.465  -1.174  0.00  0.00    -0.492 OA
BRANCH  16  18
ATOM     17  C   UNL     1      -0.019   1.526   0.010  0.00  0.00    +0.048 C 
ATOM     18  C   UNL     1       0.002  -0.004   0.002  0.00  0.00    +0.225 C 
ENDBRANCH  16  18
ENDBRANCH  10  16
ENDBRANCH   1  13
BRANCH   7  19
ATOM     19  C   UNL     1      -0.421  -6.095  -7.615  0.00  0.00    +0.133 A 
ATOM     20  C   UNL     1      -0.786  -6.069  -8.950  0.00  0.00    +0.066 A 
ATOM     21  C   UNL     1      -1.013  -4.729  -9.278  0.00  0.00    +0.079 A 
ATOM     22  C   UNL     1      -0.785  -3.994  -8.151  0.00  0.00    +0.203 A 
ATOM     23  O   UNL     1      -0.434  -4.824  -7.155  0.00  0.00    -0.441 OA
ATOM     24 BR   UNL     1      -1.540  -4.061 -10.966  0.00  0.00    -0.045 Br
BRANCH  22  25
ATOM     25  N   UNL     1      -0.899  -2.621  -8.050  0.00  0.00    -0.301 N 
ATOM     26  C   UNL     1      -1.294  -1.712  -9.136  0.00  0.00    +0.108 C 
ATOM     27  C   UNL     1      -1.258  -0.277  -8.569  0.00  0.00    +0.020 C 
ATOM     28  C   UNL     1      -0.300  -0.407  -7.355  0.00  0.00    +0.020 C 
ATOM     29  C   UNL     1      -0.653  -1.825  -6.834  0.00  0.00    +0.108 C 
ENDBRANCH  22  25
ENDBRANCH   7  19
TORSDOF 5
