REMARK  Name = ZINC19337699
REMARK  9 active torsions:
REMARK  status: ('A' for Active; 'I' for Inactive)
REMARK    1  A    between atoms: C_8  and  C_12
REMARK    2  A    between atoms: C_12  and  C_14
REMARK    3  A    between atoms: C_14  and  S_15
REMARK    4  A    between atoms: S_15  and  C_16
REMARK    5  A    between atoms: C_17  and  C_32
REMARK    6  A    between atoms: C_18  and  C_25
REMARK    7  A    between atoms: C_19  and  C_23
REMARK    8  A    between atoms: C_20  and  N_22
REMARK    9  A    between atoms: C_28  and  O_31
REMARK                            x       y       z     vdW  Elec       q    Type
REMARK                         _______ _______ _______ _____ _____    ______ ____
ROOT
ATOM      1  C   UNL     1       6.270   7.811  -0.020  0.00  0.00    +0.117 A 
ATOM      2  C   UNL     1       7.370   8.691  -0.021  0.00  0.00    +0.093 A 
ATOM      3  C   UNL     1       7.132  10.080  -0.016  0.00  0.00    +0.023 A 
ATOM      4  C   UNL     1       5.794  10.524  -0.000  0.00  0.00    +0.100 A 
ATOM      5  C   UNL     1       4.760   9.569   0.004  0.00  0.00    +0.136 A 
ATOM      6  N   UNL     1       5.029   8.274  -0.005  0.00  0.00    -0.224 NA
ENDROOT
BRANCH   3   7
ATOM      7  C   UNL     1       8.253  11.044  -0.021  0.00  0.00    -0.015 A 
ATOM      8  C   UNL     1       9.109  11.116  -1.122  0.00  0.00    +0.012 A 
ATOM      9  C   UNL     1      10.149  12.019  -1.125  0.00  0.00    +0.046 A 
ATOM     10  C   UNL     1      10.354  12.850  -0.031  0.00  0.00    +0.117 A 
ATOM     11  C   UNL     1       9.507  12.777   1.069  0.00  0.00    +0.046 A 
ATOM     12  C   UNL     1       8.461  11.880   1.077  0.00  0.00    +0.012 A 
BRANCH  10  13
ATOM     13  O   UNL     1      11.384  13.735  -0.035  0.00  0.00    -0.507 OA
ATOM     14  H   UNL     1      11.547  14.394   0.831  0.00  0.00    +0.292 HD
ENDBRANCH  10  13
ENDBRANCH   3   7
BRANCH   5  15
ATOM     15  N   UNL     1       3.445   9.991   0.020  0.00  0.00    -0.342 N 
ATOM     16  H   UNL     1       2.631   9.252   0.024  0.00  0.00    +0.144 HD
ATOM     17  H   UNL     1       3.212  11.066   0.028  0.00  0.00    +0.144 HD
ENDBRANCH   5  15
BRANCH   4  18
ATOM     18  C   UNL     1       5.492  11.923   0.010  0.00  0.00    +0.103 C 
ATOM     19  N   UNL     1       5.252  13.034   0.019  0.00  0.00    -0.191 NA
ENDBRANCH   4  18
BRANCH   2  20
ATOM     20  C   UNL     1       8.708   8.182  -0.031  0.00  0.00    +0.102 C 
ATOM     21  N   UNL     1       9.770   7.778  -0.039  0.00  0.00    -0.191 NA
ENDBRANCH   2  20
BRANCH   1  22
ATOM     22  S   UNL     1       6.549   6.072  -0.032  0.00  0.00    -0.097 S 
BRANCH  22  23
ATOM     23  C   UNL     1       4.839   5.479  -0.017  0.00  0.00    +0.155 C 
BRANCH  23  24
ATOM     24  C   UNL     1       4.830   3.972  -0.025  0.00  0.00    +0.180 C 
ATOM     25  O   UNL     1       5.877   3.359  -0.038  0.00  0.00    -0.291 OA
BRANCH  24  33
ATOM     26  C   UNL     1      -1.250   3.137   0.031  0.00  0.00    +0.001 A 
ATOM     27  C   UNL     1      -1.216   1.749   0.017  0.00  0.00    +0.004 A 
ATOM     28  C   UNL     1      -0.013   1.076   0.008  0.00  0.00    +0.047 A 
ATOM     29  C   UNL     1       1.182   1.787   0.000  0.00  0.00    +0.139 A 
ATOM     30  C   UNL     1       1.145   3.194   0.008  0.00  0.00    +0.018 A 
ATOM     31  C   UNL     1      -0.092   3.858   0.024  0.00  0.00    +0.011 A 
ATOM     32  C   UNL     1       2.352   3.936   0.000  0.00  0.00    +0.030 A 
ATOM     33  C   UNL     1       3.557   3.248  -0.015  0.00  0.00    +0.103 A 
ATOM     34  C   UNL     1       3.532   1.779  -0.023  0.00  0.00    +0.348 A 
ATOM     35  O   UNL     1       4.575   1.153  -0.036  0.00  0.00    -0.244 OA
ATOM     36  O   UNL     1       2.358   1.125  -0.015  0.00  0.00    -0.422 OA
ENDBRANCH  24  33
ENDBRANCH  23  24
ENDBRANCH  22  23
ENDBRANCH   1  22
TORSDOF 9
