REMARK  Name = ZINC17150056
REMARK  3 active torsions:
REMARK  status: ('A' for Active; 'I' for Inactive)
REMARK    1  A    between atoms: C_4  and  C_7
REMARK    2  A    between atoms: C_25  and  C_26
REMARK    3  A    between atoms: C_29  and  O_32
REMARK                            x       y       z     vdW  Elec       q    Type
REMARK                         _______ _______ _______ _____ _____    ______ ____
ROOT
ATOM      1  C   UNL     1      -1.821   4.629   0.922  0.00  0.00    +0.151 C 
ATOM      2  C   UNL     1      -1.329   6.056   0.885  0.00  0.00    -0.016 C 
ATOM      3  C   UNL     1      -0.050   6.286   0.548  0.00  0.00    +0.076 C 
ATOM      4  C   UNL     1       0.457   7.681   0.534  0.00  0.00    +0.004 A 
ATOM      5  C   UNL     1       1.637   8.001  -0.131  0.00  0.00    +0.010 A 
ATOM      6  C   UNL     1       2.067   9.313  -0.167  0.00  0.00    +0.001 A 
ATOM      7  C   UNL     1       1.328  10.303   0.456  0.00  0.00    +0.000 A 
ATOM      8  C   UNL     1       0.159   9.987   1.125  0.00  0.00    +0.004 A 
ATOM      9  C   UNL     1      -0.276   8.679   1.173  0.00  0.00    -0.038 A 
ATOM     10  C   UNL     1      -1.537   8.319   1.913  0.00  0.00    +0.040 C 
ATOM     11  C   UNL     1      -2.267   7.189   1.192  0.00  0.00    +0.040 C 
ATOM     12  N   UNL     1       0.773   5.253   0.223  0.00  0.00    -0.223 NA
ATOM     13  C   UNL     1       0.418   4.005   0.221  0.00  0.00    +0.178 A 
ATOM     14  N   UNL     1      -0.849   3.562   0.551  0.00  0.00    -0.275 N 
ATOM     15  C   UNL     1      -1.099   2.247   0.507  0.00  0.00    +0.268 A 
ATOM     16  O   UNL     1      -2.200   1.810   0.784  0.00  0.00    -0.266 OA
ATOM     17  C   UNL     1      -0.003   1.348   0.118  0.00  0.00    +0.081 A 
ATOM     18  C   UNL     1       0.002  -0.004   0.002  0.00  0.00    +0.028 C 
ATOM     19  S   UNL     1       1.318   2.516  -0.167  0.00  0.00    -0.046 S 
ENDROOT
BRANCH   1  23
ATOM     20  C   UNL     1      -3.211   3.820   4.879  0.00  0.00    +0.000 A 
ATOM     21  C   UNL     1      -4.093   4.274   3.916  0.00  0.00    +0.000 A 
ATOM     22  C   UNL     1      -3.643   4.535   2.635  0.00  0.00    +0.006 A 
ATOM     23  C   UNL     1      -2.311   4.343   2.318  0.00  0.00    -0.020 A 
ATOM     24  C   UNL     1      -1.431   3.885   3.280  0.00  0.00    +0.006 A 
ATOM     25  C   UNL     1      -1.880   3.628   4.561  0.00  0.00    +0.000 A 
ENDBRANCH   1  23
BRANCH  18  26
ATOM     26  C   UNL     1      -1.254  -0.756   0.120  0.00  0.00    -0.024 A 
ATOM     27  C   UNL     1      -1.281  -1.974   0.811  0.00  0.00    +0.011 A 
ATOM     28  C   UNL     1      -2.462  -2.672   0.923  0.00  0.00    +0.046 A 
ATOM     29  C   UNL     1      -3.624  -2.176   0.343  0.00  0.00    +0.117 A 
ATOM     30  C   UNL     1      -3.601  -0.970  -0.349  0.00  0.00    +0.046 A 
ATOM     31  C   UNL     1      -2.427  -0.261  -0.462  0.00  0.00    +0.011 A 
BRANCH  29  32
ATOM     32  O   UNL     1      -4.785  -2.872   0.452  0.00  0.00    -0.507 OA
ATOM     33  H   UNL     1      -4.933  -3.505  -0.264  0.00  0.00    +0.292 HD
ENDBRANCH  29  32
ENDBRANCH  18  26
TORSDOF 3
