REMARK  Name = ZINC63372453
REMARK  11 active torsions:
REMARK  status: ('A' for Active; 'I' for Inactive)
REMARK    1  A    between atoms: C_1  and  C_2
REMARK    2  A    between atoms: C_2  and  C_3
REMARK    3  A    between atoms: C_2  and  C_4
REMARK    4  A    between atoms: C_4  and  C_5
REMARK    5  A    between atoms: C_5  and  C_7
REMARK    6  A    between atoms: C_5  and  N_19
REMARK    7  A    between atoms: N_9  and  CA_10
REMARK    8  A    between atoms: CA_10  and  CB_12
REMARK    9  A    between atoms: CA_10  and  C_16
REMARK   10  A    between atoms: CB_12  and  CG_13
REMARK   11  A    between atoms: C_22  and  C_38
REMARK                            x       y       z     vdW  Elec       q    Type
REMARK                         _______ _______ _______ _____ _____    ______ ____
ROOT
ATOM      1  N   UNK A   0       2.424   1.160  -1.079  0.00  0.00    -0.212 N 
ATOM      2  C   UNK A   0       2.923   1.850  -0.032  0.00  0.00    +0.249 C 
ATOM      3  O   UNK A   0       3.250   1.407   1.048  0.00  0.00    -0.273 OA
ATOM      4  C   UNK A   0       2.990   3.291  -0.488  0.00  0.00    +0.136 C 
ATOM      5  C   UNK A   0       2.147   4.184   0.421  0.00  0.00    +0.139 C 
ATOM      6  C   UNK A   0       0.951   4.659  -0.390  0.00  0.00    -0.034 C 
ATOM      7  C   UNK A   0      -0.130   4.301   0.298  0.00  0.00    -0.001 A 
ATOM      8  C   UNK A   0      -1.563   4.536   0.058  0.00  0.00    +0.010 A 
ATOM      9  C   UNK A   0      -2.418   4.011   0.975  0.00  0.00    +0.001 A 
ATOM     10  C   UNK A   0      -1.996   3.284   2.092  0.00  0.00    +0.002 A 
ATOM     11  C   UNK A   0      -0.699   3.024   2.393  0.00  0.00    +0.026 A 
ATOM     12  C   UNK A   0       0.295   3.529   1.504  0.00  0.00    +0.043 A 
ATOM     13  N   UNK A   0       1.605   3.445   1.563  0.00  0.00    -0.375 N 
ATOM     14  C   UNK A   0       1.067   5.328  -1.737  0.00  0.00    +0.052 C 
ATOM     15  C   UNK A   0       1.972   4.434  -2.608  0.00  0.00    +0.115 C 
ATOM     16  N   UNK A   0       2.341   3.258  -1.815  0.00  0.00    -0.269 N 
ATOM     17  C   UNK A   0       2.132   1.967  -2.108  0.00  0.00    +0.313 C 
ATOM     18  O   UNK A   0       1.722   1.574  -3.183  0.00  0.00    -0.252 OA
ATOM     19  C   UNK A   0       4.437   3.777  -0.585  0.00  0.00    +0.044 C 
ATOM     20  H   UNK A   0       2.126   2.977   2.235  0.00  0.00    +0.160 HD
ENDROOT
BRANCH   1  21
ATOM     21  C   UNK A   0       2.230  -0.292  -1.091  0.00  0.00    +0.171 C 
BRANCH  21  22
ATOM     22  C   UNK A   0       3.146  -0.912  -2.115  0.00  0.00    +0.235 C 
ATOM     23  O   UNK A   0       3.887  -0.210  -2.770  0.00  0.00    -0.274 OA
ATOM     24  N   ASP A   1       3.141  -2.247  -2.302  0.00  0.00    -0.300 N 
ATOM     25  H   ASP A   1       2.549  -2.808  -1.778  0.00  0.00    +0.150 HD
BRANCH  24  26
ATOM     26  CA  ASP A   1       4.031  -2.850  -3.298  0.00  0.00    +0.197 C 
BRANCH  26  27
ATOM     27  C   ASP A   1       3.374  -2.802  -4.653  0.00  0.00    +0.376 C 
ATOM     28  O   ASP A   1       2.265  -2.311  -4.776  0.00  0.00    -0.244 OA
ATOM     29  OXT ASP A   1       3.951  -3.256  -5.626  0.00  0.00    -0.244 OA
ENDBRANCH  26  27
BRANCH  26  30
ATOM     30  CB  ASP A   1       4.310  -4.305  -2.917  0.00  0.00    +0.159 C 
BRANCH  30  31
ATOM     31  CG  ASP A   1       5.077  -4.347  -1.620  0.00  0.00    +0.358 C 
ATOM     32  OD1 ASP A   1       5.372  -3.309  -1.053  0.00  0.00    -0.246 OA
ATOM     33  OD2 ASP A   1       5.401  -5.418  -1.138  0.00  0.00    -0.246 OA
ENDBRANCH  30  31
ENDBRANCH  26  30
ENDBRANCH  24  26
ENDBRANCH  21  22
BRANCH  21  34
ATOM     34  C   UNK A   0       0.777  -0.610  -1.447  0.00  0.00    +0.035 C 
BRANCH  34  36
ATOM     35  C   UNK A   0      -1.605  -0.258  -0.780  0.00  0.00    +0.007 C 
ATOM     36  C   UNK A   0      -0.147  -0.053  -0.362  0.00  0.00    -0.015 C 
ATOM     37  C   UNK A   0       0.113  -0.786   0.956  0.00  0.00    +0.007 C 
ENDBRANCH  34  36
ENDBRANCH  21  34
ENDBRANCH   1  21
TORSDOF 8
