REMARK  Name = ZINC39964292
REMARK  9 active torsions:
REMARK  status: ('A' for Active; 'I' for Inactive)
REMARK    1  A    between atoms: C_1  and  C_2
REMARK    2  A    between atoms: C_2  and  C_3
REMARK    3  A    between atoms: C_2  and  O_4
REMARK    4  A    between atoms: O_4  and  C_5
REMARK    5  A    between atoms: C_5  and  C_7
REMARK    6  A    between atoms: C_12  and  C_13
REMARK    7  A    between atoms: C_16  and  C_18
REMARK    8  A    between atoms: C_19  and  C_20
REMARK    9  A    between atoms: C_19  and  C_22
REMARK                            x       y       z     vdW  Elec       q    Type
REMARK                         _______ _______ _______ _____ _____    ______ ____
ROOT
ATOM      1  C   UNL     1      -0.437  -1.733  -1.527  0.00  0.00    +0.136 A 
ATOM      2  C   UNL     1       0.250  -2.542  -0.649  0.00  0.00    +0.050 A 
ATOM      3  C   UNL     1       0.956  -3.471  -1.417  0.00  0.00    +0.050 A 
ATOM      4  C   UNL     1       0.672  -3.193  -2.741  0.00  0.00    +0.130 A 
ATOM      5  O   UNL     1      -0.174  -2.144  -2.781  0.00  0.00    -0.455 OA
ENDROOT
BRANCH   1  11
ATOM      6  C   UNL     1      -1.159   0.648  -1.772  0.00  0.00    +0.071 A 
ATOM      7  C   UNL     1      -2.003   1.700  -1.414  0.00  0.00    +0.031 A 
ATOM      8  C   UNL     1      -2.979   1.505  -0.458  0.00  0.00    +0.019 A 
ATOM      9  C   UNL     1      -3.129   0.269   0.153  0.00  0.00    +0.016 A 
ATOM     10  C   UNL     1      -2.305  -0.783  -0.186  0.00  0.00    +0.013 A 
ATOM     11  C   UNL     1      -1.315  -0.611  -1.156  0.00  0.00    +0.031 A 
ATOM     12 BR   UNL     1      -4.120   2.934   0.022  0.00  0.00    -0.050 Br
BRANCH   6  13
ATOM     13  C   UNL     1      -0.114   0.850  -2.793  0.00  0.00    +0.340 C 
ATOM     14  O   UNL     1       0.616  -0.070  -3.105  0.00  0.00    -0.245 OA
BRANCH  13  15
ATOM     15  O   UNL     1       0.032   2.054  -3.379  0.00  0.00    -0.458 OA
BRANCH  15  17
ATOM     16  C   UNL     1       0.659   3.226  -5.398  0.00  0.00    +0.052 C 
ATOM     17  C   UNL     1       1.064   2.178  -4.359  0.00  0.00    +0.171 C 
ATOM     18  C   UNL     1       2.364   2.611  -3.679  0.00  0.00    +0.052 C 
ENDBRANCH  15  17
ENDBRANCH  13  15
ENDBRANCH   6  13
ENDBRANCH   1  11
BRANCH   4  19
ATOM     19  C   UNL     1       1.179  -3.894  -3.862  0.00  0.00    +0.064 C 
ATOM     20  C   UNL     1       0.666  -3.660  -5.096  0.00  0.00    +0.075 C 
BRANCH  20  21
ATOM     21  C   UNL     1      -0.577  -2.823  -5.249  0.00  0.00    +0.216 C 
ATOM     22  N   UNL     1      -0.214  -1.413  -5.444  0.00  0.00    -0.359 N 
ATOM     23  C   UNL     1      -0.677  -1.047  -6.604  0.00  0.00    +0.060 A 
ATOM     24  C   UNL     1      -0.633   0.223  -7.342  0.00  0.00    +0.027 A 
ATOM     25  C   UNL     1      -1.215   0.307  -8.555  0.00  0.00    +0.002 A 
ATOM     26  C   UNL     1      -1.872  -0.779  -9.158  0.00  0.00    +0.002 A 
ATOM     27  C   UNL     1      -1.971  -1.987  -8.568  0.00  0.00    +0.027 A 
ATOM     28  C   UNL     1      -1.374  -2.197  -7.242  0.00  0.00    +0.060 A 
ATOM     29  N   UNL     1      -1.314  -3.230  -6.452  0.00  0.00    -0.359 N 
ATOM     30  H   UNL     1       0.280  -0.857  -4.822  0.00  0.00    +0.162 HD
ATOM     31  H   UNL     1      -1.688  -4.108  -6.625  0.00  0.00    +0.162 HD
ENDBRANCH  20  21
BRANCH  20  32
ATOM     32  C   UNL     1       1.306  -4.210  -6.253  0.00  0.00    +0.099 C 
ATOM     33  N   UNL     1       1.814  -4.646  -7.171  0.00  0.00    -0.191 NA
ENDBRANCH  20  32
ENDBRANCH   4  19
TORSDOF 7
