REMARK  Name = ZINC65376007
REMARK  3 active torsions:
REMARK  status: ('A' for Active; 'I' for Inactive)
REMARK    1  A    between atoms: C_1  and  C_2
REMARK    2  A    between atoms: C_5  and  C_15
REMARK    3  A    between atoms: C_18  and  C_21
REMARK                            x       y       z     vdW  Elec       q    Type
REMARK                         _______ _______ _______ _____ _____    ______ ____
ROOT
ATOM      1  C   UNL     1       0.016   1.513  -0.015  0.00  0.00    +0.043 C 
ATOM      2  C   UNL     1       0.018  -0.017  -0.009  0.00  0.00    +0.138 C 
ATOM      3  N   UNL     1      -1.371  -0.548   0.066  0.00  0.00    -0.277 NA
ATOM      4  C   UNL     1      -1.177  -1.873   0.704  0.00  0.00    +0.191 C 
ATOM      5  N   UNL     1       0.114  -1.803   1.406  0.00  0.00    -0.228 N 
ATOM      6  N   UNL     1       0.632  -0.539   1.238  0.00  0.00    -0.220 NA
ATOM      7  C   UNL     1       0.712  -2.839   2.115  0.00  0.00    +0.137 A 
ATOM      8  C   UNL     1       1.881  -2.599   2.830  0.00  0.00    +0.045 A 
ATOM      9  C   UNL     1       2.466  -3.638   3.531  0.00  0.00    +0.005 A 
ATOM     10  C   UNL     1       1.859  -4.887   3.493  0.00  0.00    +0.020 A 
ATOM     11  C   UNL     1       0.700  -5.054   2.763  0.00  0.00    +0.113 A 
ATOM     12  N   UNL     1       0.162  -4.043   2.107  0.00  0.00    -0.239 NA
ATOM     13  H   UNL     1      -1.955   0.046   0.635  0.00  0.00    +0.126 HD
ATOM     14  H   UNL     1       1.638  -0.564   1.163  0.00  0.00    +0.146 HD
ENDROOT
BRANCH   4  15
ATOM     15  C   UNL     1      -2.288  -2.143   1.685  0.00  0.00    -0.011 A 
ATOM     16  C   UNL     1      -2.422  -1.349   2.810  0.00  0.00    +0.007 A 
ATOM     17  C   UNL     1      -3.438  -1.591   3.713  0.00  0.00    +0.010 A 
ATOM     18  C   UNL     1      -4.330  -2.640   3.489  0.00  0.00    -0.000 A 
ATOM     19  C   UNL     1      -4.190  -3.437   2.353  0.00  0.00    +0.010 A 
ATOM     20  C   UNL     1      -3.174  -3.181   1.455  0.00  0.00    +0.007 A 
BRANCH  18  21
ATOM     21  C   UNL     1      -5.421  -2.906   4.453  0.00  0.00    +0.066 A 
ATOM     22  C   UNL     1      -6.358  -3.896   4.362  0.00  0.00    +0.049 A 
ATOM     23  C   UNL     1      -7.196  -3.794   5.473  0.00  0.00    +0.135 A 
ATOM     24  N   UNL     1      -6.794  -2.789   6.209  0.00  0.00    -0.182 NA
ATOM     25  N   UNL     1      -5.673  -2.211   5.598  0.00  0.00    -0.277 N 
ATOM     26  H   UNL     1      -5.169  -1.452   5.930  0.00  0.00    +0.189 HD
ENDBRANCH  18  21
ENDBRANCH   4  15
TORSDOF 2
