REMARK  Name = ZINC00707322
REMARK  7 active torsions:
REMARK  status: ('A' for Active; 'I' for Inactive)
REMARK    1  A    between atoms: C_1  and  C_2
REMARK    2  A    between atoms: C_2  and  C_30
REMARK    3  A    between atoms: C_6  and  C_22
REMARK    4  A    between atoms: C_8  and  C_20
REMARK    5  A    between atoms: C_9  and  N_19
REMARK    6  A    between atoms: N_10  and  C_11
REMARK    7  A    between atoms: C_16  and  C_17
REMARK                            x       y       z     vdW  Elec       q    Type
REMARK                         _______ _______ _______ _____ _____    ______ ____
ROOT
ATOM      1  C   UNL     1      -0.018   1.536   0.004  0.00  0.00    +0.011 C 
ATOM      2  C   UNL     1      -0.002   0.007  -0.002  0.00  0.00    -0.023 C 
ATOM      3  C   UNL     1       0.737  -0.495  -1.245  0.00  0.00    +0.058 C 
ATOM      4  C   UNL     1       2.165  -0.009  -1.216  0.00  0.00    +0.025 C 
ATOM      5  C   UNL     1       2.810   0.183  -0.046  0.00  0.00    +0.026 C 
ATOM      6  C   UNL     1       4.242   0.655  -0.020  0.00  0.00    +0.104 C 
ATOM      7  C   UNL     1       4.636   1.267  -1.332  0.00  0.00    +0.077 C 
ATOM      8  C   UNL     1       3.913   1.038  -2.458  0.00  0.00    +0.107 C 
ATOM      9  N   UNL     1       2.793   0.237  -2.409  0.00  0.00    -0.259 N 
ATOM     10  C   UNL     1       2.167  -0.049   1.183  0.00  0.00    +0.162 C 
ATOM     11  O   UNL     1       2.780   0.123   2.218  0.00  0.00    -0.292 OA
ATOM     12  C   UNL     1       0.735  -0.505   1.240  0.00  0.00    +0.086 C 
ATOM     13  C   UNL     1      -1.437  -0.523  -0.003  0.00  0.00    +0.011 C 
ENDROOT
BRANCH   9  14
ATOM     14  C   UNL     1       2.295  -0.328  -3.583  0.00  0.00    +0.057 A 
ATOM     15  C   UNL     1       2.666  -1.614  -3.950  0.00  0.00    +0.025 A 
ATOM     16  C   UNL     1       2.172  -2.171  -5.113  0.00  0.00    +0.002 A 
ATOM     17  C   UNL     1       1.304  -1.455  -5.920  0.00  0.00    +0.001 A 
ATOM     18  C   UNL     1       0.924  -0.176  -5.571  0.00  0.00    +0.021 A 
ATOM     19  C   UNL     1       1.411   0.399  -4.396  0.00  0.00    +0.073 A 
BRANCH  19  20
ATOM     20  C   UNL     1       1.017   1.724  -4.025  0.00  0.00    +0.101 C 
ATOM     21  N   UNL     1       0.704   2.776  -3.730  0.00  0.00    -0.191 NA
ENDBRANCH  19  20
ENDBRANCH   9  14
BRANCH   6  22
ATOM     22  C   UNL     1       5.144  -0.518   0.267  0.00  0.00    +0.002 A 
ATOM     23  C   UNL     1       6.065  -0.665   1.250  0.00  0.00    +0.012 A 
ATOM     24  C   UNL     1       6.785  -1.843   1.323  0.00  0.00    +0.008 A 
ATOM     25  C   UNL     1       6.549  -2.815   0.408  0.00  0.00    +0.045 A 
ATOM     26  S   UNL     1       5.270  -2.076  -0.595  0.00  0.00    -0.101 S 
ENDBRANCH   6  22
BRANCH   8  27
ATOM     27  N   UNL     1       4.300   1.605  -3.649  0.00  0.00    -0.345 N 
ATOM     28  H   UNL     1       5.088   2.168  -3.684  0.00  0.00    +0.144 HD
ATOM     29  H   UNL     1       3.784   1.441  -4.454  0.00  0.00    +0.144 HD
ENDBRANCH   8  27
BRANCH   7  30
ATOM     30  C   UNL     1       5.793   2.108  -1.397  0.00  0.00    +0.099 C 
ATOM     31  N   UNL     1       6.710   2.776  -1.449  0.00  0.00    -0.191 NA
ENDBRANCH   7  30
TORSDOF 5
