REMARK  Name = ZINC09971824
REMARK  6 active torsions:
REMARK  status: ('A' for Active; 'I' for Inactive)
REMARK    1  A    between atoms: C_4  and  C_7
REMARK    2  A    between atoms: C_7  and  N_67
REMARK    3  A    between atoms: N_10  and  C_13
REMARK    4  A    between atoms: C_15  and  N_22
REMARK    5  A    between atoms: C_18  and  N_19
REMARK    6  A    between atoms: C_28  and  C_30
REMARK                            x       y       z     vdW  Elec       q    Type
REMARK                         _______ _______ _______ _____ _____    ______ ____
ROOT
ATOM      1  C   UNL     1       3.915   1.133   7.032  0.00  0.00    +0.062 A 
ATOM      2  C   UNL     1       2.670   0.654   7.415  0.00  0.00    +0.048 A 
ATOM      3  C   UNL     1       2.490   0.144   8.693  0.00  0.00    +0.032 A 
ATOM      4  C   UNL     1       3.555   0.116   9.585  0.00  0.00    +0.025 A 
ATOM      5  C   UNL     1       4.793   0.595   9.201  0.00  0.00    +0.036 A 
ATOM      6  C   UNL     1       4.977   1.097   7.927  0.00  0.00    +0.147 A 
ENDROOT
BRANCH   3   7
ATOM      7  N   UNL     1       1.239  -0.340   9.083  0.00  0.00    -0.327 N 
ATOM      8  C   UNL     1       0.199   0.683   8.903  0.00  0.00    +0.124 C 
ATOM      9  C   UNL     1      -1.176   0.060   9.167  0.00  0.00    +0.127 C 
ATOM     10  N   UNL     1      -1.153  -0.578  10.492  0.00  0.00    -0.294 N 
ATOM     11  C   UNL     1      -0.060  -1.513  10.796  0.00  0.00    +0.127 C 
ATOM     12  C   UNL     1       1.271  -0.829  10.468  0.00  0.00    +0.124 C 
ATOM     13  C   UNL     1      -2.110  -0.313  11.404  0.00  0.00    +0.249 C 
ATOM     14  O   UNL     1      -2.950   0.536  11.174  0.00  0.00    -0.270 OA
BRANCH  13  15
ATOM     15  C   UNL     1      -2.138  -1.053  12.681  0.00  0.00    +0.072 A 
ATOM     16  C   UNL     1      -1.982  -2.441  12.692  0.00  0.00    +0.016 A 
ATOM     17  C   UNL     1      -2.003  -3.125  13.889  0.00  0.00    +0.001 A 
ATOM     18  C   UNL     1      -2.190  -2.442  15.079  0.00  0.00    +0.003 A 
ATOM     19  C   UNL     1      -2.351  -1.070  15.078  0.00  0.00    +0.039 A 
ATOM     20  C   UNL     1      -2.327  -0.368  13.886  0.00  0.00    +0.135 A 
ATOM     21  F   UNL     1      -2.485   0.973  13.886  0.00  0.00    -0.205 F 
ENDBRANCH  13  15
ENDBRANCH   3   7
BRANCH   1  24
ATOM     22  C   UNL     1       3.573   3.425   4.149  0.00  0.00    -0.059 C 
ATOM     23  C   UNL     1       3.282   2.849   5.536  0.00  0.00    +0.086 C 
ATOM     24  N   UNL     1       4.101   1.647   5.747  0.00  0.00    -0.332 N 
ATOM     25  C   UNL     1       3.810   0.630   4.726  0.00  0.00    +0.086 C 
ATOM     26  C   UNL     1       4.102   1.206   3.339  0.00  0.00    -0.059 C 
ATOM     27  N   UNL     1       3.256   2.401   3.131  0.00  0.00    +0.384 N 
ATOM     28  H   UNL     1       2.270   2.131   3.225  0.00  0.00    -0.081 HD
BRANCH  27  29
ATOM     29  C   UNL     1       3.478   2.948   1.776  0.00  0.00    -0.043 C 
BRANCH  29  33
ATOM     30  C   UNL     1       0.574   5.989   1.023  0.00  0.00    +0.000 A 
ATOM     31  C   UNL     1       1.793   6.321   1.583  0.00  0.00    +0.000 A 
ATOM     32  C   UNL     1       2.733   5.337   1.827  0.00  0.00    +0.002 A 
ATOM     33  C   UNL     1       2.454   4.021   1.511  0.00  0.00    -0.064 A 
ATOM     34  C   UNL     1       1.236   3.689   0.946  0.00  0.00    +0.002 A 
ATOM     35  C   UNL     1       0.295   4.672   0.707  0.00  0.00    +0.000 A 
ENDBRANCH  29  33
ENDBRANCH  27  29
ENDBRANCH   1  24
BRANCH   6  36
ATOM     36  N   UNL     1       6.306   1.603   7.517  0.00  0.00    +0.058 N 
ATOM     37  O   UNL     1       7.238   1.571   8.301  0.00  0.00    -0.126 OA
ATOM     38  O   UNL     1       6.469   2.050   6.396  0.00  0.00    -0.126 OA
ENDBRANCH   6  36
TORSDOF 6
