REMARK  Name = ZINC15723726
REMARK  8 active torsions:
REMARK  status: ('A' for Active; 'I' for Inactive)
REMARK    1  A    between atoms: C_1  and  C_2
REMARK    2  A    between atoms: C_2  and  C_4
REMARK    3  A    between atoms: C_2  and  N_14
REMARK    4  A    between atoms: C_15  and  C_17
REMARK    5  A    between atoms: C_23  and  C_28
REMARK    6  A    between atoms: C_23  and  C_29
REMARK    7  A    between atoms: N_24  and  C_27
REMARK    8  A    between atoms: N_31  and  C_32
REMARK                            x       y       z     vdW  Elec       q    Type
REMARK                         _______ _______ _______ _____ _____    ______ ____
ROOT
ATOM      1  C   UNL     1       3.250   2.855  -0.105  0.00  0.00    +0.148 A 
ATOM      2  C   UNL     1       2.508   1.660  -0.253  0.00  0.00    +0.067 A 
ATOM      3  C   UNL     1       1.226   2.006   0.001  0.00  0.00    +0.124 A 
ATOM      4  N   UNL     1       1.211   3.356   0.289  0.00  0.00    -0.256 N 
ATOM      5  N   UNL     1       2.399   3.815   0.219  0.00  0.00    -0.166 NA
ATOM      6  C   UNL     1      -0.044   4.046   0.610  0.00  0.00    +0.179 C 
ATOM      7  C   UNL     1      -1.197   3.363  -0.123  0.00  0.00    +0.130 C 
ATOM      8  N   UNL     1      -1.175   1.912   0.018  0.00  0.00    -0.284 N 
ATOM      9  C   UNL     1      -0.014   1.212   0.009  0.00  0.00    +0.265 C 
ATOM     10  O   UNL     1       0.002  -0.004   0.002  0.00  0.00    -0.268 OA
ATOM     11  C   UNL     1      -2.441   1.192   0.177  0.00  0.00    +0.133 C 
ATOM     12  C   UNL     1      -2.520   3.895   0.433  0.00  0.00    +0.044 C 
ENDROOT
BRANCH   1  14
ATOM     13  N   UNL     1       5.290   4.208  -0.104  0.00  0.00    -0.307 N 
ATOM     14  C   UNL     1       4.710   3.004  -0.278  0.00  0.00    +0.264 C 
ATOM     15  O   UNL     1       5.387   2.040  -0.577  0.00  0.00    -0.268 OA
ATOM     16  H   UNL     1       4.749   4.977   0.134  0.00  0.00    +0.149 HD
BRANCH  13  18
ATOM     17  C   UNL     1       7.446   3.989   1.029  0.00  0.00    +0.028 C 
ATOM     18  C   UNL     1       6.737   4.355  -0.277  0.00  0.00    +0.076 C 
BRANCH  18  19
ATOM     19  C   UNL     1       7.062   5.804  -0.644  0.00  0.00    -0.010 C 
ATOM     20  C   UNL     1       6.583   6.734   0.473  0.00  0.00    +0.012 C 
ATOM     21  C   UNL     1       6.908   8.183   0.106  0.00  0.00    -0.010 C 
ATOM     22  C   UNL     1       8.420   8.337  -0.074  0.00  0.00    +0.007 C 
ATOM     23  C   UNL     1       8.898   7.408  -1.192  0.00  0.00    -0.010 C 
ATOM     24  C   UNL     1       8.573   5.958  -0.824  0.00  0.00    +0.012 C 
ATOM     25  C   UNL     1       8.189   7.774  -2.497  0.00  0.00    +0.007 C 
ATOM     26  C   UNL     1       6.678   7.620  -2.318  0.00  0.00    -0.010 C 
ATOM     27  C   UNL     1       6.200   8.549  -1.200  0.00  0.00    +0.007 C 
ATOM     28  C   UNL     1       6.353   6.170  -1.950  0.00  0.00    +0.012 C 
ENDBRANCH  18  19
ENDBRANCH  13  18
ENDBRANCH   1  14
BRANCH   7  29
ATOM     29  C   UNL     1      -1.113   3.704  -1.588  0.00  0.00    +0.238 C 
ATOM     30  O   UNL     1      -0.557   4.722  -1.942  0.00  0.00    -0.273 OA
ATOM     31  N   UNL     1      -1.656   2.879  -2.505  0.00  0.00    -0.311 N 
ATOM     32  H   UNL     1      -2.100   2.065  -2.221  0.00  0.00    +0.149 HD
BRANCH  31  33
ATOM     33  C   UNL     1      -1.574   3.211  -3.929  0.00  0.00    +0.073 C 
ATOM     34  C   UNL     1      -2.727   4.144  -4.302  0.00  0.00    +0.022 C 
ATOM     35  C   UNL     1      -2.642   4.491  -5.790  0.00  0.00    +0.002 C 
ATOM     36  C   UNL     1      -2.736   3.209  -6.619  0.00  0.00    +0.000 C 
ATOM     37  C   UNL     1      -1.582   2.275  -6.246  0.00  0.00    +0.002 C 
ATOM     38  C   UNL     1      -1.667   1.928  -4.758  0.00  0.00    +0.022 C 
ENDBRANCH  31  33
ENDBRANCH   7  29
TORSDOF 5
