REMARK  Name = ZINC36167663
REMARK  15 active torsions:
REMARK  status: ('A' for Active; 'I' for Inactive)
REMARK    1  A    between atoms: C_1  and  O_2
REMARK    2  A    between atoms: O_2  and  C_3
REMARK    3  A    between atoms: C_3  and  C_4
REMARK    4  A    between atoms: C_4  and  C_5
REMARK    5  A    between atoms: C_5  and  N_6
REMARK    6  A    between atoms: N_6  and  C_7
REMARK    7  A    between atoms: N_6  and  C_16
REMARK    8  A    between atoms: C_7  and  C_8
REMARK    9  A    between atoms: C_11  and  O_14
REMARK   10  A    between atoms: O_14  and  C_15
REMARK   11  A    between atoms: C_16  and  C_17
REMARK   12  A    between atoms: C_20  and  C_22
REMARK   13  A    between atoms: C_22  and  C_23
REMARK   14  A    between atoms: C_22  and  C_29
REMARK   15  A    between atoms: C_22  and  O_35
REMARK                            x       y       z     vdW  Elec       q    Type
REMARK                         _______ _______ _______ _____ _____    ______ ____
ROOT
ATOM      1  C   UNL     1       1.602  -3.001  -0.640  0.00  0.00    +0.089 A 
ATOM      2  C   UNL     1       1.726  -1.902  -1.406  0.00  0.00    +0.043 A 
ATOM      3  C   UNL     1       0.732  -1.987  -2.408  0.00  0.00    +0.048 A 
ATOM      4  C   UNL     1       0.060  -3.133  -2.195  0.00  0.00    +0.146 A 
ATOM      5  O   UNL     1       0.595  -3.746  -1.126  0.00  0.00    -0.463 OA
ENDROOT
BRANCH   1   6
ATOM      6  C   UNL     1       2.453  -3.341   0.556  0.00  0.00    -0.003 C 
BRANCH   6   7
ATOM      7  N   UNL     1       1.911  -2.675   1.748  0.00  0.00    +0.387 N 
ATOM      8  H   UNL     1       1.829  -1.685   1.572  0.00  0.00    -0.081 HD
BRANCH   7   9
ATOM      9  C   UNL     1       2.813  -2.898   2.886  0.00  0.00    -0.076 C 
BRANCH   9  10
ATOM     10  C   UNL     1       4.150  -2.202   2.620  0.00  0.00    +0.009 C 
BRANCH  10  11
ATOM     11  C   UNL     1       5.037  -2.312   3.862  0.00  0.00    +0.157 C 
BRANCH  11  13
ATOM     12  C   UNL     1       7.193  -1.707   4.717  0.00  0.00    +0.193 C 
ATOM     13  O   UNL     1       6.285  -1.662   3.614  0.00  0.00    -0.383 OA
ENDBRANCH  11  13
ENDBRANCH  10  11
ENDBRANCH   9  10
ENDBRANCH   7   9
BRANCH   7  14
ATOM     14  C   UNL     1       0.586  -3.229   2.058  0.00  0.00    -0.042 C 
BRANCH  14  15
ATOM     15  C   UNL     1      -0.022  -2.463   3.205  0.00  0.00    -0.064 A 
ATOM     16  C   UNL     1       0.204  -2.873   4.506  0.00  0.00    +0.005 A 
ATOM     17  C   UNL     1      -0.352  -2.173   5.559  0.00  0.00    +0.046 A 
ATOM     18  C   UNL     1      -1.139  -1.058   5.309  0.00  0.00    +0.120 A 
ATOM     19  C   UNL     1      -1.365  -0.648   4.003  0.00  0.00    +0.046 A 
ATOM     20  C   UNL     1      -0.801  -1.349   2.954  0.00  0.00    +0.005 A 
BRANCH  18  21
ATOM     21  O   UNL     1      -1.688  -0.367   6.343  0.00  0.00    -0.495 OA
ATOM     22  C   UNL     1      -2.487   0.770   6.013  0.00  0.00    +0.277 C 
ENDBRANCH  18  21
ENDBRANCH  14  15
ENDBRANCH   7  14
ENDBRANCH   6   7
ENDBRANCH   1   6
BRANCH   4  23
ATOM     23  C   UNL     1      -1.093  -3.645  -3.018  0.00  0.00    +0.174 C 
BRANCH  23  24
ATOM     24  C   UNL     1      -1.101  -5.152  -2.989  0.00  0.00    -0.004 A 
ATOM     25  C   UNL     1      -0.829  -5.866  -4.141  0.00  0.00    +0.007 A 
ATOM     26  C   UNL     1      -0.836  -7.248  -4.115  0.00  0.00    +0.000 A 
ATOM     27  C   UNL     1      -1.115  -7.916  -2.937  0.00  0.00    +0.000 A 
ATOM     28  C   UNL     1      -1.387  -7.201  -1.785  0.00  0.00    +0.000 A 
ATOM     29  C   UNL     1      -1.375  -5.819  -1.810  0.00  0.00    +0.007 A 
ENDBRANCH  23  24
BRANCH  23  30
ATOM     30  C   UNL     1      -2.388  -3.125  -2.448  0.00  0.00    -0.004 A 
ATOM     31  C   UNL     1      -2.565  -3.066  -1.078  0.00  0.00    +0.007 A 
ATOM     32  C   UNL     1      -3.752  -2.589  -0.555  0.00  0.00    +0.000 A 
ATOM     33  C   UNL     1      -4.762  -2.171  -1.401  0.00  0.00    +0.000 A 
ATOM     34  C   UNL     1      -4.584  -2.229  -2.771  0.00  0.00    +0.000 A 
ATOM     35  C   UNL     1      -3.395  -2.702  -3.294  0.00  0.00    +0.007 A 
ENDBRANCH  23  30
BRANCH  23  36
ATOM     36  O   UNL     1      -0.952  -3.195  -4.367  0.00  0.00    -0.372 OA
ATOM     37  H   UNL     1      -0.940  -2.233  -4.461  0.00  0.00    +0.212 HD
ENDBRANCH  23  36
ENDBRANCH   4  23
TORSDOF 13
