REMARK  Name = ZINC13569782
REMARK  7 active torsions:
REMARK  status: ('A' for Active; 'I' for Inactive)
REMARK    1  A    between atoms: C_1  and  C_2
REMARK    2  A    between atoms: C_7  and  N_8
REMARK    3  A    between atoms: C_9  and  C_11
REMARK    4  A    between atoms: C_12  and  C_30
REMARK    5  A    between atoms: C_15  and  C_28
REMARK    6  A    between atoms: C_19  and  C_21
REMARK    7  A    between atoms: C_24  and  O_27
REMARK                            x       y       z     vdW  Elec       q    Type
REMARK                         _______ _______ _______ _____ _____    ______ ____
ROOT
ATOM      1  C   UNL     1       0.113   0.173   4.707  0.00  0.00    +0.060 C 
ATOM      2  C   UNL     1       0.201  -0.455   5.888  0.00  0.00    +0.017 C 
ATOM      3  N   UNL     1       0.223   0.232   7.078  0.00  0.00    -0.302 N 
ATOM      4  C   UNL     1      -0.111   1.575   7.042  0.00  0.00    +0.140 A 
ATOM      5  C   UNL     1      -0.400   2.446   8.073  0.00  0.00    +0.111 A 
ATOM      6  C   UNL     1      -0.682   3.702   7.481  0.00  0.00    +0.155 A 
ATOM      7  N   UNL     1      -0.565   3.581   6.186  0.00  0.00    -0.176 NA
ATOM      8  N   UNL     1      -0.207   2.270   5.881  0.00  0.00    -0.237 N 
ATOM      9  C   UNL     1       0.050   1.669   4.569  0.00  0.00    +0.176 C 
ATOM     10  C   UNL     1       0.278  -1.960   5.913  0.00  0.00    +0.061 C 
ATOM     11  H   UNL     1       0.463  -0.206   7.909  0.00  0.00    +0.153 HD
ENDROOT
BRANCH   9  12
ATOM     12  C   UNL     1       1.361   2.179   4.027  0.00  0.00    -0.018 A 
ATOM     13  C   UNL     1       2.532   1.952   4.725  0.00  0.00    +0.009 A 
ATOM     14  C   UNL     1       3.734   2.418   4.230  0.00  0.00    +0.046 A 
ATOM     15  C   UNL     1       3.766   3.116   3.032  0.00  0.00    +0.117 A 
ATOM     16  C   UNL     1       2.589   3.343   2.333  0.00  0.00    +0.046 A 
ATOM     17  C   UNL     1       1.390   2.869   2.829  0.00  0.00    +0.009 A 
BRANCH  15  18
ATOM     18  O   UNL     1       4.947   3.577   2.543  0.00  0.00    -0.507 OA
ATOM     19  H   UNL     1       5.404   2.952   1.963  0.00  0.00    +0.292 HD
ENDBRANCH  15  18
ENDBRANCH   9  12
BRANCH   1  21
ATOM     20  N   UNL     1       1.198  -1.247   3.115  0.00  0.00    -0.281 N 
ATOM     21  C   UNL     1       0.084  -0.612   3.530  0.00  0.00    +0.248 C 
ATOM     22  O   UNL     1      -0.948  -0.714   2.891  0.00  0.00    -0.270 OA
ATOM     23  H   UNL     1       2.005  -1.212   3.653  0.00  0.00    +0.155 HD
BRANCH  20  30
ATOM     24  C   UNL     1       3.579  -1.270   1.558  0.00  0.00    +0.045 C 
ATOM     25  C   UNL     1       2.332  -1.994   1.119  0.00  0.00    -0.029 A 
ATOM     26  C   UNL     1       2.324  -2.700  -0.069  0.00  0.00    +0.005 A 
ATOM     27  C   UNL     1       1.181  -3.364  -0.472  0.00  0.00    +0.000 A 
ATOM     28  C   UNL     1       0.041  -3.324   0.311  0.00  0.00    +0.002 A 
ATOM     29  C   UNL     1       0.043  -2.620   1.499  0.00  0.00    +0.023 A 
ATOM     30  C   UNL     1       1.192  -1.956   1.910  0.00  0.00    +0.037 A 
ENDBRANCH  20  30
ENDBRANCH   1  21
BRANCH   5  31
ATOM     31  C   UNL     1      -0.414   2.139   9.472  0.00  0.00    +0.104 C 
ATOM     32  N   UNL     1      -0.424   1.895  10.581  0.00  0.00    -0.191 NA
ENDBRANCH   5  31
TORSDOF 5
