REMARK  Name = ZINC13064630
REMARK  11 active torsions:
REMARK  status: ('A' for Active; 'I' for Inactive)
REMARK    1  A    between atoms: C_1  and  C_2
REMARK    2  A    between atoms: C_2  and  C_3
REMARK    3  A    between atoms: C_3  and  C_5
REMARK    4  A    between atoms: C_3  and  N_70
REMARK    5  A    between atoms: N_9  and  C_10
REMARK    6  A    between atoms: C_10  and  C_11
REMARK    7  A    between atoms: C_17  and  C_18
REMARK    8  A    between atoms: C_17  and  N_70
REMARK    9  A    between atoms: C_22  and  C_31
REMARK   10  A    between atoms: C_23  and  C_30
REMARK   11  A    between atoms: C_32  and  N_70
REMARK                            x       y       z     vdW  Elec       q    Type
REMARK                         _______ _______ _______ _____ _____    ______ ____
ROOT
ATOM      1  N   UNL     1       3.423   5.968   2.331  0.00  0.00    +0.391 N 
ATOM      2  H   UNL     1       3.125   6.317   3.249  0.00  0.00    -0.080 HD
ENDROOT
BRANCH   1   3
ATOM      3  C   UNL     1       3.273   7.048   1.334  0.00  0.00    -0.067 C 
ATOM      4  C   UNL     1       4.093   6.747   0.062  0.00  0.00    -0.015 C 
ATOM      5  C   UNL     1       4.640   8.130  -0.372  0.00  0.00    -0.002 C 
ATOM      6  C   UNL     1       4.969   8.809   0.980  0.00  0.00    -0.002 C 
ATOM      7  C   UNL     1       3.829   8.359   1.917  0.00  0.00    -0.015 C 
ENDBRANCH   1   3
BRANCH   1   8
ATOM      8  C   UNL     1       2.577   4.815   1.958  0.00  0.00    +0.003 C 
BRANCH   8   9
ATOM      9  C   UNL     1       3.259   3.979   0.905  0.00  0.00    +0.138 A 
ATOM     10  N   UNL     1       3.771   4.407  -0.223  0.00  0.00    -0.115 NA
ATOM     11  N   UNL     1       4.261   3.393  -0.848  0.00  0.00    -0.023 NA
ATOM     12  N   UNL     1       4.080   2.329  -0.145  0.00  0.00    -0.044 NA
ATOM     13  N   UNL     1       3.461   2.649   0.940  0.00  0.00    -0.228 N 
BRANCH  13  14
ATOM     14  C   UNL     1       3.057   1.736   2.013  0.00  0.00    +0.178 C 
BRANCH  14  15
ATOM     15  C   UNL     1       1.649   1.209   1.732  0.00  0.00    +0.140 C 
ATOM     16  C   UNL     1       1.190   0.250   2.859  0.00  0.00    +0.035 C 
ATOM     17  C   UNL     1       0.136  -0.622   2.133  0.00  0.00    +0.031 C 
ATOM     18  C   UNL     1       0.479  -0.465   0.639  0.00  0.00    +0.160 C 
ATOM     19  O   UNL     1       1.644   0.373   0.555  0.00  0.00    -0.375 OA
ENDBRANCH  14  15
ENDBRANCH  13  14
ENDBRANCH   8   9
BRANCH   8  21
ATOM     20  C   UNL     1       0.577   6.223   2.462  0.00  0.00    +0.002 C 
ATOM     21  C   UNL     1       1.240   5.324   1.417  0.00  0.00    -0.011 C 
ENDBRANCH   8  21
ENDBRANCH   1   8
BRANCH   1  22
ATOM     22  C   UNL     1       4.839   5.550   2.413  0.00  0.00    -0.036 C 
BRANCH  22  23
ATOM     23  C   UNL     1       5.056   4.837   3.723  0.00  0.00    +0.001 A 
ATOM     24  C   UNL     1       5.064   3.482   3.762  0.00  0.00    +0.017 A 
ATOM     25  C   UNL     1       5.277   2.821   5.050  0.00  0.00    -0.001 A 
ATOM     26  C   UNL     1       5.296   1.425   5.153  0.00  0.00    +0.013 A 
ATOM     27  C   UNL     1       5.498   0.839   6.370  0.00  0.00    -0.047 A 
ATOM     28  C   UNL     1       5.686   1.615   7.506  0.00  0.00    -0.046 A 
ATOM     29  C   UNL     1       5.671   2.991   7.428  0.00  0.00    +0.030 A 
ATOM     30  C   UNL     1       5.467   3.611   6.200  0.00  0.00    +0.049 A 
ATOM     31  N   UNL     1       5.449   4.985   6.093  0.00  0.00    -0.322 N 
ATOM     32  H   UNL     1       5.580   5.528   6.886  0.00  0.00    +0.169 HD
ATOM     33  C   UNL     1       5.257   5.583   4.904  0.00  0.00    +0.251 A 
ATOM     34  O   UNL     1       5.252   6.801   4.846  0.00  0.00    -0.268 OA
ATOM     35  C   UNL     1       5.907   0.946   8.838  0.00  0.00    +0.044 C 
ATOM     36  C   UNL     1       5.518  -0.664   6.481  0.00  0.00    +0.044 C 
ENDBRANCH  22  23
ENDBRANCH   1  22
TORSDOF 8
