REMARK  Name = ZINC31077477
REMARK  13 active torsions:
REMARK  status: ('A' for Active; 'I' for Inactive)
REMARK    1  A    between atoms: C_1  and  C_2
REMARK    2  A    between atoms: C_2  and  C_3
REMARK    3  A    between atoms: C_2  and  C_4
REMARK    4  A    between atoms: C_4  and  C_6
REMARK    5  A    between atoms: C_4  and  N_26
REMARK    6  A    between atoms: N_8  and  C_9
REMARK    7  A    between atoms: C_9  and  C_10
REMARK    8  A    between atoms: C_15  and  C_16
REMARK    9  A    between atoms: C_19  and  C_22
REMARK   10  A    between atoms: C_22  and  N_23
REMARK   11  A    between atoms: N_23  and  C_24
REMARK   12  A    between atoms: N_23  and  C_25
REMARK   13  A    between atoms: C_27  and  C_29
REMARK                            x       y       z     vdW  Elec       q    Type
REMARK                         _______ _______ _______ _____ _____    ______ ____
ROOT
ATOM      1  C   UNL     1       3.402   2.056  -1.199  0.00  0.00    +0.234 C 
ATOM      2  O   UNL     1       3.257   3.218  -1.515  0.00  0.00    -0.274 OA
ATOM      3  N   UNL     1       4.572   1.433  -1.441  0.00  0.00    -0.310 N 
ATOM      4  H   UNL     1       4.733   0.406  -1.081  0.00  0.00    +0.149 HD
ENDROOT
BRANCH   1   5
ATOM      5  C   UNL     1       2.274   1.310  -0.534  0.00  0.00    +0.162 C 
BRANCH   5   6
ATOM      6  N   UNL     1       1.008   1.994  -0.808  0.00  0.00    -0.300 N 
ATOM      7  C   UNL     1      -0.150   1.305  -0.776  0.00  0.00    +0.247 C 
ATOM      8  O   UNL     1      -0.144   0.117  -0.520  0.00  0.00    -0.270 OA
ATOM      9  H   UNL     1       1.002   3.069  -1.039  0.00  0.00    +0.150 HD
BRANCH   7  10
ATOM     10  C   UNL     1      -1.426   1.994  -1.058  0.00  0.00    +0.072 A 
ATOM     11  C   UNL     1      -1.438   3.360  -1.347  0.00  0.00    +0.016 A 
ATOM     12  C   UNL     1      -2.632   3.995  -1.614  0.00  0.00    +0.001 A 
ATOM     13  C   UNL     1      -3.820   3.286  -1.586  0.00  0.00    +0.003 A 
ATOM     14  C   UNL     1      -3.820   1.934  -1.296  0.00  0.00    +0.039 A 
ATOM     15  C   UNL     1      -2.630   1.282  -1.032  0.00  0.00    +0.135 A 
ATOM     16  F   UNL     1      -2.629  -0.039  -0.748  0.00  0.00    -0.205 F 
ENDBRANCH   7  10
ENDBRANCH   5   6
BRANCH   5  18
ATOM     17  C   UNL     1       2.447   2.682   1.546  0.00  0.00    +0.009 C 
ATOM     18  C   UNL     1       2.513   1.264   0.976  0.00  0.00    +0.012 C 
ATOM     19  C   UNL     1       1.438   0.399   1.637  0.00  0.00    +0.009 C 
ENDBRANCH   5  18
ENDBRANCH   1   5
BRANCH   3  20
ATOM     20  C   UNL     1       5.629   2.123  -2.185  0.00  0.00    +0.140 C 
BRANCH  20  21
ATOM     21  C   UNL     1       6.774   1.173  -2.428  0.00  0.00    -0.023 A 
ATOM     22  C   UNL     1       7.933   1.284  -1.686  0.00  0.00    +0.006 A 
ATOM     23  C   UNL     1       8.984   0.412  -1.907  0.00  0.00    +0.000 A 
ATOM     24  C   UNL     1       8.881  -0.574  -2.871  0.00  0.00    +0.001 A 
ATOM     25  C   UNL     1       7.727  -0.693  -3.619  0.00  0.00    +0.009 A 
ATOM     26  C   UNL     1       6.663   0.179  -3.397  0.00  0.00    -0.013 A 
BRANCH  26  27
ATOM     27  C   UNL     1       5.417   0.051  -4.193  0.00  0.00    -0.018 A 
ATOM     28  C   UNL     1       4.710  -1.149  -4.198  0.00  0.00    +0.009 A 
ATOM     29  C   UNL     1       3.549  -1.260  -4.935  0.00  0.00    +0.002 A 
ATOM     30  C   UNL     1       3.093  -0.186  -5.679  0.00  0.00    -0.064 A 
ATOM     31  C   UNL     1       3.794   1.006  -5.682  0.00  0.00    +0.002 A 
ATOM     32  C   UNL     1       4.953   1.130  -4.944  0.00  0.00    +0.009 A 
BRANCH  30  33
ATOM     33  C   UNL     1       1.828  -0.316  -6.487  0.00  0.00    -0.044 C 
BRANCH  33  34
ATOM     34  N   UNL     1       2.156  -0.796  -7.836  0.00  0.00    +0.379 N 
ATOM     35  C   UNL     1       0.940  -1.160  -8.576  0.00  0.00    -0.096 C 
ATOM     36  C   UNL     1       2.942   0.203  -8.574  0.00  0.00    -0.096 C 
ATOM     37  H   UNL     1       2.772  -1.701  -7.733  0.00  0.00    -0.082 HD
ENDBRANCH  33  34
ENDBRANCH  30  33
ENDBRANCH  26  27
ENDBRANCH  20  21
ENDBRANCH   3  20
TORSDOF 9
