REMARK  Name = ZINC40397316
REMARK  3 active torsions:
REMARK  status: ('A' for Active; 'I' for Inactive)
REMARK    1  A    between atoms: C_3  and  C_9
REMARK    2  A    between atoms: C_9  and  C_11
REMARK    3  A    between atoms: C_9  and  N_16
REMARK                            x       y       z     vdW  Elec       q    Type
REMARK                         _______ _______ _______ _____ _____    ______ ____
ROOT
ATOM      1  C   UNL     1       3.671   2.187  -0.022  0.00  0.00    +0.032 C 
ENDROOT
BRANCH   1   4
ATOM      2  C   UNL     1      -0.017   1.379   0.010  0.00  0.00    +0.015 A 
ATOM      3  C   UNL     1       1.171   2.087   0.002  0.00  0.00    +0.006 A 
ATOM      4  C   UNL     1       2.377   1.414  -0.013  0.00  0.00    -0.019 A 
ATOM      5  C   UNL     1       2.398   0.030  -0.021  0.00  0.00    +0.126 A 
ATOM      6  C   UNL     1       1.209  -0.679  -0.013  0.00  0.00    +0.053 A 
ATOM      7  C   UNL     1       0.002  -0.004   0.002  0.00  0.00    +0.021 A 
ATOM      8 BR   UNL     1      -1.623  -0.972   0.012  0.00  0.00    -0.050 Br
ATOM      9  F   UNL     1       3.577  -0.629  -0.036  0.00  0.00    -0.205 F 
ENDBRANCH   1   4
BRANCH   1  10
ATOM     10  C   UNL     1       4.242   2.226   1.372  0.00  0.00    +0.167 A 
ATOM     11  N   UNL     1       3.808   2.962   2.384  0.00  0.00    -0.113 NA
ATOM     12  N   UNL     1       4.559   2.711   3.401  0.00  0.00    -0.021 NA
ATOM     13  N   UNL     1       5.448   1.844   3.061  0.00  0.00    -0.021 NA
ATOM     14  N   UNL     1       5.273   1.526   1.823  0.00  0.00    -0.113 NA
ENDBRANCH   1  10
BRANCH   1  15
ATOM     15  N   UNL     1       3.419   3.558  -0.486  0.00  0.00    +0.388 N 
ATOM     16  H   UNL     1       2.763   4.008   0.134  0.00  0.00    -0.089 HD
ATOM     17  H   UNL     1       4.286   4.075  -0.492  0.00  0.00    -0.089 HD
ATOM     18  H   UNL     1       3.037   3.532  -1.419  0.00  0.00    -0.089 HD
ENDBRANCH   1  15
TORSDOF 3
