REMARK  Name = ZINC03014115
REMARK  9 active torsions:
REMARK  status: ('A' for Active; 'I' for Inactive)
REMARK    1  A    between atoms: C_1  and  C_2
REMARK    2  A    between atoms: C_2  and  O_3
REMARK    3  A    between atoms: O_3  and  C_4
REMARK    4  A    between atoms: C_6  and  C_18
REMARK    5  A    between atoms: C_9  and  O_10
REMARK    6  A    between atoms: O_10  and  C_11
REMARK    7  A    between atoms: C_11  and  C_13
REMARK    8  A    between atoms: C_32  and  N_36
REMARK    9  A    between atoms: C_33  and  C_34
REMARK                            x       y       z     vdW  Elec       q    Type
REMARK                         _______ _______ _______ _____ _____    ______ ____
ROOT
ATOM      1  C   UNL     1       0.675  -4.926  -0.013  0.00  0.00    +0.105 C 
ATOM      2  C   UNL     1       0.646  -5.817   1.199  0.00  0.00    +0.092 A 
ATOM      3  C   UNL     1       0.291  -7.128   1.088  0.00  0.00    +0.152 A 
ATOM      4  C   UNL     1       0.281  -7.952   2.308  0.00  0.00    +0.060 A 
ATOM      5  C   UNL     1      -0.069  -9.303   2.262  0.00  0.00    +0.015 A 
ATOM      6  C   UNL     1      -0.068 -10.045   3.422  0.00  0.00    +0.001 A 
ATOM      7  C   UNL     1       0.279  -9.457   4.630  0.00  0.00    +0.004 A 
ATOM      8  C   UNL     1       0.628  -8.124   4.688  0.00  0.00    +0.047 A 
ATOM      9  C   UNL     1       0.633  -7.358   3.530  0.00  0.00    +0.143 A 
ATOM     10  O   UNL     1       0.973  -6.051   3.567  0.00  0.00    -0.422 OA
ATOM     11  C   UNL     1       0.988  -5.295   2.459  0.00  0.00    +0.345 A 
ATOM     12  O   UNL     1       1.308  -4.122   2.546  0.00  0.00    -0.245 OA
ATOM     13  O   UNL     1      -0.046  -7.670  -0.098  0.00  0.00    -0.440 OA
ATOM     14  C   UNL     1       0.318  -7.062  -1.241  0.00  0.00    +0.199 C 
ATOM     15  C   UNL     1       0.671  -5.757  -1.266  0.00  0.00    +0.098 C 
ENDROOT
BRANCH   1  18
ATOM     16  C   UNL     1      -1.497  -1.835   0.038  0.00  0.00    +0.163 A 
ATOM     17  C   UNL     1      -0.382  -2.659   0.030  0.00  0.00    +0.054 A 
ATOM     18  C   UNL     1      -0.538  -4.032  -0.004  0.00  0.00    -0.031 A 
ATOM     19  C   UNL     1      -1.804  -4.586  -0.031  0.00  0.00    +0.008 A 
ATOM     20  C   UNL     1      -2.920  -3.771  -0.023  0.00  0.00    +0.050 A 
ATOM     21  C   UNL     1      -2.771  -2.393   0.017  0.00  0.00    +0.173 A 
BRANCH  16  22
ATOM     22  O   UNL     1      -1.345  -0.484   0.072  0.00  0.00    -0.489 OA
BRANCH  22  24
ATOM     23  C   UNL     1      -0.038   1.548   0.129  0.00  0.00    +0.048 C 
ATOM     24  C   UNL     1      -0.008   0.019   0.092  0.00  0.00    +0.226 C 
ENDBRANCH  22  24
ENDBRANCH  16  22
BRANCH  21  25
ATOM     25  O   UNL     1      -3.868  -1.589   0.031  0.00  0.00    -0.418 OA
BRANCH  25  26
ATOM     26  C   UNL     1      -4.261  -1.035  -1.134  0.00  0.00    +0.351 C 
ATOM     27  O   UNL     1      -3.701  -1.337  -2.171  0.00  0.00    -0.244 OA
BRANCH  26  28
ATOM     28  C   UNL     1      -5.362  -0.070  -1.151  0.00  0.00    +0.097 A 
ATOM     29  C   UNL     1      -5.919   0.604  -2.229  0.00  0.00    +0.022 A 
ATOM     30  C   UNL     1      -6.954   1.456  -1.929  0.00  0.00    +0.008 A 
ATOM     31  C   UNL     1      -7.354   1.580  -0.639  0.00  0.00    +0.046 A 
ATOM     32  S   UNL     1      -6.343   0.540   0.208  0.00  0.00    -0.090 S 
ENDBRANCH  26  28
ENDBRANCH  25  26
ENDBRANCH  21  25
ENDBRANCH   1  18
BRANCH  14  33
ATOM     33  N   UNL     1       0.329  -7.783  -2.409  0.00  0.00    -0.328 N 
ATOM     34  H   UNL     1       0.076  -8.719  -2.403  0.00  0.00    +0.145 HD
ATOM     35  H   UNL     1       0.589  -7.355  -3.240  0.00  0.00    +0.145 HD
ENDBRANCH  14  33
BRANCH  15  36
ATOM     36  C   UNL     1       1.049  -5.158  -2.510  0.00  0.00    +0.101 C 
ATOM     37  N   UNL     1       1.349  -4.683  -3.497  0.00  0.00    -0.191 NA
ENDBRANCH  15  36
TORSDOF 8
