REMARK  Name = ZINC01839311
REMARK  6 active torsions:
REMARK  status: ('A' for Active; 'I' for Inactive)
REMARK    1  A    between atoms: C_1  and  C_2
REMARK    2  A    between atoms: C_5  and  N_8
REMARK    3  A    between atoms: C_17  and  C_21
REMARK    4  A    between atoms: C_17  and  N_25
REMARK    5  A    between atoms: N_25  and  S_26
REMARK    6  A    between atoms: S_26  and  C_29
REMARK                            x       y       z     vdW  Elec       q    Type
REMARK                         _______ _______ _______ _____ _____    ______ ____
ROOT
ATOM      1  N   UNL     1      -1.537   4.269   0.325  0.00  0.00    -0.249 N 
ATOM      2  C   UNL     1      -0.463   3.420   0.502  0.00  0.00    +0.125 A 
ATOM      3  C   UNL     1       0.789   3.901   0.262  0.00  0.00    +0.095 A 
ATOM      4  C   UNL     1       0.968   5.227  -0.152  0.00  0.00    +0.262 A 
ATOM      5  O   UNL     1       2.086   5.660  -0.367  0.00  0.00    -0.267 OA
ATOM      6  N   UNL     1      -0.113   6.020  -0.312  0.00  0.00    -0.274 N 
ATOM      7  H   UNL     1       0.004   6.968  -0.608  0.00  0.00    +0.173 HD
ATOM      8  C   UNL     1      -1.346   5.538  -0.074  0.00  0.00    +0.335 A 
ATOM      9  O   UNL     1      -2.308   6.267  -0.222  0.00  0.00    -0.246 OA
ATOM     10  C   UNL     1       1.748   2.765   0.534  0.00  0.00    +0.243 C 
ATOM     11  C   UNL     1       0.838   1.626   0.947  0.00  0.00    +0.254 C 
ATOM     12  O   UNL     1       1.176   0.504   1.260  0.00  0.00    -0.273 OA
ATOM     13  N   UNL     1      -0.418   2.103   0.892  0.00  0.00    -0.269 N 
ATOM     14  H   UNL     1      -1.204   1.577   1.106  0.00  0.00    +0.156 HD
ENDROOT
BRANCH   1  19
ATOM     15  C   UNL     1      -6.803   2.388   1.294  0.00  0.00    +0.044 C 
ATOM     16  C   UNL     1      -5.404   2.887   1.036  0.00  0.00    -0.050 A 
ATOM     17  C   UNL     1      -4.431   2.744   2.008  0.00  0.00    +0.005 A 
ATOM     18  C   UNL     1      -3.148   3.201   1.775  0.00  0.00    +0.026 A 
ATOM     19  C   UNL     1      -2.837   3.805   0.565  0.00  0.00    +0.053 A 
ATOM     20  C   UNL     1      -3.818   3.953  -0.407  0.00  0.00    +0.026 A 
ATOM     21  C   UNL     1      -5.098   3.488  -0.171  0.00  0.00    +0.005 A 
ENDBRANCH   1  19
BRANCH  10  22
ATOM     22  C   UNL     1       2.706   3.129   1.669  0.00  0.00    +0.422 C 
ATOM     23  F   UNL     1       3.440   1.998   2.041  0.00  0.00    -0.168 F 
ATOM     24  F   UNL     1       3.581   4.132   1.238  0.00  0.00    -0.168 F 
ATOM     25  F   UNL     1       1.973   3.591   2.768  0.00  0.00    -0.168 F 
ENDBRANCH  10  22
BRANCH  10  26
ATOM     26  N   UNL     1       2.495   2.416  -0.677  0.00  0.00    -0.162 NA
ATOM     27  H   UNL     1       3.438   2.634  -0.745  0.00  0.00    +0.150 HD
BRANCH  26  28
ATOM     28  S   UNL     1       1.730   1.649  -1.930  0.00  0.00    +0.060 S 
ATOM     29  O   UNL     1       2.724   1.379  -2.909  0.00  0.00    -0.153 OA
ATOM     30  O   UNL     1       0.932   0.625  -1.352  0.00  0.00    -0.153 OA
BRANCH  28  31
ATOM     31  C   UNL     1       0.616   2.810  -2.649  0.00  0.00    +0.105 A 
ATOM     32  C   UNL     1      -0.726   2.777  -2.318  0.00  0.00    +0.030 A 
ATOM     33  C   UNL     1      -1.599   3.691  -2.878  0.00  0.00    +0.022 A 
ATOM     34  C   UNL     1      -1.131   4.631  -3.778  0.00  0.00    +0.041 A 
ATOM     35  C   UNL     1       0.211   4.660  -4.113  0.00  0.00    +0.022 A 
ATOM     36  C   UNL     1       1.084   3.750  -3.549  0.00  0.00    +0.030 A 
ATOM     37 CL   UNL     1      -2.228   5.775  -4.487  0.00  0.00    -0.084 Cl
ENDBRANCH  28  31
ENDBRANCH  26  28
ENDBRANCH  10  26
TORSDOF 5
