REMARK  Name = ZINC36626049
REMARK  9 active torsions:
REMARK  status: ('A' for Active; 'I' for Inactive)
REMARK    1  A    between atoms: C_1  and  N_2
REMARK    2  A    between atoms: N_2  and  C_3
REMARK    3  A    between atoms: N_2  and  S_9
REMARK    4  A    between atoms: S_9  and  C_12
REMARK    5  A    between atoms: C_16  and  C_18
REMARK    6  A    between atoms: N_20  and  C_21
REMARK    7  A    between atoms: C_21  and  C_22
REMARK    8  A    between atoms: C_22  and  C_23
REMARK    9  A    between atoms: C_23  and  N_24
REMARK                            x       y       z     vdW  Elec       q    Type
REMARK                         _______ _______ _______ _____ _____    ______ ____
ROOT
ATOM      1  C   UNL     1      -0.354  -1.683  -2.147  0.00  0.00    +0.109 A 
ATOM      2  C   UNL     1       0.528  -1.395  -3.173  0.00  0.00    +0.029 A 
ATOM      3  C   UNL     1       1.080  -2.417  -3.925  0.00  0.00    +0.003 A 
ATOM      4  C   UNL     1       0.753  -3.730  -3.657  0.00  0.00    +0.013 A 
ATOM      5  C   UNL     1      -0.136  -4.027  -2.623  0.00  0.00    +0.039 A 
ATOM      6  C   UNL     1      -0.685  -2.992  -1.864  0.00  0.00    +0.041 A 
ENDROOT
BRANCH   5   7
ATOM      7  C   UNL     1      -0.492  -5.432  -2.330  0.00  0.00    +0.244 C 
ATOM      8  O   UNL     1      -1.266  -5.687  -1.429  0.00  0.00    -0.270 OA
ATOM      9  N   UNL     1       0.043  -6.429  -3.062  0.00  0.00    -0.311 N 
ATOM     10  H   UNL     1       0.662  -6.225  -3.781  0.00  0.00    +0.149 HD
BRANCH   9  11
ATOM     11  C   UNL     1      -0.309  -7.821  -2.771  0.00  0.00    +0.106 C 
BRANCH  11  12
ATOM     12  C   UNL     1       0.430  -8.747  -3.740  0.00  0.00    +0.038 C 
BRANCH  12  13
ATOM     13  C   UNL     1       0.063 -10.200  -3.437  0.00  0.00    +0.109 C 
BRANCH  13  14
ATOM     14  N   UNL     1       0.770 -11.087  -4.364  0.00  0.00    -0.301 N 
ATOM     15  C   UNL     1       0.148 -11.448  -5.648  0.00  0.00    +0.108 C 
ATOM     16  C   UNL     1       0.891 -10.724  -6.773  0.00  0.00    +0.019 C 
ATOM     17  C   UNL     1       2.094 -11.528  -7.232  0.00  0.00    +0.002 C 
ATOM     18  C   UNL     1       3.190 -11.642  -6.188  0.00  0.00    +0.009 C 
ATOM     19  C   UNL     1       2.716 -12.473  -4.993  0.00  0.00    +0.096 C 
ATOM     20  C   UNL     1       1.976 -11.557  -4.041  0.00  0.00    +0.216 C 
ATOM     21  O   UNL     1       2.479 -11.253  -2.980  0.00  0.00    -0.276 OA
ENDBRANCH  13  14
ENDBRANCH  12  13
ENDBRANCH  11  12
ENDBRANCH   9  11
ENDBRANCH   5   7
BRANCH   1  22
ATOM     22  S   UNL     1      -1.051  -0.375  -1.194  0.00  0.00    +0.074 S 
ATOM     23  O   UNL     1      -2.173  -0.920  -0.514  0.00  0.00    -0.150 OA
ATOM     24  O   UNL     1      -1.156   0.747  -2.060  0.00  0.00    -0.150 OA
BRANCH  22  26
ATOM     25  C   UNL     1       1.149   0.952  -0.348  0.00  0.00    +0.157 C 
ATOM     26  N   UNL     1       0.057   0.028  -0.031  0.00  0.00    -0.206 N 
BRANCH  26  27
ATOM     27  C   UNL     1      -0.049  -0.514   1.252  0.00  0.00    +0.051 A 
ATOM     28  C   UNL     1       0.189  -1.866   1.459  0.00  0.00    +0.025 A 
ATOM     29  C   UNL     1       0.084  -2.398   2.729  0.00  0.00    +0.002 A 
ATOM     30  C   UNL     1      -0.259  -1.586   3.794  0.00  0.00    +0.000 A 
ATOM     31  C   UNL     1      -0.496  -0.239   3.592  0.00  0.00    +0.002 A 
ATOM     32  C   UNL     1      -0.387   0.301   2.326  0.00  0.00    +0.025 A 
ENDBRANCH  26  27
ENDBRANCH  22  26
ENDBRANCH   1  22
TORSDOF 8
