REMARK  Name = ZINC20738769
REMARK  3 active torsions:
REMARK  status: ('A' for Active; 'I' for Inactive)
REMARK    1  A    between atoms: C_1  and  C_2
REMARK    2  A    between atoms: C_5  and  N_9
REMARK    3  A    between atoms: C_6  and  C_8
REMARK                            x       y       z     vdW  Elec       q    Type
REMARK                         _______ _______ _______ _____ _____    ______ ____
ROOT
ATOM      1  N   UNL     1       0.453  -4.130   0.211  0.00  0.00    -0.218 N 
ATOM      2  C   UNL     1       0.589  -4.997  -0.813  0.00  0.00    +0.133 A 
ATOM      3  C   UNL     1       0.773  -6.246  -0.276  0.00  0.00    +0.032 A 
ATOM      4  C   UNL     1       0.757  -6.123   1.106  0.00  0.00    +0.141 A 
ATOM      5  N   UNL     1       0.573  -4.858   1.406  0.00  0.00    -0.173 NA
ATOM      6  C   UNL     1       0.941  -7.467  -1.136  0.00  0.00    +0.111 C 
ATOM      7  C   UNL     1       1.555  -7.060  -2.474  0.00  0.00    +0.122 C 
ATOM      8  C   UNL     1       0.921  -5.803  -3.003  0.00  0.00    +0.220 C 
ATOM      9  O   UNL     1       0.734  -5.697  -4.197  0.00  0.00    -0.275 OA
ATOM     10  N   UNL     1       0.554  -4.790  -2.191  0.00  0.00    -0.270 N 
ATOM     11  C   UNL     1      -0.361  -8.176  -1.332  0.00  0.00    -0.005 A 
ATOM     12  C   UNL     1      -1.546  -7.769  -1.905  0.00  0.00    +0.026 A 
ATOM     13  C   UNL     1      -2.587  -8.693  -1.926  0.00  0.00    +0.041 A 
ATOM     14  C   UNL     1      -2.435  -9.959  -1.395  0.00  0.00    +0.022 A 
ATOM     15  C   UNL     1      -1.246 -10.374  -0.818  0.00  0.00    +0.025 A 
ATOM     16  C   UNL     1      -0.194  -9.457  -0.791  0.00  0.00    +0.038 A 
ATOM     17  N   UNL     1       1.086  -9.601  -0.283  0.00  0.00    -0.284 N 
ATOM     18  C   UNL     1       1.823  -8.482  -0.443  0.00  0.00    +0.233 C 
ATOM     19  O   UNL     1       2.974  -8.320  -0.095  0.00  0.00    -0.274 OA
ATOM     20 CL   UNL     1      -4.108  -8.244  -2.633  0.00  0.00    -0.084 Cl
ATOM     21  H   UNL     1       0.271  -3.937  -2.557  0.00  0.00    +0.156 HD
ATOM     22  H   UNL     1       1.414 -10.411   0.138  0.00  0.00    +0.155 HD
ENDROOT
BRANCH   1  27
ATOM     23  C   UNL     1      -0.426   1.459  -0.231  0.00  0.00    +0.044 C 
ATOM     24  C   UNL     1      -0.193  -0.025  -0.114  0.00  0.00    -0.050 A 
ATOM     25  C   UNL     1       0.796  -0.630  -0.868  0.00  0.00    +0.005 A 
ATOM     26  C   UNL     1       1.012  -1.990  -0.763  0.00  0.00    +0.028 A 
ATOM     27  C   UNL     1       0.236  -2.750   0.102  0.00  0.00    +0.070 A 
ATOM     28  C   UNL     1      -0.755  -2.140   0.858  0.00  0.00    -0.025 A 
ATOM     29  C   UNL     1      -0.964  -0.778   0.752  0.00  0.00    +0.008 A 
ATOM     30  C   UNL     1      -1.600  -2.961   1.798  0.00  0.00    +0.046 C 
ENDBRANCH   1  27
TORSDOF 1
