REMARK  Name = ZINC05012551
REMARK  5 active torsions:
REMARK  status: ('A' for Active; 'I' for Inactive)
REMARK    1  A    between atoms: C_1  and  C_2
REMARK    2  A    between atoms: C_8  and  C_24
REMARK    3  A    between atoms: C_9  and  C_11
REMARK    4  A    between atoms: N_13  and  C_14
REMARK    5  A    between atoms: C_17  and  N_21
REMARK                            x       y       z     vdW  Elec       q    Type
REMARK                         _______ _______ _______ _____ _____    ______ ____
ROOT
ATOM      1  C   UNL     1       5.974   0.908  -0.057  0.00  0.00    +0.284 C 
ATOM      2  O   UNL     1       6.652  -0.102  -0.066  0.00  0.00    -0.266 OA
ATOM      3  N   UNL     1       6.567   2.119  -0.051  0.00  0.00    -0.278 N 
ATOM      4  H   UNL     1       6.028   2.923  -0.110  0.00  0.00    +0.155 HD
ENDROOT
BRANCH   1  13
ATOM      5  C   UNL     1      -1.295  -0.773  -0.051  0.00  0.00    +0.044 C 
ATOM      6  C   UNL     1       0.003  -0.006  -0.049  0.00  0.00    -0.050 A 
ATOM      7  C   UNL     1      -0.017   1.382  -0.040  0.00  0.00    +0.007 A 
ATOM      8  C   UNL     1       1.158   2.103  -0.038  0.00  0.00    +0.047 A 
ATOM      9  C   UNL     1       2.378   1.438  -0.045  0.00  0.00    +0.136 A 
ATOM     10  C   UNL     1       2.392   0.030  -0.054  0.00  0.00    +0.024 A 
ATOM     11  C   UNL     1       1.190  -0.682  -0.056  0.00  0.00    +0.015 A 
ATOM     12  C   UNL     1       3.803  -0.352  -0.060  0.00  0.00    +0.008 A 
ATOM     13  C   UNL     1       4.508   0.809  -0.054  0.00  0.00    +0.194 A 
ATOM     14  O   UNL     1       3.658   1.857  -0.045  0.00  0.00    -0.450 OA
ATOM     15  C   UNL     1       4.363  -1.752  -0.070  0.00  0.00    +0.048 C 
ENDBRANCH   1  13
BRANCH   3  16
ATOM     16  C   UNL     1       7.959   2.215   0.041  0.00  0.00    +0.048 A 
ATOM     17  C   UNL     1       8.764   1.258  -0.564  0.00  0.00    +0.026 A 
ATOM     18  C   UNL     1      10.139   1.355  -0.471  0.00  0.00    +0.034 A 
ATOM     19  C   UNL     1      10.714   2.404   0.223  0.00  0.00    +0.127 A 
ATOM     20  C   UNL     1       9.917   3.359   0.826  0.00  0.00    +0.049 A 
ATOM     21  C   UNL     1       8.541   3.270   0.733  0.00  0.00    +0.041 A 
ATOM     22 BR   UNL     1       7.450   4.580   1.552  0.00  0.00    -0.048 Br
BRANCH  19  23
ATOM     23  N   UNL     1      12.188   2.505   0.319  0.00  0.00    +0.056 N 
ATOM     24  O   UNL     1      12.892   1.665  -0.212  0.00  0.00    -0.126 OA
ATOM     25  O   UNL     1      12.696   3.428   0.930  0.00  0.00    -0.126 OA
ENDBRANCH  19  23
ENDBRANCH   3  16
TORSDOF 3
