REMARK  Name = ZINC49305598
REMARK  11 active torsions:
REMARK  status: ('A' for Active; 'I' for Inactive)
REMARK    1  A    between atoms: C_1  and  N_2
REMARK    2  A    between atoms: N_2  and  C_3
REMARK    3  A    between atoms: N_2  and  C_22
REMARK    4  A    between atoms: C_3  and  C_4
REMARK    5  A    between atoms: C_4  and  C_5
REMARK    6  A    between atoms: C_5  and  N_6
REMARK    7  A    between atoms: C_7  and  C_9
REMARK    8  A    between atoms: N_11  and  C_12
REMARK    9  A    between atoms: C_17  and  C_18
REMARK   10  A    between atoms: C_18  and  C_19
REMARK   11  A    between atoms: C_22  and  C_23
REMARK                            x       y       z     vdW  Elec       q    Type
REMARK                         _______ _______ _______ _____ _____    ______ ____
ROOT
ATOM      1  N   UNL     1      -0.072  -0.224   4.891  0.00  0.00    -0.308 N 
ATOM      2  C   UNL     1       0.391  -0.571   6.108  0.00  0.00    +0.299 C 
ATOM      3  O   UNL     1       1.435  -1.182   6.209  0.00  0.00    -0.265 OA
ATOM      4  H   UNL     1      -0.906   0.264   4.810  0.00  0.00    +0.149 HD
ENDROOT
BRANCH   2   5
ATOM      5  C   UNL     1      -0.380  -0.203   7.333  0.00  0.00    +0.303 C 
ATOM      6  O   UNL     1      -1.423   0.408   7.232  0.00  0.00    -0.265 OA
ATOM      7  N   UNL     1       0.084  -0.549   8.550  0.00  0.00    -0.277 N 
ATOM      8  H   UNL     1       0.874  -1.106   8.628  0.00  0.00    +0.155 HD
BRANCH   7   9
ATOM      9  C   UNL     1      -0.575  -0.107   9.700  0.00  0.00    +0.037 A 
ATOM     10  C   UNL     1      -1.343   1.050   9.661  0.00  0.00    +0.023 A 
ATOM     11  C   UNL     1      -1.993   1.485  10.800  0.00  0.00    +0.002 A 
ATOM     12  C   UNL     1      -1.880   0.769  11.978  0.00  0.00    +0.000 A 
ATOM     13  C   UNL     1      -1.116  -0.383  12.020  0.00  0.00    +0.006 A 
ATOM     14  C   UNL     1      -0.469  -0.826  10.884  0.00  0.00    -0.017 A 
BRANCH  14  15
ATOM     15  C   UNL     1       0.358  -2.086  10.929  0.00  0.00    +0.132 C 
BRANCH  15  16
ATOM     16  C   UNL     1       1.800  -1.731  11.184  0.00  0.00    +0.215 C 
ATOM     17  O   UNL     1       2.125  -0.570  11.316  0.00  0.00    -0.276 OA
ATOM     18  N   UNL     1       2.729  -2.704  11.265  0.00  0.00    -0.329 N 
ATOM     19  H   UNL     1       2.469  -3.633  11.160  0.00  0.00    +0.145 HD
ATOM     20  H   UNL     1       3.657  -2.476  11.429  0.00  0.00    +0.145 HD
ENDBRANCH  15  16
ENDBRANCH  14  15
ENDBRANCH   7   9
ENDBRANCH   2   5
BRANCH   1  21
ATOM     21  C   UNL     1       0.685  -0.585   3.689  0.00  0.00    +0.103 C 
BRANCH  21  22
ATOM     22  C   UNL     1      -0.054  -0.077   2.449  0.00  0.00    +0.000 C 
BRANCH  22  23
ATOM     23  C   UNL     1       0.736  -0.454   1.194  0.00  0.00    -0.077 C 
BRANCH  23  25
ATOM     24  C   UNL     1      -0.003   1.502   0.019  0.00  0.00    -0.096 C 
ATOM     25  N   UNL     1       0.026   0.033   0.004  0.00  0.00    +0.381 N 
ATOM     26  H   UNL     1      -0.918  -0.322   0.007  0.00  0.00    -0.082 HD
BRANCH  25  27
ATOM     27  C   UNL     1       0.720  -0.431  -1.204  0.00  0.00    -0.043 C 
BRANCH  27  28
ATOM     28  C   UNL     1      -0.074  -0.036  -2.423  0.00  0.00    -0.064 A 
ATOM     29  C   UNL     1      -1.040  -0.888  -2.924  0.00  0.00    +0.002 A 
ATOM     30  C   UNL     1      -1.768  -0.525  -4.042  0.00  0.00    +0.000 A 
ATOM     31  C   UNL     1      -1.530   0.689  -4.658  0.00  0.00    +0.000 A 
ATOM     32  C   UNL     1      -0.564   1.542  -4.156  0.00  0.00    +0.000 A 
ATOM     33  C   UNL     1       0.161   1.181  -3.035  0.00  0.00    +0.002 A 
ENDBRANCH  27  28
ENDBRANCH  25  27
ENDBRANCH  23  25
ENDBRANCH  22  23
ENDBRANCH  21  22
ENDBRANCH   1  21
TORSDOF 10
