REMARK  Name = ZINC27519134
REMARK  4 active torsions:
REMARK  status: ('A' for Active; 'I' for Inactive)
REMARK    1  A    between atoms: C_4  and  N_7
REMARK    2  A    between atoms: C_8  and  C_10
REMARK    3  A    between atoms: N_20  and  N_21
REMARK    4  A    between atoms: C_22  and  C_24
REMARK                            x       y       z     vdW  Elec       q    Type
REMARK                         _______ _______ _______ _____ _____    ______ ____
ROOT
ATOM      1  C   UNL     1       1.247   1.947   0.160  0.00  0.00    +0.099 A 
ATOM      2  C   UNL     1       2.451   1.301   0.318  0.00  0.00    +0.030 A 
ATOM      3  C   UNL     1       3.669   2.118   0.283  0.00  0.00    +0.018 A 
ATOM      4  C   UNL     1       4.928   1.521   0.160  0.00  0.00    +0.011 A 
ATOM      5  C   UNL     1       6.057   2.311   0.130  0.00  0.00    +0.001 A 
ATOM      6  C   UNL     1       5.949   3.690   0.219  0.00  0.00    +0.004 A 
ATOM      7  C   UNL     1       4.713   4.293   0.343  0.00  0.00    +0.047 A 
ATOM      8  C   UNL     1       3.565   3.517   0.378  0.00  0.00    +0.137 A 
ATOM      9  O   UNL     1       2.344   4.095   0.503  0.00  0.00    -0.437 OA
ATOM     10  C   UNL     1       1.285   3.416  -0.019  0.00  0.00    +0.224 A 
ATOM     11  N   UNL     1       0.334   4.041  -0.659  0.00  0.00    -0.273 N 
ATOM     12  H   UNL     1      -0.513   3.475  -1.075  0.00  0.00    +0.188 HD
ENDROOT
BRANCH   1  14
ATOM     13  N   UNL     1      -1.191   1.870   0.018  0.00  0.00    -0.281 N 
ATOM     14  C   UNL     1      -0.027   1.209   0.175  0.00  0.00    +0.253 C 
ATOM     15  O   UNL     1      -0.029   0.002   0.324  0.00  0.00    -0.270 OA
ATOM     16  H   UNL     1      -1.197   2.969  -0.029  0.00  0.00    +0.155 HD
BRANCH  13  20
ATOM     17  C   UNL     1      -4.764  -0.247  -0.292  0.00  0.00    +0.000 A 
ATOM     18  C   UNL     1      -4.748   0.993   0.319  0.00  0.00    +0.002 A 
ATOM     19  C   UNL     1      -3.565   1.698   0.424  0.00  0.00    +0.023 A 
ATOM     20  C   UNL     1      -2.390   1.159  -0.086  0.00  0.00    +0.034 A 
ATOM     21  C   UNL     1      -2.411  -0.085  -0.704  0.00  0.00    +0.023 A 
ATOM     22  C   UNL     1      -3.597  -0.786  -0.801  0.00  0.00    +0.002 A 
ENDBRANCH  13  20
ENDBRANCH   1  14
BRANCH  11  23
ATOM     23  N   UNL     1       0.391   5.432  -0.816  0.00  0.00    -0.223 N 
ATOM     24  C   UNL     1      -0.591   6.077  -1.476  0.00  0.00    +0.262 C 
ATOM     25  O   UNL     1      -1.528   5.451  -1.936  0.00  0.00    -0.269 OA
ATOM     26  H   UNL     1       1.238   5.997  -0.401  0.00  0.00    +0.175 HD
BRANCH  24  27
ATOM     27  C   UNL     1      -0.530   7.544  -1.642  0.00  0.00    +0.039 A 
ATOM     28  C   UNL     1      -1.545   8.215  -2.325  0.00  0.00    +0.013 A 
ATOM     29  C   UNL     1      -1.483   9.585  -2.477  0.00  0.00    +0.002 A 
ATOM     30  C   UNL     1      -0.416  10.294  -1.953  0.00  0.00    +0.015 A 
ATOM     31  C   UNL     1       0.594   9.635  -1.274  0.00  0.00    +0.019 A 
ATOM     32  C   UNL     1       0.541   8.265  -1.111  0.00  0.00    +0.028 A 
ATOM     33 BR   UNL     1       2.046  10.615  -0.561  0.00  0.00    -0.050 Br
ENDBRANCH  24  27
ENDBRANCH  11  23
TORSDOF 4
