REMARK  Name = ZINC64353790
REMARK  10 active torsions:
REMARK  status: ('A' for Active; 'I' for Inactive)
REMARK    1  A    between atoms: C_1  and  O_2
REMARK    2  A    between atoms: O_2  and  C_3
REMARK    3  A    between atoms: C_6  and  C_9
REMARK    4  A    between atoms: C_9  and  C_11
REMARK    5  A    between atoms: C_9  and  C_26
REMARK    6  A    between atoms: C_11  and  N_12
REMARK    7  A    between atoms: C_13  and  C_15
REMARK    8  A    between atoms: C_15  and  S_16
REMARK    9  A    between atoms: S_16  and  C_17
REMARK   10  A    between atoms: C_21  and  C_23
REMARK                            x       y       z     vdW  Elec       q    Type
REMARK                         _______ _______ _______ _____ _____    ______ ____
ROOT
ATOM      1  C   UNL     1       2.505  -2.503  -4.381  0.00  0.00    +0.064 C 
ENDROOT
BRANCH   1   2
ATOM      2  C   UNL     1       3.645  -3.357  -3.889  0.00  0.00    -0.033 C 
ATOM      3  C   UNL     1       4.952  -3.232  -4.212  0.00  0.00    -0.000 A 
ATOM      4  C   UNL     1       5.677  -2.300  -5.084  0.00  0.00    +0.010 A 
ATOM      5  C   UNL     1       7.017  -2.426  -5.210  0.00  0.00    +0.001 A 
ATOM      6  C   UNL     1       7.731  -3.423  -4.531  0.00  0.00    +0.002 A 
ATOM      7  C   UNL     1       7.135  -4.316  -3.712  0.00  0.00    +0.026 A 
ATOM      8  C   UNL     1       5.729  -4.275  -3.505  0.00  0.00    +0.043 A 
ATOM      9  N   UNL     1       4.932  -5.017  -2.774  0.00  0.00    -0.380 N 
ATOM     10  C   UNL     1       3.560  -4.523  -2.930  0.00  0.00    +0.145 C 
ATOM     11  H   UNL     1       5.205  -5.764  -2.220  0.00  0.00    +0.160 HD
ENDBRANCH   1   2
BRANCH   1  15
ATOM     12  C   UNL     1       0.606  -0.607  -1.056  0.00  0.00    +0.120 A 
ATOM     13  C   UNL     1       1.173   0.161  -2.062  0.00  0.00    +0.046 A 
ATOM     14  C   UNL     1       1.786  -0.455  -3.136  0.00  0.00    +0.008 A 
ATOM     15  C   UNL     1       1.835  -1.835  -3.209  0.00  0.00    -0.038 A 
ATOM     16  C   UNL     1       1.270  -2.602  -2.207  0.00  0.00    +0.008 A 
ATOM     17  C   UNL     1       0.661  -1.992  -1.128  0.00  0.00    +0.046 A 
BRANCH  12  19
ATOM     18  C   UNL     1      -0.017   1.425   0.010  0.00  0.00    +0.277 C 
ATOM     19  O   UNL     1       0.002  -0.004   0.002  0.00  0.00    -0.495 OA
ENDBRANCH  12  19
ENDBRANCH   1  15
BRANCH   1  20
ATOM     20  C   UNL     1       1.490  -3.382  -5.115  0.00  0.00    +0.116 C 
BRANCH  20  21
ATOM     21  N   UNL     1       2.107  -3.938  -6.322  0.00  0.00    -0.314 N 
ATOM     22  C   UNL     1       1.395  -4.747  -7.131  0.00  0.00    +0.223 C 
ATOM     23  O   UNL     1       0.244  -5.016  -6.860  0.00  0.00    -0.275 OA
ATOM     24  H   UNL     1       3.027  -3.722  -6.539  0.00  0.00    +0.149 HD
BRANCH  22  25
ATOM     25  C   UNL     1       2.030  -5.319  -8.373  0.00  0.00    +0.173 C 
BRANCH  25  26
ATOM     26  S   UNL     1       0.827  -6.361  -9.243  0.00  0.00    -0.077 S 
BRANCH  26  27
ATOM     27  C   UNL     1       1.709  -6.946 -10.651  0.00  0.00    +0.185 A 
ATOM     28  N   UNL     1       1.223  -7.761 -11.612  0.00  0.00    -0.254 N 
ATOM     29  H   UNL     1       0.329  -8.135 -11.661  0.00  0.00    +0.191 HD
ATOM     30  N   UNL     1       2.269  -7.961 -12.527  0.00  0.00    -0.157 NA
ATOM     31  C   UNL     1       3.295  -7.282 -12.089  0.00  0.00    +0.155 A 
ATOM     32  N   UNL     1       2.958  -6.662 -10.957  0.00  0.00    -0.205 NA
BRANCH  31  33
ATOM     33  C   UNL     1       4.643  -7.205 -12.758  0.00  0.00    +0.059 C 
ATOM     34  C   UNL     1       4.773  -7.814 -14.156  0.00  0.00    +0.012 C 
ATOM     35  C   UNL     1       5.410  -8.514 -12.954  0.00  0.00    +0.012 C 
ENDBRANCH  31  33
ENDBRANCH  26  27
ENDBRANCH  25  26
ENDBRANCH  22  25
ENDBRANCH  20  21
ENDBRANCH   1  20
TORSDOF 9
