REMARK  Name = ZINC36016698
REMARK  9 active torsions:
REMARK  status: ('A' for Active; 'I' for Inactive)
REMARK    1  A    between atoms: C_1  and  C_2
REMARK    2  A    between atoms: C_5  and  N_8
REMARK    3  A    between atoms: C_11  and  C_13
REMARK    4  A    between atoms: C_14  and  N_19
REMARK    5  A    between atoms: C_16  and  C_18
REMARK    6  A    between atoms: N_19  and  C_20
REMARK    7  A    between atoms: C_23  and  N_26
REMARK    8  A    between atoms: N_26  and  S_27
REMARK    9  A    between atoms: S_27  and  C_30
REMARK                            x       y       z     vdW  Elec       q    Type
REMARK                         _______ _______ _______ _____ _____    ______ ____
ROOT
ATOM      1  N   UNL     1       0.818  -8.682   1.012  0.00  0.00    -0.326 N 
ATOM      2  H   UNL     1       0.350  -8.916   0.195  0.00  0.00    +0.148 HD
ENDROOT
BRANCH   1   9
ATOM      3  N   UNL     1       0.472  -4.214  -0.216  0.00  0.00    -0.214 N 
ATOM      4  C   UNL     1       0.905  -4.996   0.817  0.00  0.00    +0.169 A 
ATOM      5  C   UNL     1       0.668  -6.331   0.435  0.00  0.00    +0.082 A 
ATOM      6  C   UNL     1       0.085  -6.296  -0.851  0.00  0.00    +0.073 A 
ATOM      7  N   UNL     1      -0.030  -5.052  -1.219  0.00  0.00    -0.169 NA
ATOM      8  C   UNL     1      -0.338  -7.497  -1.658  0.00  0.00    +0.068 C 
ATOM      9  C   UNL     1       1.027  -7.355   1.332  0.00  0.00    +0.134 A 
ATOM     10  N   UNL     1       1.572  -7.014   2.495  0.00  0.00    -0.217 NA
ATOM     11  C   UNL     1       1.775  -5.747   2.809  0.00  0.00    +0.130 A 
ATOM     12  N   UNL     1       1.456  -4.756   2.005  0.00  0.00    -0.213 NA
ATOM     13  C   UNL     1       2.396  -5.423   4.144  0.00  0.00    +0.088 C 
BRANCH   3  18
ATOM     14  C   UNL     1       0.656   1.455  -0.400  0.00  0.00    +0.044 C 
ATOM     15  C   UNL     1       0.607  -0.051  -0.351  0.00  0.00    -0.050 A 
ATOM     16  C   UNL     1       0.798  -0.785  -1.507  0.00  0.00    +0.005 A 
ATOM     17  C   UNL     1       0.754  -2.165  -1.466  0.00  0.00    +0.028 A 
ATOM     18  C   UNL     1       0.518  -2.815  -0.261  0.00  0.00    +0.068 A 
ATOM     19  C   UNL     1       0.327  -2.074   0.898  0.00  0.00    +0.028 A 
ATOM     20  C   UNL     1       0.377  -0.695   0.851  0.00  0.00    +0.005 A 
ENDBRANCH   3  18
ENDBRANCH   1   9
BRANCH   1  21
ATOM     21  C   UNL     1       1.303  -9.737   1.905  0.00  0.00    +0.072 C 
ATOM     22  C   UNL     1       2.768 -10.042   1.585  0.00  0.00    +0.024 C 
ATOM     23  C   UNL     1       2.886 -10.510   0.133  0.00  0.00    +0.022 C 
ATOM     24  C   UNL     1       2.046 -11.773  -0.066  0.00  0.00    +0.077 C 
ATOM     25  C   UNL     1       0.582 -11.468   0.254  0.00  0.00    +0.022 C 
ATOM     26  C   UNL     1       0.464 -11.000   1.706  0.00  0.00    +0.024 C 
BRANCH  24  27
ATOM     27  N   UNL     1       2.160 -12.221  -1.456  0.00  0.00    -0.187 NA
ATOM     28  H   UNL     1       2.236 -11.569  -2.171  0.00  0.00    +0.148 HD
BRANCH  27  29
ATOM     29  S   UNL     1       2.157 -13.839  -1.808  0.00  0.00    +0.059 S 
ATOM     30  O   UNL     1       2.252 -13.947  -3.222  0.00  0.00    -0.153 OA
ATOM     31  O   UNL     1       3.096 -14.447  -0.932  0.00  0.00    -0.153 OA
BRANCH  29  32
ATOM     32  C   UNL     1       0.572 -14.466  -1.360  0.00  0.00    +0.105 A 
ATOM     33  C   UNL     1       0.355 -14.947  -0.083  0.00  0.00    +0.030 A 
ATOM     34  C   UNL     1      -0.887 -15.440   0.269  0.00  0.00    +0.022 A 
ATOM     35  C   UNL     1      -1.914 -15.451  -0.658  0.00  0.00    +0.041 A 
ATOM     36  C   UNL     1      -1.697 -14.970  -1.937  0.00  0.00    +0.022 A 
ATOM     37  C   UNL     1      -0.455 -14.473  -2.285  0.00  0.00    +0.030 A 
ATOM     38 CL   UNL     1      -3.475 -16.070  -0.217  0.00  0.00    -0.084 Cl
ENDBRANCH  29  32
ENDBRANCH  27  29
ENDBRANCH  24  27
ENDBRANCH   1  21
TORSDOF 6
