REMARK  Name = ZINC43959491
REMARK  5 active torsions:
REMARK  status: ('A' for Active; 'I' for Inactive)
REMARK    1  A    between atoms: C_4  and  C_7
REMARK    2  A    between atoms: N_9  and  C_10
REMARK    3  A    between atoms: C_16  and  C_20
REMARK    4  A    between atoms: C_20  and  C_22
REMARK    5  A    between atoms: C_20  and  N_25
REMARK                            x       y       z     vdW  Elec       q    Type
REMARK                         _______ _______ _______ _____ _____    ______ ____
ROOT
ATOM      1  C   UNL     1       4.910  -2.758  -0.152  0.00  0.00    +0.034 A 
ATOM      2  C   UNL     1       6.133  -2.089  -0.149  0.00  0.00    +0.025 A 
ATOM      3  C   UNL     1       7.314  -2.788  -0.253  0.00  0.00    +0.028 A 
ATOM      4  C   UNL     1       7.295  -4.175  -0.362  0.00  0.00    +0.047 A 
ATOM      5  C   UNL     1       6.064  -4.853  -0.365  0.00  0.00    +0.004 A 
ATOM      6  C   UNL     1       4.871  -4.136  -0.254  0.00  0.00    +0.033 A 
ATOM      7  C   UNL     1       6.386  -6.277  -0.492  0.00  0.00    -0.025 A 
ATOM      8  C   UNL     1       7.723  -6.373  -0.555  0.00  0.00    +0.086 A 
ATOM      9  N   UNL     1       8.284  -5.128  -0.479  0.00  0.00    -0.360 N 
ATOM     10  H   UNL     1       9.236  -4.943  -0.504  0.00  0.00    +0.165 HD
ENDROOT
BRANCH   1  13
ATOM     11  C   UNL     1       3.613  -0.819  -0.624  0.00  0.00    +0.248 C 
ATOM     12  O   UNL     1       4.579  -0.318  -1.165  0.00  0.00    -0.270 OA
ATOM     13  N   UNL     1       3.717  -2.032  -0.046  0.00  0.00    -0.281 N 
ATOM     14  H   UNL     1       2.966  -2.402   0.444  0.00  0.00    +0.155 HD
BRANCH  11  18
ATOM     15  C   UNL     1      -0.094   1.254  -0.555  0.00  0.00    +0.000 A 
ATOM     16  C   UNL     1       1.004   1.827  -1.171  0.00  0.00    +0.001 A 
ATOM     17  C   UNL     1       2.211   1.159  -1.197  0.00  0.00    +0.013 A 
ATOM     18  C   UNL     1       2.323  -0.097  -0.599  0.00  0.00    +0.037 A 
ATOM     19  C   UNL     1       1.211  -0.669   0.021  0.00  0.00    +0.013 A 
ATOM     20  C   UNL     1       0.010   0.009   0.040  0.00  0.00    +0.001 A 
ENDBRANCH  11  18
ENDBRANCH   1  13
BRANCH   7  21
ATOM     21  C   UNL     1       5.402  -7.417  -0.542  0.00  0.00    +0.080 C 
BRANCH  21  22
ATOM     22  N   UNL     1       6.056  -8.649  -0.080  0.00  0.00    +0.392 N 
ATOM     23  C   UNL     1       5.100  -9.759  -0.136  0.00  0.00    -0.072 C 
ATOM     24  C   UNL     1       5.736 -11.057   0.337  0.00  0.00    -0.007 C 
ATOM     25  C   UNL     1       6.304 -10.897   1.751  0.00  0.00    +0.011 C 
ATOM     26  C   UNL     1       7.296  -9.728   1.717  0.00  0.00    +0.020 C 
ATOM     27  C   UNL     1       6.524  -8.464   1.302  0.00  0.00    -0.068 C 
ATOM     28  C   UNL     1       8.346 -10.000   0.664  0.00  0.00    +0.023 A 
ATOM     29  C   UNL     1       9.579  -9.461   0.853  0.00  0.00    +0.022 A 
ATOM     30  C   UNL     1      10.579  -9.619  -0.113  0.00  0.00    +0.007 A 
ATOM     31  C   UNL     1      10.288 -10.302  -1.258  0.00  0.00    +0.070 A 
ATOM     32  C   UNL     1       9.005 -10.843  -1.422  0.00  0.00    +0.251 A 
ATOM     33  O   UNL     1       8.714 -11.402  -2.467  0.00  0.00    -0.268 OA
ATOM     34  N   UNL     1       8.084 -10.751  -0.431  0.00  0.00    -0.312 N 
ATOM     35  C   UNL     1       6.849 -11.512  -0.593  0.00  0.00    +0.126 C 
ATOM     36  H   UNL     1       6.843  -8.854  -0.676  0.00  0.00    -0.080 HD
ENDBRANCH  21  22
BRANCH  21  37
ATOM     37  C   UNL     1       4.921  -7.605  -1.958  0.00  0.00    +0.347 C 
ATOM     38  O   UNL     1       5.518  -8.356  -2.710  0.00  0.00    -0.248 OA
ATOM     39  O   UNL     1       3.935  -7.005  -2.351  0.00  0.00    -0.248 OA
ENDBRANCH  21  37
ENDBRANCH   7  21
TORSDOF 5
