REMARK  Name = ZINC12192649
REMARK  7 active torsions:
REMARK  status: ('A' for Active; 'I' for Inactive)
REMARK    1  A    between atoms: C_1  and  N_44
REMARK    2  A    between atoms: C_2  and  C_3
REMARK    3  A    between atoms: C_2  and  N_44
REMARK    4  A    between atoms: C_3  and  C_4
REMARK    5  A    between atoms: C_15  and  C_16
REMARK    6  A    between atoms: C_15  and  N_44
REMARK    7  A    between atoms: C_18  and  C_21
REMARK                            x       y       z     vdW  Elec       q    Type
REMARK                         _______ _______ _______ _____ _____    ______ ____
ROOT
ATOM      1  C   UNL     1       4.718   0.066  -1.486  0.00  0.00    -0.096 C 
ATOM      2  N   UNL     1       4.645   1.512  -1.189  0.00  0.00    +0.384 N 
ATOM      3  H   UNL     1       5.042   1.682  -0.257  0.00  0.00    -0.082 HD
ENDROOT
BRANCH   2   4
ATOM      4  C   UNL     1       3.236   1.960  -1.200  0.00  0.00    -0.071 C 
BRANCH   4   5
ATOM      5  C   UNL     1       2.507   1.323  -0.014  0.00  0.00    +0.056 C 
BRANCH   5   6
ATOM      6  C   UNL     1       1.073   1.787   0.001  0.00  0.00    +0.106 A 
ATOM      7  N   UNL     1      -0.011   0.966   0.007  0.00  0.00    -0.342 N 
ATOM      8  H   UNL     1       0.003  -0.034   0.006  0.00  0.00    +0.167 HD
ATOM      9  C   UNL     1      -1.135   1.769   0.016  0.00  0.00    +0.066 A 
ATOM     10  C   UNL     1      -2.500   1.519   0.032  0.00  0.00    +0.029 A 
ATOM     11  C   UNL     1      -3.390   2.571   0.046  0.00  0.00    +0.022 A 
ATOM     12  C   UNL     1      -2.930   3.882   0.048  0.00  0.00    +0.043 A 
ATOM     13  C   UNL     1      -1.580   4.149   0.037  0.00  0.00    +0.050 A 
ATOM     14  C   UNL     1      -0.664   3.093   0.024  0.00  0.00    +0.090 A 
ATOM     15  N   UNL     1       0.693   3.031   0.011  0.00  0.00    -0.233 NA
ATOM     16 CL   UNL     1      -4.067   5.193   0.065  0.00  0.00    -0.083 Cl
ENDBRANCH   5   6
ENDBRANCH   4   5
ENDBRANCH   2   4
BRANCH   2  17
ATOM     17  C   UNL     1       5.424   2.273  -2.188  0.00  0.00    +0.021 C 
BRANCH  17  18
ATOM     18  C   UNL     1       6.886   1.959  -2.006  0.00  0.00    +0.211 A 
ATOM     19  N   UNL     1       7.557   1.006  -2.603  0.00  0.00    -0.193 NA
ATOM     20  C   UNL     1       8.822   1.104  -2.135  0.00  0.00    +0.202 A 
ATOM     21  N   UNL     1       8.845   2.102  -1.290  0.00  0.00    -0.056 NA
ATOM     22  O   UNL     1       7.744   2.605  -1.210  0.00  0.00    -0.340 OA
BRANCH  20  23
ATOM     23  C   UNL     1       9.970   0.242  -2.511  0.00  0.00    +0.024 A 
ATOM     24  C   UNL     1      11.225   0.461  -1.945  0.00  0.00    +0.012 A 
ATOM     25  C   UNL     1      12.289  -0.343  -2.297  0.00  0.00    +0.002 A 
ATOM     26  C   UNL     1      12.113  -1.367  -3.211  0.00  0.00    +0.020 A 
ATOM     27  C   UNL     1      10.870  -1.590  -3.777  0.00  0.00    +0.042 A 
ATOM     28  C   UNL     1       9.796  -0.794  -3.427  0.00  0.00    +0.031 A 
ATOM     29 CL   UNL     1      10.657  -2.877  -4.922  0.00  0.00    -0.084 Cl
ENDBRANCH  20  23
ENDBRANCH  17  18
ENDBRANCH   2  17
TORSDOF 6
