REMARK  Name = ZINC09008326
REMARK  16 active torsions:
REMARK  status: ('A' for Active; 'I' for Inactive)
REMARK    1  A    between atoms: C_1  and  C_2
REMARK    2  A    between atoms: C_2  and  N_67
REMARK    3  A    between atoms: C_3  and  C_4
REMARK    4  A    between atoms: C_3  and  N_67
REMARK    5  A    between atoms: C_5  and  C_6
REMARK    6  A    between atoms: C_5  and  N_67
REMARK    7  A    between atoms: C_6  and  C_7
REMARK    8  A    between atoms: C_7  and  N_8
REMARK    9  A    between atoms: C_9  and  C_30
REMARK   10  A    between atoms: C_12  and  C_13
REMARK   11  A    between atoms: C_12  and  O_25
REMARK   12  A    between atoms: C_14  and  C_24
REMARK   13  A    between atoms: C_15  and  C_20
REMARK   14  A    between atoms: C_18  and  C_19
REMARK   15  A    between atoms: C_20  and  O_22
REMARK   16  A    between atoms: O_22  and  C_23
REMARK                            x       y       z     vdW  Elec       q    Type
REMARK                         _______ _______ _______ _____ _____    ______ ____
ROOT
ATOM      1  N   UNL     1       3.004   3.809   3.808  0.00  0.00    -0.284 N 
ATOM      2  C   UNL     1       4.327   3.818   3.177  0.00  0.00    +0.144 C 
ATOM      3  C   UNL     1       4.912   5.190   3.419  0.00  0.00    +0.071 C 
ATOM      4  C   UNL     1       6.147   5.652   3.001  0.00  0.00    +0.135 C 
ATOM      5  C   UNL     1       3.955   5.898   4.157  0.00  0.00    +0.249 C 
ATOM      6  O   UNL     1       4.062   7.046   4.551  0.00  0.00    -0.282 OA
ATOM      7  C   UNL     1       2.785   5.006   4.378  0.00  0.00    +0.288 C 
ATOM      8  O   UNL     1       1.780   5.314   4.984  0.00  0.00    -0.266 OA
ENDROOT
BRANCH   4   9
ATOM      9  C   UNL     1       6.568   7.021   3.327  0.00  0.00    +0.041 A 
ATOM     10  C   UNL     1       7.582   7.394   4.241  0.00  0.00    -0.008 A 
ATOM     11  C   UNL     1       7.643   8.757   4.234  0.00  0.00    +0.128 A 
ATOM     12  N   UNL     1       6.695   9.230   3.353  0.00  0.00    -0.352 N 
ATOM     13  H   UNL     1       6.524  10.165   3.160  0.00  0.00    +0.166 HD
ATOM     14  C   UNL     1       6.044   8.193   2.803  0.00  0.00    +0.024 A 
ATOM     15  C   UNL     1       4.933   8.286   1.789  0.00  0.00    +0.064 C 
ATOM     16  C   UNL     1       8.434   6.463   5.064  0.00  0.00    +0.047 C 
BRANCH  11  17
ATOM     17  C   UNL     1       8.558   9.579   5.033  0.00  0.00    +0.356 C 
ATOM     18  O   UNL     1       9.357   9.047   5.781  0.00  0.00    -0.243 OA
BRANCH  17  19
ATOM     19  O   UNL     1       8.514  10.923   4.938  0.00  0.00    -0.463 OA
ATOM     20  C   UNL     1       9.449  11.673   5.758  0.00  0.00    +0.280 C 
ENDBRANCH  17  19
ENDBRANCH  11  17
ENDBRANCH   4   9
BRANCH   2  21
ATOM     21  C   UNL     1       5.203   2.763   3.802  0.00  0.00    -0.022 A 
ATOM     22  C   UNL     1       5.167   2.554   5.168  0.00  0.00    +0.007 A 
ATOM     23  C   UNL     1       5.966   1.583   5.740  0.00  0.00    +0.020 A 
ATOM     24  C   UNL     1       6.811   0.827   4.947  0.00  0.00    +0.041 A 
ATOM     25  C   UNL     1       6.851   1.040   3.581  0.00  0.00    +0.020 A 
ATOM     26  C   UNL     1       6.047   2.007   3.009  0.00  0.00    +0.007 A 
ATOM     27 CL   UNL     1       7.820  -0.389   5.667  0.00  0.00    -0.084 Cl
ENDBRANCH   2  21
BRANCH   4  28
ATOM     28  O   UNL     1       6.965   4.845   2.292  0.00  0.00    -0.506 OA
ATOM     29  H   UNL     1       7.809   5.335   2.073  0.00  0.00    +0.292 HD
ENDBRANCH   4  28
BRANCH   1  30
ATOM     30  C   UNL     1       2.074   2.677   3.820  0.00  0.00    +0.107 C 
BRANCH  30  31
ATOM     31  C   UNL     1       1.156   2.758   2.598  0.00  0.00    +0.000 C 
BRANCH  31  32
ATOM     32  C   UNL     1       0.185   1.576   2.611  0.00  0.00    -0.077 C 
BRANCH  32  33
ATOM     33  N   UNL     1      -0.708   1.680   1.437  0.00  0.00    +0.379 N 
ATOM     34  H   UNL     1      -1.123   2.619   1.416  0.00  0.00    -0.082 HD
BRANCH  33  36
ATOM     35  C   UNL     1       0.769   0.110   0.227  0.00  0.00    -0.017 C 
ATOM     36  C   UNL     1       0.065   1.468   0.195  0.00  0.00    -0.082 C 
ENDBRANCH  33  36
BRANCH  33  37
ATOM     37  C   UNL     1      -1.791   0.679   1.536  0.00  0.00    -0.082 C 
ATOM     38  C   UNL     1      -2.832   0.970   0.454  0.00  0.00    -0.017 C 
ENDBRANCH  33  37
ENDBRANCH  32  33
ENDBRANCH  31  32
ENDBRANCH  30  31
ENDBRANCH   1  30
TORSDOF 11
