REMARK  Name = ZINC23968682
REMARK  5 active torsions:
REMARK  status: ('A' for Active; 'I' for Inactive)
REMARK    1  A    between atoms: C_1  and  C_2
REMARK    2  A    between atoms: C_7  and  C_11
REMARK    3  A    between atoms: N_16  and  C_19
REMARK    4  A    between atoms: C_19  and  C_20
REMARK    5  A    between atoms: C_19  and  C_27
REMARK                            x       y       z     vdW  Elec       q    Type
REMARK                         _______ _______ _______ _____ _____    ______ ____
ROOT
ATOM      1  C   UNL     1       5.412   1.131  -0.113  0.00  0.00    +0.267 C 
ATOM      2  O   UNL     1       6.049   0.994   0.914  0.00  0.00    -0.268 OA
ATOM      3  N   UNL     1       4.138   1.567  -0.062  0.00  0.00    -0.294 N 
ATOM      4  C   UNL     1       3.472   1.805   1.228  0.00  0.00    +0.123 C 
ATOM      5  C   UNL     1       2.128   1.068   1.225  0.00  0.00    +0.104 C 
ATOM      6  N   UNL     1       1.355   1.471   0.043  0.00  0.00    -0.289 NA
ATOM      7  C   UNL     1       2.036   1.080  -1.198  0.00  0.00    +0.104 C 
ATOM      8  C   UNL     1       3.376   1.818  -1.295  0.00  0.00    +0.123 C 
ENDROOT
BRANCH   1  15
ATOM      9  C   UNL     1       7.234   0.158  -7.200  0.00  0.00    +0.044 C 
ATOM     10  C   UNL     1       7.295   0.156  -5.694  0.00  0.00    -0.046 A 
ATOM     11  C   UNL     1       8.425  -0.359  -5.034  0.00  0.00    +0.021 A 
ATOM     12  C   UNL     1       8.484  -0.363  -3.687  0.00  0.00    +0.093 A 
ATOM     13  N   UNL     1       7.450   0.132  -2.943  0.00  0.00    -0.306 N 
ATOM     14  C   UNL     1       7.262   0.250  -1.599  0.00  0.00    +0.125 A 
ATOM     15  C   UNL     1       6.034   0.818  -1.414  0.00  0.00    +0.144 A 
ATOM     16  N   UNL     1       5.492   1.050  -2.624  0.00  0.00    -0.223 NA
ATOM     17  C   UNL     1       6.334   0.641  -3.558  0.00  0.00    +0.139 A 
ATOM     18  C   UNL     1       6.259   0.652  -4.968  0.00  0.00    +0.050 A 
ENDBRANCH   1  15
BRANCH   6  19
ATOM     19  C   UNL     1      -0.006   0.920   0.092  0.00  0.00    +0.117 C 
BRANCH  19  20
ATOM     20  C   UNL     1      -0.768   1.353  -1.134  0.00  0.00    -0.026 A 
ATOM     21  C   UNL     1      -0.625   2.640  -1.617  0.00  0.00    +0.008 A 
ATOM     22  C   UNL     1      -1.319   3.037  -2.745  0.00  0.00    +0.038 A 
ATOM     23  C   UNL     1      -2.166   2.148  -3.384  0.00  0.00    +0.123 A 
ATOM     24  C   UNL     1      -2.312   0.860  -2.897  0.00  0.00    +0.038 A 
ATOM     25  C   UNL     1      -1.613   0.464  -1.772  0.00  0.00    +0.008 A 
ATOM     26  F   UNL     1      -2.849   2.536  -4.484  0.00  0.00    -0.205 F 
ENDBRANCH  19  20
BRANCH  19  27
ATOM     27  C   UNL     1      -0.709   1.427   1.325  0.00  0.00    -0.026 A 
ATOM     28  C   UNL     1      -0.536   2.737   1.729  0.00  0.00    +0.008 A 
ATOM     29  C   UNL     1      -1.184   3.205   2.856  0.00  0.00    +0.038 A 
ATOM     30  C   UNL     1      -1.999   2.357   3.588  0.00  0.00    +0.123 A 
ATOM     31  C   UNL     1      -2.167   1.042   3.185  0.00  0.00    +0.038 A 
ATOM     32  C   UNL     1      -1.522   0.579   2.054  0.00  0.00    +0.008 A 
ATOM     33  F   UNL     1      -2.629   2.811   4.693  0.00  0.00    -0.205 F 
ENDBRANCH  19  27
ENDBRANCH   6  19
TORSDOF 4
