REMARK  Name = ZINC00055240
REMARK  1 active torsions:
REMARK  status: ('A' for Active; 'I' for Inactive)
REMARK    1  A    between atoms: C_6  and  C_7
REMARK                            x       y       z     vdW  Elec       q    Type
REMARK                         _______ _______ _______ _____ _____    ______ ____
ROOT
ATOM      1  C   UNL     1      -2.505   1.003   0.019  0.00  0.00    +0.167 A 
ATOM      2  N   UNL     1      -2.491  -0.327   0.006  0.00  0.00    -0.195 NA
ATOM      3  C   UNL     1      -3.636  -1.003   0.013  0.00  0.00    +0.217 A 
ATOM      4  N   UNL     1      -4.793  -0.350   0.022  0.00  0.00    -0.181 NA
ATOM      5  C   UNL     1      -4.808   0.979   0.029  0.00  0.00    +0.217 A 
ATOM      6  N   UNL     1      -3.663   1.656   0.028  0.00  0.00    -0.195 NA
ATOM      7  N   UNL     1      -6.010   1.656   0.039  0.00  0.00    -0.327 N 
ATOM      8  N   UNL     1      -3.622  -2.383   0.006  0.00  0.00    -0.327 N 
ATOM      9  H   UNL     1      -6.020   2.626   0.044  0.00  0.00    +0.145 HD
ATOM     10  H   UNL     1      -6.845   1.162   0.040  0.00  0.00    +0.145 HD
ATOM     11  H   UNL     1      -4.457  -2.877   0.007  0.00  0.00    +0.145 HD
ATOM     12  H   UNL     1      -2.777  -2.860  -0.001  0.00  0.00    +0.145 HD
ENDROOT
BRANCH   1  18
ATOM     13  C   UNL     1      -0.013   1.076   0.008  0.00  0.00    +0.012 A 
ATOM     14  C   UNL     1       1.172   1.783   0.000  0.00  0.00    +0.015 A 
ATOM     15  C   UNL     1       1.155   3.167   0.008  0.00  0.00    +0.013 A 
ATOM     16  C   UNL     1      -0.050   3.849   0.023  0.00  0.00    +0.015 A 
ATOM     17  C   UNL     1      -1.240   3.152   0.031  0.00  0.00    +0.012 A 
ATOM     18  C   UNL     1      -1.228   1.758   0.017  0.00  0.00    +0.019 A 
ATOM     19  I   UNL     1       2.958   4.234  -0.004  0.00  0.00    -0.044 I 
ENDBRANCH   1  18
TORSDOF 1
