REMARK  Name = ZINC13024140
REMARK  14 active torsions:
REMARK  status: ('A' for Active; 'I' for Inactive)
REMARK    1  A    between atoms: C_1  and  C_2
REMARK    2  A    between atoms: C_2  and  C_3
REMARK    3  A    between atoms: C_3  and  C_5
REMARK    4  A    between atoms: C_3  and  C_29
REMARK    5  A    between atoms: C_5  and  N_6
REMARK    6  A    between atoms: C_7  and  C_9
REMARK    7  A    between atoms: C_9  and  S_10
REMARK    8  A    between atoms: S_10  and  C_11
REMARK    9  A    between atoms: C_15  and  C_27
REMARK   10  A    between atoms: N_21  and  C_22
REMARK   11  A    between atoms: C_22  and  C_23
REMARK   12  A    between atoms: C_23  and  C_24
REMARK   13  A    between atoms: C_24  and  O_25
REMARK   14  A    between atoms: O_25  and  C_26
REMARK                            x       y       z     vdW  Elec       q    Type
REMARK                         _______ _______ _______ _____ _____    ______ ____
ROOT
ATOM      1  C   UNL     1      -0.808   2.770   2.420  0.00  0.00    +0.173 A 
ATOM      2  N   UNL     1      -1.387   3.385   3.421  0.00  0.00    -0.223 NA
ATOM      3  C   UNL     1      -2.435   2.836   4.079  0.00  0.00    +0.080 A 
ATOM      4  C   UNL     1      -3.048   3.491   5.151  0.00  0.00    +0.043 A 
ATOM      5  C   UNL     1      -4.121   2.889   5.796  0.00  0.00    +0.065 A 
ATOM      6  C   UNL     1      -4.588   1.636   5.379  0.00  0.00    +0.016 A 
ATOM      7  C   UNL     1      -3.997   0.986   4.333  0.00  0.00    +0.016 A 
ATOM      8  C   UNL     1      -2.919   1.572   3.672  0.00  0.00    +0.065 A 
ATOM      9  C   UNL     1      -2.253   0.907   2.540  0.00  0.00    +0.262 A 
ATOM     10  O   UNL     1      -2.623  -0.182   2.142  0.00  0.00    -0.267 OA
ATOM     11  N   UNL     1      -1.215   1.551   1.958  0.00  0.00    -0.287 N 
ENDROOT
BRANCH   5  12
ATOM     12  C   UNL     1      -4.775   3.576   6.931  0.00  0.00    +0.387 C 
ATOM     13  O   UNL     1      -4.373   4.662   7.296  0.00  0.00    -0.241 OA
ATOM     14  O   UNL     1      -5.816   2.996   7.560  0.00  0.00    -0.241 OA
ENDBRANCH   5  12
BRANCH   1  15
ATOM     15  S   UNL     1       0.555   3.556   1.626  0.00  0.00    -0.078 S 
BRANCH  15  16
ATOM     16  C   UNL     1       0.655   5.075   2.605  0.00  0.00    +0.173 C 
BRANCH  16  18
ATOM     17  N   UNL     1       2.049   7.118   2.672  0.00  0.00    -0.314 N 
ATOM     18  C   UNL     1       1.784   5.930   2.092  0.00  0.00    +0.223 C 
ATOM     19  O   UNL     1       2.456   5.550   1.156  0.00  0.00    -0.275 OA
ATOM     20  H   UNL     1       1.511   7.422   3.420  0.00  0.00    +0.149 HD
BRANCH  17  21
ATOM     21  C   UNL     1       3.147   7.949   2.173  0.00  0.00    +0.112 C 
BRANCH  21  22
ATOM     22  C   UNL     1       3.173   9.273   2.939  0.00  0.00    +0.036 C 
BRANCH  22  23
ATOM     23  C   UNL     1       4.384  10.069   2.525  0.00  0.00    -0.043 A 
ATOM     24  C   UNL     1       4.549  10.439   1.204  0.00  0.00    +0.004 A 
ATOM     25  C   UNL     1       5.658  11.173   0.825  0.00  0.00    +0.000 A 
ATOM     26  C   UNL     1       6.606  11.528   1.766  0.00  0.00    +0.000 A 
ATOM     27  C   UNL     1       6.444  11.154   3.087  0.00  0.00    +0.000 A 
ATOM     28  C   UNL     1       5.333  10.424   3.466  0.00  0.00    +0.004 A 
ENDBRANCH  22  23
BRANCH  22  30
ATOM     29  C   UNL     1       1.869  11.332   3.488  0.00  0.00    +0.004 C 
ATOM     30  C   UNL     1       1.907  10.070   2.624  0.00  0.00    +0.006 C 
ENDBRANCH  22  30
ENDBRANCH  21  22
ENDBRANCH  17  21
ENDBRANCH  16  18
ENDBRANCH  15  16
ENDBRANCH   1  15
BRANCH  11  31
ATOM     31  C   UNL     1      -0.517   0.932   0.828  0.00  0.00    +0.129 C 
BRANCH  31  32
ATOM     32  C   UNL     1      -1.186   1.360  -0.480  0.00  0.00    +0.050 C 
BRANCH  32  33
ATOM     33  C   UNL     1      -0.458   0.714  -1.660  0.00  0.00    +0.161 C 
BRANCH  33  34
ATOM     34  O   UNL     1      -1.082   1.113  -2.882  0.00  0.00    -0.383 OA
ATOM     35  C   UNL     1      -0.476   0.562  -4.052  0.00  0.00    +0.193 C 
ENDBRANCH  33  34
ENDBRANCH  32  33
ENDBRANCH  31  32
ENDBRANCH  11  31
TORSDOF 12
