REMARK  Name = ZINC63827666
REMARK  7 active torsions:
REMARK  status: ('A' for Active; 'I' for Inactive)
REMARK    1  A    between atoms: C_1  and  C_2
REMARK    2  A    between atoms: C_7  and  C_31
REMARK    3  A    between atoms: C_9  and  C_12
REMARK    4  A    between atoms: C_12  and  C_13
REMARK    5  A    between atoms: C_13  and  C_14
REMARK    6  A    between atoms: C_18  and  C_27
REMARK    7  A    between atoms: N_29  and  C_30
REMARK                            x       y       z     vdW  Elec       q    Type
REMARK                         _______ _______ _______ _____ _____    ______ ____
ROOT
ATOM      1  C   UNL     1       0.236  -1.293   3.892  0.00  0.00    +0.101 C 
ENDROOT
BRANCH   1   2
ATOM      2  C   UNL     1       0.505  -1.017   5.349  0.00  0.00    +0.220 C 
ATOM      3  O   UNL     1       0.681  -1.938   6.119  0.00  0.00    -0.275 OA
ATOM      4  N   UNL     1       0.550   0.253   5.797  0.00  0.00    -0.264 N 
ATOM      5  C   UNL     1       0.242   1.386   4.908  0.00  0.00    +0.168 C 
ATOM      6  C   UNL     1       1.269   2.492   5.193  0.00  0.00    +0.276 C 
ATOM      7  O   UNL     1       1.187   2.852   6.574  0.00  0.00    -0.476 OA
ATOM      8  C   UNL     1       1.210   1.849   7.492  0.00  0.00    +0.143 A 
ATOM      9  C   UNL     1       0.887   0.543   7.130  0.00  0.00    +0.078 A 
ATOM     10  C   UNL     1       0.904  -0.468   8.078  0.00  0.00    +0.027 A 
ATOM     11  C   UNL     1       1.239  -0.179   9.388  0.00  0.00    +0.002 A 
ATOM     12  C   UNL     1       1.558   1.117   9.751  0.00  0.00    +0.004 A 
ATOM     13  C   UNL     1       1.552   2.130   8.806  0.00  0.00    +0.047 A 
BRANCH   6  14
ATOM     14  C   UNL     1       0.967   3.694   4.336  0.00  0.00    +0.255 C 
ATOM     15  O   UNL     1       0.629   4.738   4.853  0.00  0.00    -0.272 OA
ATOM     16  N   UNL     1       1.073   3.610   2.995  0.00  0.00    -0.315 N 
ATOM     17  C   UNL     1       0.780   4.779   2.162  0.00  0.00    +0.128 C 
ATOM     18  H   UNL     1       1.343   2.776   2.582  0.00  0.00    +0.148 HD
ENDBRANCH   6  14
ENDBRANCH   1   2
BRANCH   1  19
ATOM     19  C   UNL     1       0.360  -2.795   3.626  0.00  0.00    +0.043 C 
BRANCH  19  27
ATOM     20  C   UNL     1      -0.849   1.439   0.118  0.00  0.00    +0.044 C 
ATOM     21  C   UNL     1      -0.677  -0.058   0.092  0.00  0.00    -0.050 A 
ATOM     22  C   UNL     1      -0.843  -0.743  -1.119  0.00  0.00    +0.005 A 
ATOM     23  C   UNL     1      -0.706  -2.082  -1.225  0.00  0.00    +0.026 A 
ATOM     24  C   UNL     1      -0.383  -2.864  -0.082  0.00  0.00    +0.043 A 
ATOM     25  N   UNL     1      -0.201  -4.153   0.071  0.00  0.00    -0.373 N 
ATOM     26  C   UNL     1       0.116  -4.417   1.480  0.00  0.00    +0.143 C 
ATOM     27  C   UNL     1       0.098  -3.070   2.168  0.00  0.00    -0.033 C 
ATOM     28  C   UNL     1      -0.203  -2.164   1.211  0.00  0.00    -0.000 A 
ATOM     29  C   UNL     1      -0.363  -0.705   1.238  0.00  0.00    +0.013 A 
ATOM     30  H   UNL     1      -0.265  -4.820  -0.629  0.00  0.00    +0.161 HD
BRANCH  26  31
ATOM     31  C   UNL     1      -0.924  -5.325   2.084  0.00  0.00    +0.016 A 
ATOM     32  C   UNL     1      -0.761  -6.335   2.974  0.00  0.00    +0.013 A 
ATOM     33  C   UNL     1      -1.872  -7.042   3.395  0.00  0.00    +0.008 A 
ATOM     34  C   UNL     1      -3.090  -6.704   2.906  0.00  0.00    +0.045 A 
ATOM     35  S   UNL     1      -2.689  -5.345   1.820  0.00  0.00    -0.099 S 
ENDBRANCH  26  31
ENDBRANCH  19  27
ENDBRANCH   1  19
TORSDOF 5
