REMARK  Name = ZINC08751104
REMARK  8 active torsions:
REMARK  status: ('A' for Active; 'I' for Inactive)
REMARK    1  A    between atoms: C_1  and  C_2
REMARK    2  A    between atoms: C_5  and  N_8
REMARK    3  A    between atoms: C_12  and  C_13
REMARK    4  A    between atoms: C_23  and  S_24
REMARK    5  A    between atoms: S_24  and  C_25
REMARK    6  A    between atoms: C_25  and  C_26
REMARK    7  A    between atoms: N_28  and  C_29
REMARK    8  A    between atoms: C_35  and  C_37
REMARK                            x       y       z     vdW  Elec       q    Type
REMARK                         _______ _______ _______ _____ _____    ______ ____
ROOT
ATOM      1  N   UNL     1       1.162   2.144  -8.684  0.00  0.00    -0.214 N 
ATOM      2  C   UNL     1       1.893   1.325  -9.472  0.00  0.00    +0.275 C 
ATOM      3  O   UNL     1       2.094   1.438 -10.668  0.00  0.00    -0.268 OA
ATOM      4  C   UNL     1       2.396   0.265  -8.579  0.00  0.00    +0.129 C 
ATOM      5  C   UNL     1       3.191  -0.802  -8.925  0.00  0.00    +0.041 C 
ATOM      6  N   UNL     1       1.915   0.565  -7.334  0.00  0.00    -0.220 NA
ATOM      7  C   UNL     1       1.195   1.653  -7.402  0.00  0.00    +0.169 C 
ENDROOT
BRANCH   5   8
ATOM      8  C   UNL     1       3.486  -1.847  -7.940  0.00  0.00    -0.019 A 
ATOM      9  C   UNL     1       4.398  -2.866  -8.246  0.00  0.00    +0.012 A 
ATOM     10  C   UNL     1       4.675  -3.843  -7.317  0.00  0.00    +0.050 A 
ATOM     11  C   UNL     1       4.046  -3.830  -6.078  0.00  0.00    +0.166 A 
ATOM     12  C   UNL     1       3.132  -2.821  -5.767  0.00  0.00    +0.167 A 
ATOM     13  C   UNL     1       2.851  -1.834  -6.691  0.00  0.00    +0.057 A 
ATOM     14  O   UNL     1       2.662  -3.035  -4.503  0.00  0.00    -0.453 OA
ATOM     15  C   UNL     1       2.984  -4.405  -4.200  0.00  0.00    +0.466 C 
ATOM     16  O   UNL     1       4.146  -4.671  -5.009  0.00  0.00    -0.453 OA
ENDBRANCH   5   8
BRANCH   1  21
ATOM     17  C   UNL     1      -1.573   6.818 -10.384  0.00  0.00    +0.044 C 
ATOM     18  C   UNL     1      -0.847   5.577  -9.932  0.00  0.00    -0.050 A 
ATOM     19  C   UNL     1       0.534   5.528  -9.985  0.00  0.00    +0.005 A 
ATOM     20  C   UNL     1       1.203   4.392  -9.572  0.00  0.00    +0.024 A 
ATOM     21  C   UNL     1       0.487   3.299  -9.104  0.00  0.00    +0.044 A 
ATOM     22  C   UNL     1      -0.900   3.348  -9.058  0.00  0.00    +0.024 A 
ATOM     23  C   UNL     1      -1.563   4.489  -9.467  0.00  0.00    +0.005 A 
ENDBRANCH   1  21
BRANCH   7  24
ATOM     24  S   UNL     1       0.380   2.397  -6.028  0.00  0.00    -0.080 S 
BRANCH  24  25
ATOM     25  C   UNL     1       0.853   1.240  -4.718  0.00  0.00    +0.172 C 
BRANCH  25  26
ATOM     26  C   UNL     1       0.251   1.688  -3.411  0.00  0.00    +0.224 C 
ATOM     27  O   UNL     1      -0.430   2.691  -3.369  0.00  0.00    -0.275 OA
ATOM     28  N   UNL     1       0.470   0.974  -2.289  0.00  0.00    -0.312 N 
ATOM     29  H   UNL     1       1.014   0.172  -2.323  0.00  0.00    +0.149 HD
BRANCH  28  30
ATOM     30  C   UNL     1      -0.115   1.410  -1.018  0.00  0.00    +0.076 C 
ATOM     31  C   UNL     1      -1.544   0.875  -0.904  0.00  0.00    +0.022 C 
ATOM     32  C   UNL     1      -2.154   1.330   0.423  0.00  0.00    +0.002 C 
ATOM     33  C   UNL     1      -1.314   0.790   1.582  0.00  0.00    +0.000 C 
ATOM     34  C   UNL     1       0.115   1.325   1.468  0.00  0.00    +0.005 C 
ATOM     35  C   UNL     1       0.726   0.871   0.141  0.00  0.00    +0.006 C 
ATOM     36  C   UNL     1       2.154   1.406   0.027  0.00  0.00    +0.009 C 
ENDBRANCH  28  30
ENDBRANCH  25  26
ENDBRANCH  24  25
ENDBRANCH   7  24
TORSDOF 6
