REMARK  Name = ZINC19863905
REMARK  14 active torsions:
REMARK  status: ('A' for Active; 'I' for Inactive)
REMARK    1  A    between atoms: C_1  and  C_2
REMARK    2  A    between atoms: C_2  and  C_3
REMARK    3  A    between atoms: C_3  and  C_4
REMARK    4  A    between atoms: C_4  and  N_5
REMARK    5  A    between atoms: N_5  and  C_6
REMARK    6  A    between atoms: N_5  and  C_10
REMARK    7  A    between atoms: C_6  and  C_7
REMARK    8  A    between atoms: C_7  and  C_8
REMARK    9  A    between atoms: C_8  and  C_9
REMARK   10  A    between atoms: C_10  and  C_11
REMARK   11  A    between atoms: C_13  and  C_27
REMARK   12  A    between atoms: C_18  and  C_20
REMARK   13  A    between atoms: C_23  and  C_26
REMARK   14  A    between atoms: C_32  and  O_33
REMARK                            x       y       z     vdW  Elec       q    Type
REMARK                         _______ _______ _______ _____ _____    ______ ____
ROOT
ATOM      1  C   UNL     1       2.582  -4.428   3.349  0.00  0.00    +0.112 C 
ATOM      2  C   UNL     1       3.017  -5.851   3.067  0.00  0.00    +0.081 C 
ATOM      3  N   UNL     1       2.491  -6.595   3.987  0.00  0.00    -0.173 NA
ATOM      4  N   UNL     1       1.729  -5.869   4.896  0.00  0.00    -0.123 N 
ATOM      5  C   UNL     1       1.726  -4.551   4.594  0.00  0.00    +0.249 C 
ATOM      6  O   UNL     1       1.161  -3.658   5.188  0.00  0.00    -0.273 OA
ATOM      7  C   UNL     1       1.078  -6.409   5.946  0.00  0.00    +0.273 C 
ATOM      8  O   UNL     1       0.348  -5.718   6.629  0.00  0.00    -0.268 OA
ENDROOT
BRANCH   7   9
ATOM      9  C   UNL     1       1.251  -7.841   6.265  0.00  0.00    +0.039 A 
ATOM     10  C   UNL     1       2.200  -8.602   5.579  0.00  0.00    +0.013 A 
ATOM     11  C   UNL     1       2.356  -9.939   5.882  0.00  0.00    +0.004 A 
ATOM     12  C   UNL     1       1.577 -10.525   6.864  0.00  0.00    -0.050 A 
ATOM     13  C   UNL     1       0.635  -9.776   7.548  0.00  0.00    +0.004 A 
ATOM     14  C   UNL     1       0.472  -8.437   7.258  0.00  0.00    +0.013 A 
ATOM     15  C   UNL     1       1.753 -11.986   7.189  0.00  0.00    +0.044 C 
ENDBRANCH   7   9
BRANCH   2  16
ATOM     16  C   UNL     1       3.875  -6.303   1.957  0.00  0.00    +0.040 A 
ATOM     17  C   UNL     1       4.377  -5.380   1.037  0.00  0.00    +0.013 A 
ATOM     18  C   UNL     1       5.179  -5.809   0.001  0.00  0.00    +0.001 A 
ATOM     19  C   UNL     1       5.488  -7.152  -0.132  0.00  0.00    +0.004 A 
ATOM     20  C   UNL     1       4.997  -8.076   0.771  0.00  0.00    +0.046 A 
ATOM     21  C   UNL     1       4.195  -7.661   1.822  0.00  0.00    +0.126 A 
BRANCH  21  22
ATOM     22  O   UNL     1       3.717  -8.566   2.714  0.00  0.00    -0.506 OA
ATOM     23  H   UNL     1       2.863  -8.948   2.467  0.00  0.00    +0.292 HD
ENDBRANCH  21  22
ENDBRANCH   2  16
BRANCH   1  24
ATOM     24  C   UNL     1       1.760  -3.876   2.182  0.00  0.00    -0.060 C 
BRANCH  24  25
ATOM     25  N   UNL     1       1.344  -2.500   2.484  0.00  0.00    +0.380 N 
ATOM     26  H   UNL     1       0.840  -2.485   3.358  0.00  0.00    -0.082 HD
BRANCH  25  27
ATOM     27  C   UNL     1       2.532  -1.642   2.589  0.00  0.00    -0.079 C 
BRANCH  27  28
ATOM     28  C   UNL     1       2.110  -0.238   3.025  0.00  0.00    -0.019 C 
BRANCH  28  30
ATOM     29  C   UNL     1       2.925   2.061   3.571  0.00  0.00    +0.004 C 
ATOM     30  C   UNL     1       3.347   0.656   3.134  0.00  0.00    -0.005 C 
ENDBRANCH  28  30
ENDBRANCH  27  28
ENDBRANCH  25  27
BRANCH  25  31
ATOM     31  C   UNL     1       0.475  -2.004   1.409  0.00  0.00    -0.079 C 
BRANCH  31  32
ATOM     32  C   UNL     1      -0.826  -2.809   1.392  0.00  0.00    -0.019 C 
BRANCH  32  33
ATOM     33  C   UNL     1      -1.690  -2.357   0.214  0.00  0.00    -0.005 C 
ATOM     34  C   UNL     1      -2.933  -3.245   0.123  0.00  0.00    +0.004 C 
ENDBRANCH  32  33
ENDBRANCH  31  32
ENDBRANCH  25  31
ENDBRANCH  24  25
ENDBRANCH   1  24
TORSDOF 11
