REMARK  Name = ZINC54201485
REMARK  10 active torsions:
REMARK  status: ('A' for Active; 'I' for Inactive)
REMARK    1  A    between atoms: C_1  and  N_2
REMARK    2  A    between atoms: N_2  and  C_3
REMARK    3  A    between atoms: N_2  and  C_4
REMARK    4  A    between atoms: C_7  and  C_10
REMARK    5  A    between atoms: C_18  and  C_31
REMARK    6  A    between atoms: C_21  and  C_23
REMARK    7  A    between atoms: C_26  and  O_29
REMARK    8  A    between atoms: O_29  and  C_30
REMARK    9  A    between atoms: C_34  and  O_37
REMARK   10  A    between atoms: O_37  and  C_38
REMARK                            x       y       z     vdW  Elec       q    Type
REMARK                         _______ _______ _______ _____ _____    ______ ____
ROOT
ATOM      1  C   UNL     1      -4.832  -2.883   0.033  0.00  0.00    +0.028 C 
ATOM      2  C   UNL     1      -6.014  -2.224   0.145  0.00  0.00    +0.079 C 
ATOM      3  C   UNL     1      -7.389  -2.759   0.281  0.00  0.00    +0.276 C 
ATOM      4  O   UNL     1      -7.613  -3.958   0.308  0.00  0.00    -0.267 OA
ATOM      5  N   UNL     1      -8.353  -1.871   0.372  0.00  0.00    -0.152 NA
ATOM      6  C   UNL     1      -8.123  -0.567   0.344  0.00  0.00    +0.174 C 
ATOM      7  S   UNL     1      -6.348  -0.468   0.177  0.00  0.00    -0.050 S 
ATOM      8  N   UNL     1      -9.028   0.458   0.428  0.00  0.00    -0.195 N 
ATOM      9  C   UNL     1     -10.484   0.305   0.576  0.00  0.00    +0.136 C 
ATOM     10  C   UNL     1     -10.998   1.757   0.618  0.00  0.00    +0.087 C 
ATOM     11  C   UNL     1      -9.745   2.592   0.485  0.00  0.00    +0.069 C 
ATOM     12  N   UNL     1      -8.719   1.817   0.392  0.00  0.00    -0.182 NA
ENDROOT
BRANCH   1  16
ATOM     13  C   UNL     1      -1.186  -0.733   0.180  0.00  0.00    +0.029 A 
ATOM     14  C   UNL     1      -2.386  -0.086   0.467  0.00  0.00    +0.023 A 
ATOM     15  C   UNL     1      -3.568  -0.778   0.421  0.00  0.00    +0.010 A 
ATOM     16  C   UNL     1      -3.569  -2.138   0.083  0.00  0.00    -0.024 A 
ATOM     17  C   UNL     1      -2.360  -2.784  -0.206  0.00  0.00    +0.010 A 
ATOM     18  C   UNL     1      -1.183  -2.083  -0.161  0.00  0.00    +0.023 A 
BRANCH  13  20
ATOM     19  C   UNL     1       1.274  -0.703  -0.080  0.00  0.00    +0.129 C 
ATOM     20  N   UNL     1       0.011  -0.026   0.228  0.00  0.00    -0.336 N 
ATOM     21  C   UNL     1       0.010   1.394   0.587  0.00  0.00    +0.129 C 
ENDBRANCH  13  20
ENDBRANCH   1  16
BRANCH  11  22
ATOM     22  C   UNL     1      -9.701   4.065   0.471  0.00  0.00    -0.002 A 
ATOM     23  C   UNL     1     -10.882   4.803   0.591  0.00  0.00    +0.013 A 
ATOM     24  C   UNL     1     -10.837   6.180   0.577  0.00  0.00    +0.046 A 
ATOM     25  C   UNL     1      -9.619   6.835   0.444  0.00  0.00    +0.120 A 
ATOM     26  C   UNL     1      -8.443   6.106   0.324  0.00  0.00    +0.046 A 
ATOM     27  C   UNL     1      -8.478   4.729   0.342  0.00  0.00    +0.013 A 
BRANCH  25  28
ATOM     28  O   UNL     1      -9.579   8.193   0.430  0.00  0.00    -0.495 OA
ATOM     29  C   UNL     1      -8.294   8.803   0.291  0.00  0.00    +0.277 C 
ENDBRANCH  25  28
ENDBRANCH  11  22
BRANCH   9  30
ATOM     30  C   UNL     1     -10.813  -0.415   1.858  0.00  0.00    -0.025 A 
ATOM     31  C   UNL     1     -10.087  -0.151   3.005  0.00  0.00    +0.009 A 
ATOM     32  C   UNL     1     -10.387  -0.810   4.181  0.00  0.00    +0.046 A 
ATOM     33  C   UNL     1     -11.418  -1.737   4.212  0.00  0.00    +0.120 A 
ATOM     34  C   UNL     1     -12.146  -2.000   3.061  0.00  0.00    +0.046 A 
ATOM     35  C   UNL     1     -11.845  -1.335   1.888  0.00  0.00    +0.009 A 
BRANCH  33  36
ATOM     36  O   UNL     1     -11.714  -2.387   5.368  0.00  0.00    -0.495 OA
ATOM     37  C   UNL     1     -12.789  -3.328   5.326  0.00  0.00    +0.277 C 
ENDBRANCH  33  36
ENDBRANCH   9  30
TORSDOF 6
