REMARK  Name = ZINC37359958
REMARK  6 active torsions:
REMARK  status: ('A' for Active; 'I' for Inactive)
REMARK    1  A    between atoms: C_5  and  C_7
REMARK    2  A    between atoms: C_7  and  C_8
REMARK    3  A    between atoms: C_8  and  N_9
REMARK    4  A    between atoms: C_12  and  C_27
REMARK    5  A    between atoms: C_14  and  N_26
REMARK    6  A    between atoms: N_15  and  C_19
REMARK                            x       y       z     vdW  Elec       q    Type
REMARK                         _______ _______ _______ _____ _____    ______ ____
ROOT
ATOM      1  N   UNL     1       2.394  -4.088  -1.013  0.00  0.00    -0.313 N 
ATOM      2  C   UNL     1       2.833  -4.771  -2.133  0.00  0.00    +0.218 A 
ATOM      3  N   UNL     1       2.774  -6.099  -2.123  0.00  0.00    -0.214 NA
ATOM      4  C   UNL     1       3.174  -6.832  -3.155  0.00  0.00    +0.091 A 
ATOM      5  C   UNL     1       3.677  -6.164  -4.294  0.00  0.00    +0.086 A 
ATOM      6  C   UNL     1       4.178  -6.548  -5.532  0.00  0.00    +0.131 A 
ATOM      7  N   UNL     1       4.504  -5.426  -6.203  0.00  0.00    -0.216 N 
ATOM      8  N   UNL     1       4.222  -4.303  -5.418  0.00  0.00    -0.144 NA
ATOM      9  C   UNL     1       3.725  -4.691  -4.264  0.00  0.00    +0.189 A 
ATOM     10  N   UNL     1       3.282  -4.069  -3.154  0.00  0.00    -0.193 NA
ATOM     11  H   UNL     1       2.059  -4.579  -0.247  0.00  0.00    +0.149 HD
ENDROOT
BRANCH   4  12
ATOM     12  C   UNL     1       3.096  -8.309  -3.113  0.00  0.00    +0.039 A 
ATOM     13  C   UNL     1       4.247  -9.077  -3.300  0.00  0.00    +0.013 A 
ATOM     14  C   UNL     1       4.169 -10.453  -3.260  0.00  0.00    +0.004 A 
ATOM     15  C   UNL     1       2.954 -11.076  -3.034  0.00  0.00    +0.041 A 
ATOM     16  C   UNL     1       1.807 -10.323  -2.848  0.00  0.00    +0.159 A 
ATOM     17  C   UNL     1       1.872  -8.940  -2.880  0.00  0.00    +0.168 A 
ATOM     18  F   UNL     1       0.755  -8.204  -2.693  0.00  0.00    -0.202 F 
ATOM     19  F   UNL     1       0.624 -10.938  -2.630  0.00  0.00    -0.202 F 
ENDBRANCH   4  12
BRANCH   7  20
ATOM     20  C   UNL     1       5.044  -5.390  -7.495  0.00  0.00    +0.068 A 
ATOM     21  C   UNL     1       5.920  -6.385  -7.911  0.00  0.00    +0.030 A 
ATOM     22  C   UNL     1       6.452  -6.347  -9.185  0.00  0.00    +0.040 A 
ATOM     23  C   UNL     1       6.113  -5.318 -10.047  0.00  0.00    +0.124 A 
ATOM     24  C   UNL     1       5.240  -4.324  -9.634  0.00  0.00    +0.040 A 
ATOM     25  C   UNL     1       4.701  -4.362  -8.364  0.00  0.00    +0.030 A 
ATOM     26  F   UNL     1       6.634  -5.282 -11.293  0.00  0.00    -0.205 F 
ENDBRANCH   7  20
BRANCH   6  27
ATOM     27  N   UNL     1       4.316  -7.845  -5.992  0.00  0.00    -0.342 N 
ATOM     28  H   UNL     1       4.060  -8.590  -5.426  0.00  0.00    +0.144 HD
ATOM     29  H   UNL     1       4.668  -8.009  -6.880  0.00  0.00    +0.144 HD
ENDBRANCH   6  27
BRANCH   1  30
ATOM     30  C   UNL     1       2.437  -2.624  -0.985  0.00  0.00    +0.110 C 
BRANCH  30  31
ATOM     31  C   UNL     1       1.899  -2.124   0.358  0.00  0.00    +0.074 C 
BRANCH  31  36
ATOM     32  C   UNL     1       0.839   1.478   0.684  0.00  0.00    +0.003 A 
ATOM     33  C   UNL     1       2.053   2.099   0.431  0.00  0.00    +0.020 A 
ATOM     34  C   UNL     1       3.165   1.322   0.167  0.00  0.00    +0.111 A 
ATOM     35  N   UNL     1       3.079   0.006   0.152  0.00  0.00    -0.260 NA
ATOM     36  C   UNL     1       1.942  -0.618   0.387  0.00  0.00    +0.043 A 
ATOM     37  C   UNL     1       0.789   0.093   0.660  0.00  0.00    +0.023 A 
ENDBRANCH  31  36
ENDBRANCH  30  31
ENDBRANCH   1  30
TORSDOF 6
