REMARK  Name = ZINC08809555
REMARK  8 active torsions:
REMARK  status: ('A' for Active; 'I' for Inactive)
REMARK    1  A    between atoms: C_3  and  N_10
REMARK    2  A    between atoms: C_5  and  N_7
REMARK    3  A    between atoms: C_11  and  C_13
REMARK    4  A    between atoms: C_13  and  S_14
REMARK    5  A    between atoms: S_14  and  C_15
REMARK    6  A    between atoms: C_16  and  C_31
REMARK    7  A    between atoms: C_17  and  C_26
REMARK    8  A    between atoms: C_19  and  C_21
REMARK                            x       y       z     vdW  Elec       q    Type
REMARK                         _______ _______ _______ _____ _____    ______ ____
ROOT
ATOM      1  C   UNL     1     -10.093   1.090   0.508  0.00  0.00    +0.116 A 
ATOM      2  C   UNL     1     -11.409   1.570   0.637  0.00  0.00    +0.092 A 
ATOM      3  C   UNL     1     -12.470   0.637   0.725  0.00  0.00    +0.011 A 
ATOM      4  C   UNL     1     -12.157  -0.723   0.690  0.00  0.00    +0.039 A 
ATOM      5  C   UNL     1     -10.825  -1.112   0.566  0.00  0.00    +0.079 A 
ATOM      6  N   UNL     1      -9.850  -0.209   0.479  0.00  0.00    -0.239 NA
ENDROOT
BRANCH   5   7
ATOM      7  C   UNL     1     -10.489  -2.548   0.528  0.00  0.00    +0.038 A 
ATOM      8  C   UNL     1      -9.261  -3.145   0.406  0.00  0.00    +0.017 A 
ATOM      9  C   UNL     1      -9.192  -4.519   0.400  0.00  0.00    +0.008 A 
ATOM     10  C   UNL     1     -10.339  -5.241   0.502  0.00  0.00    +0.046 A 
ATOM     11  S   UNL     1     -11.578  -3.960   0.622  0.00  0.00    -0.095 S 
ENDBRANCH   5   7
BRANCH   3  12
ATOM     12  C   UNL     1     -13.867   1.089   0.856  0.00  0.00    +0.021 A 
ATOM     13  C   UNL     1     -14.970   0.707   0.136  0.00  0.00    +0.016 A 
ATOM     14  C   UNL     1     -16.187   1.271   0.441  0.00  0.00    +0.008 A 
ATOM     15  C   UNL     1     -16.259   2.188   1.442  0.00  0.00    +0.046 A 
ATOM     16  S   UNL     1     -14.565   2.272   1.997  0.00  0.00    -0.097 S 
ENDBRANCH   3  12
BRANCH   2  17
ATOM     17  C   UNL     1     -11.671   2.977   0.673  0.00  0.00    +0.102 C 
ATOM     18  N   UNL     1     -11.879   4.093   0.703  0.00  0.00    -0.191 NA
ENDBRANCH   2  17
BRANCH   1  19
ATOM     19  S   UNL     1      -8.755   2.231   0.390  0.00  0.00    -0.095 S 
BRANCH  19  20
ATOM     20  C   UNL     1      -7.368   1.076   0.257  0.00  0.00    +0.172 C 
BRANCH  20  22
ATOM     21  N   UNL     1      -4.907   1.194   0.031  0.00  0.00    -0.285 N 
ATOM     22  C   UNL     1      -6.080   1.850   0.142  0.00  0.00    +0.227 C 
ATOM     23  O   UNL     1      -6.098   3.062   0.149  0.00  0.00    -0.275 OA
ATOM     24  H   UNL     1      -4.898   0.228  -0.051  0.00  0.00    +0.155 HD
BRANCH  21  27
ATOM     25  C   UNL     1      -1.439   2.164  -0.708  0.00  0.00    +0.004 A 
ATOM     26  C   UNL     1      -2.626   1.458  -0.715  0.00  0.00    +0.023 A 
ATOM     27  C   UNL     1      -3.704   1.907   0.036  0.00  0.00    +0.036 A 
ATOM     28  C   UNL     1      -3.584   3.066   0.792  0.00  0.00    +0.056 A 
ATOM     29  C   UNL     1      -2.395   3.768   0.794  0.00  0.00    +0.128 A 
ATOM     30  C   UNL     1      -1.325   3.320   0.041  0.00  0.00    +0.033 A 
BRANCH  29  31
ATOM     31  N   UNL     1      -2.267   5.003   1.600  0.00  0.00    +0.056 N 
ATOM     32  O   UNL     1      -3.210   5.400   2.260  0.00  0.00    -0.126 OA
ATOM     33  O   UNL     1      -1.216   5.619   1.607  0.00  0.00    -0.126 OA
ENDBRANCH  29  31
ENDBRANCH  21  27
ENDBRANCH  20  22
ENDBRANCH  19  20
ENDBRANCH   1  19
TORSDOF 8
