REMARK  Name = ZINC66851567
REMARK  4 active torsions:
REMARK  status: ('A' for Active; 'I' for Inactive)
REMARK    1  A    between atoms: C_1  and  C_2
REMARK    2  A    between atoms: C_6  and  C_23
REMARK    3  A    between atoms: N_9  and  C_10
REMARK    4  A    between atoms: C_10  and  C_11
REMARK                            x       y       z     vdW  Elec       q    Type
REMARK                         _______ _______ _______ _____ _____    ______ ____
ROOT
ATOM      1  C   UNL     1       2.112  -0.051   1.190  0.00  0.00    +0.158 C 
ENDROOT
BRANCH   1   2
ATOM      2  C   UNL     1       2.866  -0.763   2.283  0.00  0.00    +0.135 C 
ATOM      3  N   UNL     1       4.181  -0.465   2.421  0.00  0.00    -0.299 N 
ATOM      4  C   UNL     1       5.109  -1.271   3.077  0.00  0.00    +0.059 A 
ATOM      5  C   UNL     1       6.470  -1.107   2.853  0.00  0.00    +0.025 A 
ATOM      6  C   UNL     1       7.377  -1.913   3.513  0.00  0.00    +0.002 A 
ATOM      7  C   UNL     1       6.938  -2.882   4.396  0.00  0.00    +0.002 A 
ATOM      8  C   UNL     1       5.582  -3.050   4.622  0.00  0.00    +0.031 A 
ATOM      9  C   UNL     1       4.675  -2.249   3.965  0.00  0.00    +0.134 A 
ATOM     10  S   UNL     1       2.941  -2.441   4.224  0.00  0.00    +0.102 S 
ATOM     11  O   UNL     1       2.629  -1.764   5.434  0.00  0.00    -0.146 OA
ATOM     12  O   UNL     1       2.643  -3.814   4.016  0.00  0.00    -0.146 OA
ATOM     13  N   UNL     1       2.204  -1.594   3.003  0.00  0.00    -0.117 NA
ATOM     14  H   UNL     1       4.498   0.367   2.037  0.00  0.00    +0.153 HD
ENDBRANCH   1   2
BRANCH   1  21
ATOM     15  C   UNL     1      -0.019   1.526   0.010  0.00  0.00    +0.026 C 
ATOM     16  C   UNL     1       0.002  -0.004   0.002  0.00  0.00    +0.080 C 
ATOM     17  C   UNL     1      -1.434  -0.535   0.015  0.00  0.00    +0.179 C 
ATOM     18  O   UNL     1      -2.075  -0.132   1.228  0.00  0.00    -0.369 OA
ATOM     19  C   UNL     1      -1.412  -0.590   2.410  0.00  0.00    +0.162 C 
ATOM     20  C   UNL     1       0.024  -0.060   2.421  0.00  0.00    +0.121 C 
ATOM     21  N   UNL     1       0.711  -0.492   1.194  0.00  0.00    -0.288 NA
BRANCH  19  22
ATOM     22  C   UNL     1      -2.145  -0.086   3.626  0.00  0.00    -0.018 A 
ATOM     23  C   UNL     1      -2.747   1.158   3.603  0.00  0.00    +0.006 A 
ATOM     24  C   UNL     1      -3.420   1.621   4.719  0.00  0.00    +0.000 A 
ATOM     25  C   UNL     1      -3.490   0.839   5.857  0.00  0.00    +0.000 A 
ATOM     26  C   UNL     1      -2.889  -0.406   5.879  0.00  0.00    +0.000 A 
ATOM     27  C   UNL     1      -2.220  -0.870   4.762  0.00  0.00    +0.006 A 
ENDBRANCH  19  22
ENDBRANCH   1  21
TORSDOF 3
