REMARK  Name = ZINC01812051
REMARK  9 active torsions:
REMARK  status: ('A' for Active; 'I' for Inactive)
REMARK    1  A    between atoms: C_1  and  C_2
REMARK    2  A    between atoms: C_2  and  N_3
REMARK    3  A    between atoms: N_3  and  C_4
REMARK    4  A    between atoms: N_3  and  C_6
REMARK    5  A    between atoms: C_4  and  C_5
REMARK    6  A    between atoms: C_6  and  C_7
REMARK    7  A    between atoms: C_7  and  C_8
REMARK    8  A    between atoms: C_11  and  C_23
REMARK    9  A    between atoms: C_14  and  C_16
REMARK                            x       y       z     vdW  Elec       q    Type
REMARK                         _______ _______ _______ _____ _____    ______ ____
ROOT
ATOM      1  C   UNL     1       1.749  -3.937   2.559  0.00  0.00    +0.231 C 
ATOM      2  O   UNL     1       1.414  -4.582   1.588  0.00  0.00    -0.274 OA
ATOM      3  N   UNL     1       2.294  -4.555   3.625  0.00  0.00    -0.211 N 
ATOM      4  C   UNL     1       2.556  -5.996   3.774  0.00  0.00    +0.152 C 
ATOM      5  C   UNL     1       3.168  -6.136   5.150  0.00  0.00    +0.027 C 
ATOM      6  C   UNL     1       3.231  -4.918   5.683  0.00  0.00    +0.050 C 
ATOM      7  N   UNL     1       2.730  -3.957   4.815  0.00  0.00    -0.261 N 
ATOM      8  H   UNL     1       2.687  -3.007   5.005  0.00  0.00    +0.170 HD
ENDROOT
BRANCH   6   9
ATOM      9  C   UNL     1       3.771  -4.625   7.030  0.00  0.00    -0.003 A 
ATOM     10  C   UNL     1       4.262  -5.658   7.827  0.00  0.00    +0.011 A 
ATOM     11  C   UNL     1       4.765  -5.378   9.082  0.00  0.00    +0.016 A 
ATOM     12  C   UNL     1       4.780  -4.075   9.549  0.00  0.00    +0.018 A 
ATOM     13  C   UNL     1       4.293  -3.046   8.762  0.00  0.00    +0.016 A 
ATOM     14  C   UNL     1       3.794  -3.313   7.504  0.00  0.00    +0.011 A 
ATOM     15 BR   UNL     1       5.470  -3.701  11.270  0.00  0.00    -0.050 Br
ENDBRANCH   6   9
BRANCH   4  16
ATOM     16  C   UNL     1       1.270  -6.776   3.688  0.00  0.00    -0.021 A 
ATOM     17  C   UNL     1       0.124  -6.287   4.287  0.00  0.00    +0.007 A 
ATOM     18  C   UNL     1      -1.057  -7.001   4.208  0.00  0.00    +0.015 A 
ATOM     19  C   UNL     1      -1.092  -8.206   3.530  0.00  0.00    +0.018 A 
ATOM     20  C   UNL     1       0.055  -8.695   2.930  0.00  0.00    +0.015 A 
ATOM     21  C   UNL     1       1.234  -7.977   3.005  0.00  0.00    +0.007 A 
ATOM     22 BR   UNL     1      -2.706  -9.185   3.422  0.00  0.00    -0.050 Br
ENDBRANCH   4  16
BRANCH   1  23
ATOM     23  C   UNL     1       1.556  -2.442   2.572  0.00  0.00    +0.079 C 
BRANCH  23  24
ATOM     24  C   UNL     1       0.925  -1.997   1.252  0.00  0.00    -0.070 C 
BRANCH  24  25
ATOM     25  N   UNL     1       0.661  -0.553   1.297  0.00  0.00    +0.380 N 
ATOM     26  H   UNL     1       0.103  -0.338   2.109  0.00  0.00    -0.082 HD
BRANCH  25  28
ATOM     27  C   UNL     1       1.658   1.670   1.544  0.00  0.00    -0.017 C 
ATOM     28  C   UNL     1       1.934   0.175   1.371  0.00  0.00    -0.082 C 
ENDBRANCH  25  28
BRANCH  25  29
ATOM     29  C   UNL     1      -0.064  -0.149   0.084  0.00  0.00    -0.082 C 
ATOM     30  C   UNL     1      -1.458  -0.779   0.090  0.00  0.00    -0.017 C 
ENDBRANCH  25  29
ENDBRANCH  24  25
ENDBRANCH  23  24
ENDBRANCH   1  23
TORSDOF 7
