REMARK  Name = ZINC38851956
REMARK  8 active torsions:
REMARK  status: ('A' for Active; 'I' for Inactive)
REMARK    1  A    between atoms: C_6  and  C_7
REMARK    2  A    between atoms: C_7  and  N_8
REMARK    3  A    between atoms: C_12  and  C_15
REMARK    4  A    between atoms: N_17  and  C_18
REMARK    5  A    between atoms: C_18  and  C_19
REMARK    6  A    between atoms: C_19  and  S_20
REMARK    7  A    between atoms: S_20  and  C_21
REMARK    8  A    between atoms: C_21  and  C_22
REMARK                            x       y       z     vdW  Elec       q    Type
REMARK                         _______ _______ _______ _____ _____    ______ ____
ROOT
ATOM      1  N   UNL     1      -1.727  -1.018  -1.371  0.00  0.00    +0.383 N 
ATOM      2  C   UNL     1      -2.033   0.263  -2.019  0.00  0.00    -0.078 C 
ATOM      3  C   UNL     1      -2.408   0.023  -3.483  0.00  0.00    -0.018 C 
ATOM      4  C   UNL     1      -3.637  -0.889  -3.546  0.00  0.00    +0.009 C 
ATOM      5  C   UNL     1      -3.332  -2.193  -2.803  0.00  0.00    +0.058 C 
ATOM      6  C   UNL     1      -2.923  -1.870  -1.364  0.00  0.00    -0.066 C 
ATOM      7  H   UNL     1      -0.988  -1.481  -1.879  0.00  0.00    -0.081 HD
ENDROOT
BRANCH   5   8
ATOM      8  C   UNL     1      -4.560  -3.066  -2.794  0.00  0.00    +0.214 C 
ATOM      9  O   UNL     1      -5.058  -3.401  -1.740  0.00  0.00    -0.276 OA
ATOM     10  N   UNL     1      -5.106  -3.474  -3.957  0.00  0.00    -0.314 N 
ATOM     11  H   UNL     1      -4.707  -3.206  -4.800  0.00  0.00    +0.149 HD
BRANCH  10  12
ATOM     12  C   UNL     1      -6.300  -4.323  -3.948  0.00  0.00    +0.115 C 
BRANCH  12  13
ATOM     13  C   UNL     1      -6.710  -4.640  -5.387  0.00  0.00    +0.088 C 
BRANCH  13  14
ATOM     14  S   UNL     1      -8.189  -5.691  -5.376  0.00  0.00    -0.155 S 
BRANCH  14  15
ATOM     15  C   UNL     1      -8.541  -5.973  -7.133  0.00  0.00    +0.104 C 
BRANCH  15  16
ATOM     16  C   UNL     1      -9.763  -6.844  -7.267  0.00  0.00    -0.036 A 
ATOM     17  C   UNL     1      -9.630  -8.220  -7.306  0.00  0.00    +0.006 A 
ATOM     18  C   UNL     1     -10.750  -9.020  -7.429  0.00  0.00    +0.022 A 
ATOM     19  C   UNL     1     -12.005  -8.444  -7.514  0.00  0.00    +0.059 A 
ATOM     20  C   UNL     1     -12.139  -7.067  -7.476  0.00  0.00    +0.060 A 
ATOM     21  C   UNL     1     -11.017  -6.267  -7.346  0.00  0.00    +0.026 A 
ATOM     22 CL   UNL     1     -13.713  -6.343  -7.583  0.00  0.00    -0.082 Cl
ATOM     23 CL   UNL     1     -13.413  -9.449  -7.670  0.00  0.00    -0.082 Cl
ENDBRANCH  15  16
ENDBRANCH  14  15
ENDBRANCH  13  14
ENDBRANCH  12  13
ENDBRANCH  10  12
ENDBRANCH   5   8
BRANCH   1  24
ATOM     24  C   UNL     1      -1.293  -0.775   0.011  0.00  0.00    -0.043 C 
BRANCH  24  30
ATOM     25  C   UNL     1      -0.017   1.378   0.010  0.00  0.00    +0.003 A 
ATOM     26  C   UNL     1       1.171   2.086   0.002  0.00  0.00    +0.021 A 
ATOM     27  C   UNL     1       2.378   1.412  -0.013  0.00  0.00    +0.059 A 
ATOM     28  C   UNL     1       2.397   0.027  -0.021  0.00  0.00    +0.059 A 
ATOM     29  C   UNL     1       1.208  -0.680  -0.013  0.00  0.00    +0.023 A 
ATOM     30  C   UNL     1       0.002  -0.004   0.002  0.00  0.00    -0.062 A 
ATOM     31 CL   UNL     1       3.912  -0.821  -0.040  0.00  0.00    -0.082 Cl
ATOM     32 CL   UNL     1       3.869   2.301  -0.023  0.00  0.00    -0.082 Cl
ENDBRANCH  24  30
ENDBRANCH   1  24
TORSDOF 8
