REMARK  Name = ZINC01993012
REMARK  8 active torsions:
REMARK  status: ('A' for Active; 'I' for Inactive)
REMARK    1  A    between atoms: C_1  and  C_2
REMARK    2  A    between atoms: C_2  and  O_3
REMARK    3  A    between atoms: O_3  and  C_4
REMARK    4  A    between atoms: C_14  and  C_22
REMARK    5  A    between atoms: C_15  and  C_17
REMARK    6  A    between atoms: N_19  and  C_20
REMARK    7  A    between atoms: N_19  and  C_21
REMARK    8  A    between atoms: C_24  and  C_26
REMARK                            x       y       z     vdW  Elec       q    Type
REMARK                         _______ _______ _______ _____ _____    ______ ____
ROOT
ATOM      1  C   UNL     1       6.455   5.710  -0.466  0.00  0.00    +0.121 A 
ATOM      2  C   UNL     1       6.182   4.359  -0.656  0.00  0.00    +0.049 A 
ATOM      3  C   UNL     1       4.889   3.925  -0.859  0.00  0.00    +0.050 A 
ATOM      4  C   UNL     1       3.844   4.841  -0.875  0.00  0.00    +0.138 A 
ATOM      5  C   UNL     1       4.118   6.204  -0.682  0.00  0.00    +0.044 A 
ATOM      6  C   UNL     1       5.426   6.634  -0.477  0.00  0.00    +0.059 A 
ATOM      7  C   UNL     1       2.990   7.158  -0.703  0.00  0.00    +0.055 A 
ATOM      8  N   UNL     1       3.185   8.462  -0.527  0.00  0.00    -0.334 N 
ATOM      9  C   UNL     1       4.402   8.920  -0.192  0.00  0.00    +0.172 A 
ATOM     10  N   UNL     1       4.989   8.960   1.008  0.00  0.00    -0.227 NA
ATOM     11  C   UNL     1       6.191   9.438   1.161  0.00  0.00    +0.060 A 
ATOM     12  C   UNL     1       6.873   9.929   0.054  0.00  0.00    +0.098 A 
ATOM     13  S   UNL     1       5.663   9.645  -1.232  0.00  0.00    -0.045 S 
ATOM     14  C   UNL     1       6.832   9.466   2.525  0.00  0.00    +0.067 C 
ATOM     15  C   UNL     1       1.694   6.630  -0.917  0.00  0.00    +0.073 A 
ATOM     16  C   UNL     1       1.537   5.290  -1.093  0.00  0.00    +0.138 A 
ATOM     17  O   UNL     1       2.571   4.433  -1.068  0.00  0.00    -0.455 OA
ATOM     18  H   UNL     1       2.349   9.165  -0.656  0.00  0.00    +0.168 HD
ENDROOT
BRANCH  16  19
ATOM     19  C   UNL     1       0.179   4.758  -1.315  0.00  0.00    +0.017 A 
ATOM     20  C   UNL     1      -0.016   3.387  -1.500  0.00  0.00    +0.013 A 
ATOM     21  C   UNL     1      -1.288   2.896  -1.707  0.00  0.00    +0.021 A 
ATOM     22  C   UNL     1      -2.370   3.760  -1.739  0.00  0.00    +0.041 A 
ATOM     23  C   UNL     1      -2.184   5.120  -1.551  0.00  0.00    +0.021 A 
ATOM     24  C   UNL     1      -0.918   5.623  -1.343  0.00  0.00    +0.013 A 
ATOM     25 CL   UNL     1      -3.967   3.135  -2.008  0.00  0.00    -0.084 Cl
ENDBRANCH  16  19
BRANCH  12  26
ATOM     26  C   UNL     1       8.170  10.497  -0.033  0.00  0.00    +0.255 C 
ATOM     27  O   UNL     1       8.802  10.728   0.982  0.00  0.00    -0.269 OA
ATOM     28  N   UNL     1       8.702  10.782  -1.238  0.00  0.00    -0.303 N 
ATOM     29  C   UNL     1       9.983  11.487  -1.325  0.00  0.00    +0.132 C 
ATOM     30  C   UNL     1       7.998  10.387  -2.461  0.00  0.00    +0.132 C 
ENDBRANCH  12  26
BRANCH   1  31
ATOM     31  O   UNL     1       7.735   6.121  -0.267  0.00  0.00    -0.492 OA
BRANCH  31  33
ATOM     32  C   UNL     1      10.113   5.762  -0.029  0.00  0.00    +0.048 C 
ATOM     33  C   UNL     1       8.748   5.113  -0.266  0.00  0.00    +0.225 C 
ENDBRANCH  31  33
ENDBRANCH   1  31
TORSDOF 4
