REMARK  Name = ZINC35180960
REMARK  7 active torsions:
REMARK  status: ('A' for Active; 'I' for Inactive)
REMARK    1  A    between atoms: C_1  and  C_2
REMARK    2  A    between atoms: C_6  and  C_8
REMARK    3  A    between atoms: C_8  and  N_9
REMARK    4  A    between atoms: N_13  and  C_16
REMARK    5  A    between atoms: C_20  and  C_22
REMARK    6  A    between atoms: N_24  and  C_25
REMARK    7  A    between atoms: C_25  and  C_26
REMARK                            x       y       z     vdW  Elec       q    Type
REMARK                         _______ _______ _______ _____ _____    ______ ____
ROOT
ATOM      1  C   UNL     1       3.893  -1.314   4.897  0.00  0.00    +0.038 A 
ATOM      2  C   UNL     1       5.173  -1.488   5.409  0.00  0.00    +0.023 A 
ATOM      3  C   UNL     1       5.743  -0.511   6.203  0.00  0.00    +0.003 A 
ATOM      4  C   UNL     1       5.045   0.644   6.493  0.00  0.00    +0.013 A 
ATOM      5  C   UNL     1       3.759   0.828   5.984  0.00  0.00    +0.038 A 
ATOM      6  C   UNL     1       3.186  -0.156   5.177  0.00  0.00    +0.036 A 
ENDROOT
BRANCH   1  11
ATOM      7  N   UNL     1       2.008  -4.255   3.957  0.00  0.00    -0.281 N 
ATOM      8  C   UNL     1       2.137  -4.322   2.500  0.00  0.00    +0.111 C 
ATOM      9  C   UNL     1       2.323  -2.906   1.946  0.00  0.00    +0.038 C 
ATOM     10  C   UNL     1       3.526  -2.262   2.644  0.00  0.00    +0.117 C 
ATOM     11  N   UNL     1       3.320  -2.306   4.092  0.00  0.00    -0.255 N 
ATOM     12  C   UNL     1       2.590  -3.275   4.664  0.00  0.00    +0.309 C 
ATOM     13  O   UNL     1       2.455  -3.268   5.873  0.00  0.00    -0.252 OA
BRANCH   7  14
ATOM     14  C   UNL     1       1.220  -5.274   4.655  0.00  0.00    +0.144 C 
BRANCH  14  20
ATOM     15  C   UNL     1      -2.417  -2.865   7.107  0.00  0.00    +0.044 C 
ATOM     16  C   UNL     1      -1.955  -3.672   5.921  0.00  0.00    -0.050 A 
ATOM     17  C   UNL     1      -2.848  -4.000   4.918  0.00  0.00    +0.003 A 
ATOM     18  C   UNL     1      -2.425  -4.740   3.830  0.00  0.00    +0.001 A 
ATOM     19  C   UNL     1      -1.108  -5.152   3.745  0.00  0.00    +0.005 A 
ATOM     20  C   UNL     1      -0.215  -4.824   4.748  0.00  0.00    -0.030 A 
ATOM     21  C   UNL     1      -0.637  -4.080   5.834  0.00  0.00    +0.008 A 
ENDBRANCH  14  20
ENDBRANCH   7  14
ENDBRANCH   1  11
BRANCH   5  22
ATOM     22  C   UNL     1       3.008   2.064   6.293  0.00  0.00    +0.244 C 
ATOM     23  O   UNL     1       1.888   2.222   5.848  0.00  0.00    -0.270 OA
ATOM     24  N   UNL     1       3.566   3.015   7.068  0.00  0.00    -0.307 N 
ATOM     25  H   UNL     1       4.460   2.888   7.423  0.00  0.00    +0.149 HD
BRANCH  24  26
ATOM     26  C   UNL     1       2.822   4.239   7.375  0.00  0.00    +0.140 C 
BRANCH  26  27
ATOM     27  C   UNL     1       3.662   5.131   8.252  0.00  0.00    -0.027 A 
ATOM     28  C   UNL     1       3.590   5.011   9.628  0.00  0.00    +0.009 A 
ATOM     29  C   UNL     1       4.359   5.826  10.437  0.00  0.00    +0.050 A 
ATOM     30  C   UNL     1       5.205   6.767   9.870  0.00  0.00    +0.166 A 
ATOM     31  C   UNL     1       5.277   6.887   8.485  0.00  0.00    +0.167 A 
ATOM     32  C   UNL     1       4.508   6.063   7.680  0.00  0.00    +0.054 A 
ATOM     33  O   UNL     1       6.171   7.873   8.179  0.00  0.00    -0.453 OA
ATOM     34  C   UNL     1       6.338   8.630   9.392  0.00  0.00    +0.466 C 
ATOM     35  O   UNL     1       6.053   7.676  10.432  0.00  0.00    -0.453 OA
ENDBRANCH  26  27
ENDBRANCH  24  26
ENDBRANCH   5  22
TORSDOF 6
