REMARK  Name = ZINC01088849
REMARK  6 active torsions:
REMARK  status: ('A' for Active; 'I' for Inactive)
REMARK    1  A    between atoms: C_1  and  O_2
REMARK    2  A    between atoms: O_2  and  C_3
REMARK    3  A    between atoms: C_8  and  N_9
REMARK    4  A    between atoms: N_26  and  C_29
REMARK    5  A    between atoms: C_29  and  C_30
REMARK    6  A    between atoms: C_34  and  N_36
REMARK                            x       y       z     vdW  Elec       q    Type
REMARK                         _______ _______ _______ _____ _____    ______ ____
ROOT
ATOM      1  N   UNL     1      -1.776   2.549   1.243  0.00  0.00    -0.230 N 
ATOM      2  C   UNL     1      -1.712   3.896   1.264  0.00  0.00    +0.255 C 
ATOM      3  O   UNL     1      -1.852   4.500   2.310  0.00  0.00    -0.269 OA
ATOM      4  C   UNL     1      -1.471   4.629   0.009  0.00  0.00    +0.058 A 
ATOM      5  C   UNL     1      -1.225   6.000   0.001  0.00  0.00    +0.015 A 
ATOM      6  C   UNL     1      -0.998   6.645  -1.196  0.00  0.00    +0.001 A 
ATOM      7  C   UNL     1      -1.019   5.940  -2.390  0.00  0.00    +0.002 A 
ATOM      8  C   UNL     1      -1.275   4.582  -2.398  0.00  0.00    +0.024 A 
ATOM      9  C   UNL     1      -1.510   3.921  -1.205  0.00  0.00    +0.041 A 
ATOM     10  N   UNL     1      -1.805   2.562  -1.168  0.00  0.00    -0.311 N 
ATOM     11  C   UNL     1      -1.459   1.797   0.032  0.00  0.00    +0.213 C 
ATOM     12  C   UNL     1      -0.017   1.396   0.010  0.00  0.00    +0.025 A 
ATOM     13  C   UNL     1       1.139   2.146   0.003  0.00  0.00    +0.010 A 
ATOM     14  C   UNL     1       2.343   1.450  -0.013  0.00  0.00    +0.001 A 
ATOM     15  C   UNL     1       2.376   0.070  -0.019  0.00  0.00    +0.002 A 
ATOM     16  C   UNL     1       1.217  -0.691  -0.012  0.00  0.00    +0.024 A 
ATOM     17  C   UNL     1       0.002  -0.004   0.002  0.00  0.00    +0.044 A 
ATOM     18  N   UNL     1      -1.288  -0.503   0.010  0.00  0.00    -0.263 N 
ATOM     19  C   UNL     1      -2.211   0.481   0.022  0.00  0.00    +0.267 C 
ATOM     20  O   UNL     1      -3.416   0.340   0.029  0.00  0.00    -0.271 OA
ATOM     21  H   UNL     1      -2.231   2.128  -1.924  0.00  0.00    +0.149 HD
ENDROOT
BRANCH   1  27
ATOM     22  C   UNL     1      -3.495   1.580   2.644  0.00  0.00    +0.141 A 
ATOM     23  C   UNL     1      -3.861   0.893   3.791  0.00  0.00    +0.047 A 
ATOM     24  C   UNL     1      -2.895   0.496   4.696  0.00  0.00    +0.004 A 
ATOM     25  C   UNL     1      -1.562   0.777   4.460  0.00  0.00    +0.002 A 
ATOM     26  C   UNL     1      -1.189   1.457   3.316  0.00  0.00    +0.027 A 
ATOM     27  C   UNL     1      -2.152   1.859   2.402  0.00  0.00    +0.081 A 
BRANCH  22  29
ATOM     28  C   UNL     1      -5.801   1.655   2.068  0.00  0.00    +0.277 C 
ATOM     29  O   UNL     1      -4.445   1.976   1.755  0.00  0.00    -0.493 OA
ENDBRANCH  22  29
ENDBRANCH   1  27
BRANCH  18  30
ATOM     30  C   UNL     1      -1.614  -1.931   0.006  0.00  0.00    +0.149 C 
BRANCH  30  31
ATOM     31  C   UNL     1      -1.715  -2.427   1.426  0.00  0.00    -0.028 A 
ATOM     32  C   UNL     1      -2.928  -2.388   2.088  0.00  0.00    +0.005 A 
ATOM     33  C   UNL     1      -3.020  -2.844   3.389  0.00  0.00    +0.003 A 
ATOM     34  C   UNL     1      -1.899  -3.338   4.030  0.00  0.00    +0.033 A 
ATOM     35  C   UNL     1      -0.686  -3.377   3.368  0.00  0.00    +0.127 A 
ATOM     36  C   UNL     1      -0.595  -2.926   2.064  0.00  0.00    +0.038 A 
BRANCH  35  37
ATOM     37  N   UNL     1       0.514  -3.906   4.054  0.00  0.00    +0.056 N 
ATOM     38  O   UNL     1       0.433  -4.308   5.201  0.00  0.00    -0.126 OA
ATOM     39  O   UNL     1       1.583  -3.941   3.471  0.00  0.00    -0.126 OA
ENDBRANCH  35  37
ENDBRANCH  30  31
ENDBRANCH  18  30
TORSDOF 5
