REMARK  Name = ZINC16495936
REMARK  13 active torsions:
REMARK  status: ('A' for Active; 'I' for Inactive)
REMARK    1  A    between atoms: C_1  and  C_2
REMARK    2  A    between atoms: C_2  and  C_3
REMARK    3  A    between atoms: C_3  and  C_4
REMARK    4  A    between atoms: C_4  and  C_5
REMARK    5  A    between atoms: C_5  and  C_7
REMARK    6  A    between atoms: C_5  and  C_9
REMARK    7  A    between atoms: C_7  and  C_8
REMARK    8  A    between atoms: C_17  and  C_21
REMARK    9  A    between atoms: N_23  and  C_24
REMARK   10  A    between atoms: C_24  and  C_25
REMARK   11  A    between atoms: C_25  and  C_26
REMARK   12  A    between atoms: C_31  and  O_32
REMARK   13  A    between atoms: O_32  and  C_33
REMARK                            x       y       z     vdW  Elec       q    Type
REMARK                         _______ _______ _______ _____ _____    ______ ____
ROOT
ATOM      1  C   UNL     1       4.708   5.014   1.512  0.00  0.00    +0.219 C 
ATOM      2  O   UNL     1       4.513   5.574   2.570  0.00  0.00    -0.275 OA
ATOM      3  N   UNL     1       3.796   4.145   1.032  0.00  0.00    -0.301 N 
ATOM      4  C   UNL     1       2.618   3.781   1.831  0.00  0.00    +0.107 C 
ATOM      5  C   UNL     1       1.359   4.045   0.997  0.00  0.00    +0.017 C 
ATOM      6  C   UNL     1       1.481   3.337  -0.343  0.00  0.00    -0.016 C 
ATOM      7  C   UNL     1       2.698   3.812  -1.121  0.00  0.00    +0.017 C 
ATOM      8  C   UNL     1       3.965   3.546  -0.299  0.00  0.00    +0.107 C 
ATOM      9  C   UNL     1       0.147   1.290  -0.172  0.00  0.00    +0.028 C 
ATOM     10  C   UNL     1      -0.637   1.864  -1.391  0.00  0.00    +0.061 C 
ATOM     11  S   UNL     1      -0.040   3.611  -1.334  0.00  0.00    -0.174 S 
ATOM     12  N   UNL     1       1.520   1.860  -0.164  0.00  0.00    +0.397 N 
ATOM     13  H   UNL     1       1.970   1.642   0.733  0.00  0.00    -0.083 HD
ATOM     14  H   UNL     1       2.062   1.442  -0.929  0.00  0.00    -0.083 HD
ENDROOT
BRANCH   9  15
ATOM     15  C   UNL     1       0.236  -0.210  -0.287  0.00  0.00    +0.200 C 
ATOM     16  O   UNL     1       1.320  -0.749  -0.358  0.00  0.00    -0.278 OA
ATOM     17  N   UNL     1      -0.889  -0.952  -0.312  0.00  0.00    -0.316 N 
ATOM     18  H   UNL     1      -1.756  -0.520  -0.255  0.00  0.00    +0.149 HD
BRANCH  17  19
ATOM     19  C   UNL     1      -0.802  -2.410  -0.424  0.00  0.00    +0.109 C 
BRANCH  19  20
ATOM     20  C   UNL     1      -2.211  -3.005  -0.430  0.00  0.00    +0.057 C 
BRANCH  20  21
ATOM     21  C   UNL     1      -2.122  -4.505  -0.545  0.00  0.00    -0.004 A 
ATOM     22  C   UNL     1      -2.218  -5.111  -1.783  0.00  0.00    +0.007 A 
ATOM     23  C   UNL     1      -2.137  -6.486  -1.890  0.00  0.00    +0.000 A 
ATOM     24  C   UNL     1      -1.958  -7.261  -0.758  0.00  0.00    +0.004 A 
ATOM     25  C   UNL     1      -1.861  -6.660   0.482  0.00  0.00    +0.046 A 
ATOM     26  C   UNL     1      -1.938  -5.279   0.591  0.00  0.00    +0.123 A 
BRANCH  26  27
ATOM     27  O   UNL     1      -1.837  -4.686   1.810  0.00  0.00    -0.495 OA
ATOM     28  C   UNL     1      -1.648  -5.545   2.936  0.00  0.00    +0.277 C 
ENDBRANCH  26  27
ENDBRANCH  20  21
ENDBRANCH  19  20
ENDBRANCH  17  19
ENDBRANCH   9  15
BRANCH   1  29
ATOM     29  C   UNL     1       5.969   5.289   0.735  0.00  0.00    +0.075 C 
BRANCH  29  30
ATOM     30  C   UNL     1       7.125   5.534   1.708  0.00  0.00    +0.009 C 
ATOM     31  C   UNL     1       7.414   4.250   2.488  0.00  0.00    +0.004 C 
ENDBRANCH  29  30
BRANCH  29  32
ATOM     32  C   UNL     1       5.769   6.528  -0.140  0.00  0.00    +0.013 C 
BRANCH  32  33
ATOM     33  C   UNL     1       7.003   6.736  -1.021  0.00  0.00    +0.000 C 
BRANCH  33  35
ATOM     34  C   UNL     1       8.037   8.182  -2.776  0.00  0.00    +0.004 C 
ATOM     35  C   UNL     1       6.803   7.975  -1.896  0.00  0.00    -0.003 C 
ENDBRANCH  33  35
ENDBRANCH  32  33
ENDBRANCH  29  32
ENDBRANCH   1  29
TORSDOF 10
