REMARK  Name = ZINC62993135
REMARK  8 active torsions:
REMARK  status: ('A' for Active; 'I' for Inactive)
REMARK    1  A    between atoms: C_1  and  C_2
REMARK    2  A    between atoms: C_2  and  N_3
REMARK    3  A    between atoms: N_3  and  C_4
REMARK    4  A    between atoms: N_3  and  C_6
REMARK    5  A    between atoms: C_4  and  C_5
REMARK    6  A    between atoms: C_9  and  C_12
REMARK    7  A    between atoms: N_24  and  C_27
REMARK    8  A    between atoms: C_27  and  C_28
REMARK                            x       y       z     vdW  Elec       q    Type
REMARK                         _______ _______ _______ _____ _____    ______ ____
ROOT
ATOM      1  C   UNL     1       0.366  -6.101  -1.471  0.00  0.00    +0.058 C 
ATOM      2  C   UNL     1      -0.321  -6.694  -2.479  0.00  0.00    +0.176 C 
ATOM      3  C   UNL     1      -0.585  -8.135  -2.622  0.00  0.00    +0.231 C 
ATOM      4  O   UNL     1      -0.239  -9.034  -1.876  0.00  0.00    -0.283 OA
ATOM      5  C   UNL     1      -1.361  -8.245  -3.870  0.00  0.00    +0.068 A 
ATOM      6  C   UNL     1      -1.914  -9.326  -4.559  0.00  0.00    +0.019 A 
ATOM      7  C   UNL     1      -2.597  -9.113  -5.721  0.00  0.00    +0.047 A 
ATOM      8  C   UNL     1      -2.746  -7.821  -6.225  0.00  0.00    +0.130 A 
ATOM      9  C   UNL     1      -2.205  -6.740  -5.550  0.00  0.00    +0.051 A 
ATOM     10  C   UNL     1      -1.504  -6.940  -4.365  0.00  0.00    +0.147 A 
ATOM     11  O   UNL     1      -0.894  -6.067  -3.534  0.00  0.00    -0.451 OA
ATOM     12  C   UNL     1      -2.365  -5.338  -6.080  0.00  0.00    +0.130 C 
ATOM     13  N   UNL     1      -2.754  -5.388  -7.496  0.00  0.00    -0.262 NA
ATOM     14  C   UNL     1      -3.879  -6.318  -7.681  0.00  0.00    +0.319 C 
ATOM     15  O   UNL     1      -3.429  -7.643  -7.386  0.00  0.00    -0.476 OA
ENDROOT
BRANCH   1  19
ATOM     16  C   UNL     1       0.597  -1.872  -1.264  0.00  0.00    +0.013 A 
ATOM     17  C   UNL     1       0.005  -2.476  -2.360  0.00  0.00    +0.022 A 
ATOM     18  C   UNL     1      -0.074  -3.850  -2.435  0.00  0.00    +0.010 A 
ATOM     19  C   UNL     1       0.446  -4.635  -1.400  0.00  0.00    -0.021 A 
ATOM     20  C   UNL     1       1.043  -4.016  -0.295  0.00  0.00    +0.010 A 
ATOM     21  C   UNL     1       1.119  -2.641  -0.238  0.00  0.00    +0.022 A 
BRANCH  16  22
ATOM     22  N   UNL     1       0.672  -0.477  -1.195  0.00  0.00    -0.394 NA
ATOM     23  H   UNL     1       1.134  -0.207  -0.340  0.00  0.00    +0.126 HD
BRANCH  22  25
ATOM     24  C   UNL     1       1.625   1.540  -2.204  0.00  0.00    +0.022 C 
ATOM     25  C   UNL     1       1.435   0.029  -2.344  0.00  0.00    +0.081 C 
ENDBRANCH  22  25
BRANCH  22  26
ATOM     26  C   UNL     1      -0.683   0.088  -1.220  0.00  0.00    +0.081 C 
ATOM     27  C   UNL     1      -1.437  -0.338   0.041  0.00  0.00    +0.022 C 
ENDBRANCH  22  26
ENDBRANCH  16  22
ENDBRANCH   1  19
BRANCH  13  28
ATOM     28  C   UNL     1      -3.090  -4.048  -7.997  0.00  0.00    +0.123 C 
BRANCH  28  29
ATOM     29  C   UNL     1      -3.243  -4.096  -9.495  0.00  0.00    -0.033 A 
ATOM     30  C   UNL     1      -2.147  -3.879 -10.309  0.00  0.00    +0.005 A 
ATOM     31  C   UNL     1      -2.287  -3.922 -11.684  0.00  0.00    +0.000 A 
ATOM     32  C   UNL     1      -3.523  -4.185 -12.245  0.00  0.00    +0.000 A 
ATOM     33  C   UNL     1      -4.619  -4.403 -11.431  0.00  0.00    +0.000 A 
ATOM     34  C   UNL     1      -4.478  -4.364 -10.056  0.00  0.00    +0.005 A 
ENDBRANCH  28  29
ENDBRANCH  13  28
TORSDOF 6
