REMARK  Name = ZINC58872023
REMARK  10 active torsions:
REMARK  status: ('A' for Active; 'I' for Inactive)
REMARK    1  A    between atoms: C_1  and  C_2
REMARK    2  A    between atoms: C_2  and  O_3
REMARK    3  A    between atoms: O_3  and  C_4
REMARK    4  A    between atoms: C_7  and  N_10
REMARK    5  A    between atoms: C_15  and  C_19
REMARK    6  A    between atoms: N_21  and  N_22
REMARK    7  A    between atoms: C_23  and  C_24
REMARK    8  A    between atoms: C_27  and  O_32
REMARK    9  A    between atoms: C_28  and  O_30
REMARK   10  A    between atoms: O_30  and  C_31
REMARK                            x       y       z     vdW  Elec       q    Type
REMARK                         _______ _______ _______ _____ _____    ______ ____
ROOT
ATOM      1  N   UNL     1       1.102  -5.937  -1.834  0.00  0.00    -0.321 N 
ATOM      2  C   UNL     1       0.588  -6.968  -0.928  0.00  0.00    +0.141 C 
ATOM      3  C   UNL     1       0.939  -8.312  -1.517  0.00  0.00    -0.025 A 
ATOM      4  C   UNL     1       0.688  -9.598  -1.063  0.00  0.00    +0.006 A 
ATOM      5  C   UNL     1       1.117 -10.688  -1.789  0.00  0.00    +0.013 A 
ATOM      6  C   UNL     1       1.808 -10.495  -2.987  0.00  0.00    +0.039 A 
ATOM      7  C   UNL     1       2.057  -9.200  -3.439  0.00  0.00    +0.018 A 
ATOM      8  C   UNL     1       1.622  -8.115  -2.702  0.00  0.00    -0.025 A 
ATOM      9  C   UNL     1       1.747  -6.633  -2.952  0.00  0.00    +0.141 C 
ENDROOT
BRANCH   1  13
ATOM     10  C   UNL     1       0.777  -1.811  -1.336  0.00  0.00    +0.121 A 
ATOM     11  C   UNL     1       0.242  -2.668  -0.386  0.00  0.00    +0.047 A 
ATOM     12  C   UNL     1       0.349  -4.035  -0.550  0.00  0.00    +0.027 A 
ATOM     13  C   UNL     1       0.992  -4.552  -1.667  0.00  0.00    +0.030 A 
ATOM     14  C   UNL     1       1.527  -3.693  -2.618  0.00  0.00    +0.027 A 
ATOM     15  C   UNL     1       1.414  -2.326  -2.455  0.00  0.00    +0.047 A 
BRANCH  10  16
ATOM     16  O   UNL     1       0.671  -0.465  -1.174  0.00  0.00    -0.492 OA
BRANCH  16  18
ATOM     17  C   UNL     1      -0.019   1.526   0.010  0.00  0.00    +0.048 C 
ATOM     18  C   UNL     1       0.002  -0.004   0.002  0.00  0.00    +0.225 C 
ENDBRANCH  16  18
ENDBRANCH  10  16
ENDBRANCH   1  13
BRANCH   6  19
ATOM     19  C   UNL     1       2.272 -11.659  -3.772  0.00  0.00    +0.263 C 
ATOM     20  O   UNL     1       2.873 -11.487  -4.815  0.00  0.00    -0.268 OA
ATOM     21  N   UNL     1       2.030 -12.909  -3.331  0.00  0.00    -0.203 N 
ATOM     22  H   UNL     1       1.550 -13.046  -2.499  0.00  0.00    +0.178 HD
BRANCH  21  23
ATOM     23  N   UNL     1       2.470 -14.011  -4.075  0.00  0.00    -0.187 NA
ATOM     24  C   UNL     1       2.236 -15.216  -3.651  0.00  0.00    +0.138 C 
BRANCH  24  25
ATOM     25  C   UNL     1       2.700 -16.376  -4.434  0.00  0.00    -0.002 A 
ATOM     26  C   UNL     1       3.395 -16.181  -5.630  0.00  0.00    +0.013 A 
ATOM     27  C   UNL     1       3.828 -17.268  -6.360  0.00  0.00    +0.050 A 
ATOM     28  C   UNL     1       3.574 -18.555  -5.911  0.00  0.00    +0.158 A 
ATOM     29  C   UNL     1       2.881 -18.757  -4.719  0.00  0.00    +0.162 A 
ATOM     30  C   UNL     1       2.449 -17.673  -3.978  0.00  0.00    +0.058 A 
BRANCH  29  31
ATOM     31  O   UNL     1       2.633 -20.021  -4.283  0.00  0.00    -0.491 OA
ATOM     32  C   UNL     1       1.917 -20.154  -3.053  0.00  0.00    +0.277 C 
ENDBRANCH  29  31
BRANCH  28  33
ATOM     33  O   UNL     1       4.003 -19.623  -6.635  0.00  0.00    -0.503 OA
ATOM     34  H   UNL     1       4.890 -19.927  -6.400  0.00  0.00    +0.292 HD
ENDBRANCH  28  33
ENDBRANCH  24  25
ENDBRANCH  21  23
ENDBRANCH   6  19
TORSDOF 8
