REMARK  Name = ZINC39467595
REMARK  8 active torsions:
REMARK  status: ('A' for Active; 'I' for Inactive)
REMARK    1  A    between atoms: C_1  and  C_2
REMARK    2  A    between atoms: C_2  and  O_3
REMARK    3  A    between atoms: O_3  and  C_4
REMARK    4  A    between atoms: C_16  and  S_17
REMARK    5  A    between atoms: S_17  and  O_20
REMARK    6  A    between atoms: O_20  and  C_21
REMARK    7  A    between atoms: P_29  and  C_32
REMARK    8  A    between atoms: C_37  and  O_38
REMARK                            x       y       z     vdW  Elec       q    Type
REMARK                         _______ _______ _______ _____ _____    ______ ____
ROOT
ATOM      1  C   UNL     1      -1.498  -1.848   0.006  0.00  0.00    +0.145 C 
ATOM      2  C   UNL     1      -0.432  -2.654  -0.003  0.00  0.00    +0.023 C 
ATOM      3  C   UNL     1      -0.631  -4.145  -0.021  0.00  0.00    +0.008 C 
ATOM      4  C   UNL     1       0.596  -4.845  -0.587  0.00  0.00    -0.046 C 
ATOM      5  N   UNL     1       0.843  -4.441  -1.981  0.00  0.00    +0.398 N 
ATOM      6  C   UNL     1      -0.299  -4.801  -2.824  0.00  0.00    -0.020 C 
ATOM      7  C   UNL     1      -1.567  -4.099  -2.323  0.00  0.00    -0.003 C 
ATOM      8  C   UNL     1      -1.843  -4.489  -0.891  0.00  0.00    +0.018 C 
ATOM      9  C   UNL     1      -3.029  -3.684  -0.416  0.00  0.00    +0.011 C 
ATOM     10  C   UNL     1      -2.851  -2.438   0.016  0.00  0.00    +0.166 C 
ATOM     11  C   UNL     1      -0.089  -4.358  -4.277  0.00  0.00    +0.157 C 
ATOM     12  O   UNL     1       1.064  -5.024  -4.821  0.00  0.00    -0.316 OA
ATOM     13  P   UNL     1       2.443  -4.972  -3.958  0.00  0.00    +0.291 P 
ATOM     14  O   UNL     1       3.131  -3.678  -4.169  0.00  0.00    -0.269 OA
ATOM     15  N   UNL     1       1.972  -5.125  -2.379  0.00  0.00    -0.288 NA
ATOM     16  H   UNL     1       2.473  -5.672  -1.754  0.00  0.00    +0.111 HD
ATOM     17  H   UNL     1       1.014  -3.448  -2.023  0.00  0.00    -0.055 HD
ENDROOT
BRANCH  13  18
ATOM     18  C   UNL     1       3.531  -6.345  -4.427  0.00  0.00    +0.091 A 
ATOM     19  C   UNL     1       3.441  -7.555  -3.766  0.00  0.00    +0.018 A 
ATOM     20  C   UNL     1       4.270  -8.602  -4.122  0.00  0.00    +0.001 A 
ATOM     21  C   UNL     1       5.192  -8.442  -5.141  0.00  0.00    +0.004 A 
ATOM     22  C   UNL     1       5.286  -7.234  -5.805  0.00  0.00    +0.046 A 
ATOM     23  C   UNL     1       4.451  -6.183  -5.452  0.00  0.00    +0.131 A 
BRANCH  23  24
ATOM     24  O   UNL     1       4.538  -4.996  -6.108  0.00  0.00    -0.506 OA
ATOM     25  H   UNL     1       5.165  -4.374  -5.714  0.00  0.00    +0.292 HD
ENDBRANCH  23  24
ENDBRANCH  13  18
BRANCH  10  26
ATOM     26  S   UNL     1      -4.223  -1.494   0.592  0.00  0.00    +0.154 S 
ATOM     27  O   UNL     1      -4.088  -0.197   0.027  0.00  0.00    -0.131 OA
ATOM     28  O   UNL     1      -5.380  -2.295   0.392  0.00  0.00    -0.131 OA
BRANCH  26  29
ATOM     29  O   UNL     1      -4.059  -1.333   2.096  0.00  0.00    -0.342 OA
BRANCH  29  30
ATOM     30  C   UNL     1      -3.105  -0.434   2.455  0.00  0.00    +0.157 A 
ATOM     31  C   UNL     1      -1.794  -0.848   2.637  0.00  0.00    +0.048 A 
ATOM     32  C   UNL     1      -0.826   0.068   3.002  0.00  0.00    +0.004 A 
ATOM     33  C   UNL     1      -1.164   1.396   3.186  0.00  0.00    +0.000 A 
ATOM     34  C   UNL     1      -2.470   1.811   3.006  0.00  0.00    +0.004 A 
ATOM     35  C   UNL     1      -3.440   0.900   2.635  0.00  0.00    +0.048 A 
ENDBRANCH  29  30
ENDBRANCH  26  29
ENDBRANCH  10  26
BRANCH   1  36
ATOM     36  O   UNL     1      -1.339  -0.499   0.012  0.00  0.00    -0.491 OA
BRANCH  36  38
ATOM     37  C   UNL     1      -0.019   1.526   0.010  0.00  0.00    +0.048 C 
ATOM     38  C   UNL     1       0.002  -0.004   0.002  0.00  0.00    +0.226 C 
ENDBRANCH  36  38
ENDBRANCH   1  36
TORSDOF 7
