REMARK  Name = ZINC09606822
REMARK  8 active torsions:
REMARK  status: ('A' for Active; 'I' for Inactive)
REMARK    1  A    between atoms: C_1  and  C_2
REMARK    2  A    between atoms: C_2  and  C_3
REMARK    3  A    between atoms: C_3  and  N_4
REMARK    4  A    between atoms: C_7  and  C_10
REMARK    5  A    between atoms: N_19  and  C_20
REMARK    6  A    between atoms: C_25  and  C_26
REMARK    7  A    between atoms: C_26  and  O_28
REMARK    8  A    between atoms: O_28  and  C_29
REMARK                            x       y       z     vdW  Elec       q    Type
REMARK                         _______ _______ _______ _____ _____    ______ ____
ROOT
ATOM      1  N   UNL     1       3.575   1.922  -0.032  0.00  0.00    -0.234 N 
ATOM      2  C   UNL     1       2.289   1.397  -0.017  0.00  0.00    +0.169 A 
ATOM      3  N   UNL     1       1.130   2.028   0.015  0.00  0.00    -0.224 NA
ATOM      4  C   UNL     1      -0.016   1.363   0.024  0.00  0.00    +0.080 A 
ATOM      5  C   UNL     1       0.003  -0.004   0.001  0.00  0.00    +0.076 A 
ATOM      6  S   UNL     1       1.764  -0.311  -0.037  0.00  0.00    -0.060 S 
ATOM      7  C   UNL     1       3.759   3.257  -0.012  0.00  0.00    +0.312 C 
ATOM      8  O   UNL     1       2.799   4.002   0.018  0.00  0.00    -0.252 OA
ATOM      9  N   UNL     1       5.007   3.766  -0.027  0.00  0.00    -0.268 N 
ATOM     10  H   UNL     1       5.773   3.173   0.032  0.00  0.00    +0.156 HD
ENDROOT
BRANCH   4  11
ATOM     11  C   UNL     1      -1.306   2.094   0.054  0.00  0.00    +0.002 A 
ATOM     12  C   UNL     1      -1.320   3.487   0.078  0.00  0.00    +0.010 A 
ATOM     13  C   UNL     1      -2.523   4.163   0.105  0.00  0.00    +0.002 A 
ATOM     14  C   UNL     1      -3.714   3.460   0.110  0.00  0.00    +0.015 A 
ATOM     15  C   UNL     1      -3.707   2.076   0.086  0.00  0.00    +0.019 A 
ATOM     16  C   UNL     1      -2.509   1.390   0.052  0.00  0.00    +0.025 A 
ATOM     17 BR   UNL     1      -5.340   1.123   0.092  0.00  0.00    -0.050 Br
ENDBRANCH   4  11
BRANCH   9  18
ATOM     18  C   UNL     1       5.197   5.141  -0.125  0.00  0.00    +0.049 A 
ATOM     19  C   UNL     1       4.226   5.939  -0.716  0.00  0.00    +0.024 A 
ATOM     20  C   UNL     1       4.414   7.303  -0.807  0.00  0.00    +0.002 A 
ATOM     21  C   UNL     1       5.574   7.886  -0.322  0.00  0.00    +0.001 A 
ATOM     22  C   UNL     1       6.550   7.110   0.263  0.00  0.00    +0.017 A 
ATOM     23  C   UNL     1       6.372   5.728   0.368  0.00  0.00    +0.080 A 
BRANCH  23  24
ATOM     24  C   UNL     1       7.413   4.892   0.992  0.00  0.00    +0.341 C 
ATOM     25  O   UNL     1       7.296   3.682   1.001  0.00  0.00    -0.245 OA
BRANCH  24  26
ATOM     26  O   UNL     1       8.494   5.469   1.554  0.00  0.00    -0.464 OA
ATOM     27  C   UNL     1       9.478   4.583   2.150  0.00  0.00    +0.280 C 
ENDBRANCH  24  26
ENDBRANCH  23  24
ENDBRANCH   9  18
BRANCH   1  28
ATOM     28  C   UNL     1       4.732   1.024  -0.069  0.00  0.00    +0.117 C 
BRANCH  28  30
ATOM     29  C   UNL     1       6.316  -0.202  -1.562  0.00  0.00    +0.005 C 
ATOM     30  C   UNL     1       5.108   0.736  -1.524  0.00  0.00    +0.016 C 
ENDBRANCH  28  30
ENDBRANCH   1  28
TORSDOF 6
