REMARK  Name = ZINC35829865
REMARK  7 active torsions:
REMARK  status: ('A' for Active; 'I' for Inactive)
REMARK    1  A    between atoms: C_1  and  C_2
REMARK    2  A    between atoms: C_2  and  C_3
REMARK    3  A    between atoms: C_2  and  N_4
REMARK    4  A    between atoms: N_4  and  C_5
REMARK    5  A    between atoms: C_5  and  C_6
REMARK    6  A    between atoms: C_16  and  C_18
REMARK    7  A    between atoms: N_27  and  C_28
REMARK                            x       y       z     vdW  Elec       q    Type
REMARK                         _______ _______ _______ _____ _____    ______ ____
ROOT
ATOM      1  C   UNL     1      -2.886  -1.567  -0.583  0.00  0.00    +0.205 C 
ENDROOT
BRANCH   1   2
ATOM      2  C   UNL     1      -2.313  -2.956  -0.474  0.00  0.00    +0.234 C 
ATOM      3  O   UNL     1      -1.873  -3.349   0.586  0.00  0.00    -0.274 OA
ATOM      4  N   UNL     1      -2.289  -3.762  -1.554  0.00  0.00    -0.286 N 
ATOM      5  C   UNL     1      -2.712  -3.272  -2.874  0.00  0.00    +0.130 C 
ATOM      6  C   UNL     1      -1.516  -3.295  -3.831  0.00  0.00    +0.140 C 
ATOM      7  N   UNL     1      -0.821  -4.581  -3.704  0.00  0.00    -0.347 N 
ATOM      8  C   UNL     1       0.045  -5.134  -4.596  0.00  0.00    +0.086 A 
ATOM      9  C   UNL     1       0.468  -6.315  -4.098  0.00  0.00    +0.019 A 
ATOM     10  C   UNL     1      -0.164  -6.500  -2.851  0.00  0.00    +0.025 A 
ATOM     11  C   UNL     1      -0.946  -5.430  -2.638  0.00  0.00    +0.044 A 
ATOM     12  C   UNL     1      -1.831  -5.160  -1.448  0.00  0.00    +0.153 C 
BRANCH  12  13
ATOM     13  C   UNL     1      -1.050  -5.350  -0.173  0.00  0.00    -0.019 A 
ATOM     14  C   UNL     1       0.042  -4.545   0.095  0.00  0.00    +0.006 A 
ATOM     15  C   UNL     1       0.759  -4.718   1.264  0.00  0.00    +0.003 A 
ATOM     16  C   UNL     1       0.386  -5.697   2.165  0.00  0.00    +0.038 A 
ATOM     17  C   UNL     1      -0.707  -6.504   1.898  0.00  0.00    +0.124 A 
ATOM     18  C   UNL     1      -1.428  -6.325   0.730  0.00  0.00    +0.044 A 
ATOM     19  F   UNL     1      -1.072  -7.461   2.779  0.00  0.00    -0.205 F 
ENDBRANCH  12  13
ENDBRANCH   1   2
BRANCH   1  20
ATOM     20  N   UNL     1      -2.797  -0.898   0.718  0.00  0.00    -0.274 N 
ATOM     21  C   UNL     1      -3.811  -1.004   1.600  0.00  0.00    +0.303 C 
ATOM     22  O   UNL     1      -4.835  -1.577   1.284  0.00  0.00    -0.253 OA
ATOM     23  N   UNL     1      -3.688  -0.474   2.833  0.00  0.00    -0.294 N 
ATOM     24  H   UNL     1      -2.901   0.046   3.062  0.00  0.00    +0.151 HD
BRANCH  23  25
ATOM     25  C   UNL     1      -4.742  -0.682   3.828  0.00  0.00    +0.037 C 
ATOM     26  C   UNL     1      -6.058  -0.102   3.306  0.00  0.00    +0.029 C 
ATOM     27  C   UNL     1      -7.160  -0.320   4.345  0.00  0.00    -0.008 C 
ATOM     28  C   UNL     1      -6.776   0.381   5.650  0.00  0.00    +0.007 C 
ATOM     29  C   UNL     1      -5.460  -0.199   6.172  0.00  0.00    -0.008 C 
ATOM     30  C   UNL     1      -4.358   0.019   5.133  0.00  0.00    +0.029 C 
ATOM     31  C   UNL     1      -5.629  -1.697   6.429  0.00  0.00    +0.007 C 
ATOM     32  C   UNL     1      -6.013  -2.398   5.125  0.00  0.00    -0.008 C 
ATOM     33  C   UNL     1      -7.329  -1.818   4.603  0.00  0.00    +0.007 C 
ATOM     34  C   UNL     1      -4.912  -2.181   4.086  0.00  0.00    +0.029 C 
ENDBRANCH  23  25
BRANCH  20  36
ATOM     35  C   UNL     1      -0.359  -0.984   0.887  0.00  0.00    +0.028 C 
ATOM     36  C   UNL     1      -1.607  -0.115   1.058  0.00  0.00    +0.072 C 
ATOM     37  C   UNL     1      -1.514   1.100   0.134  0.00  0.00    +0.028 C 
ENDBRANCH  20  36
ENDBRANCH   1  20
TORSDOF 5
