REMARK  Name = ZINC09805957
REMARK  13 active torsions:
REMARK  status: ('A' for Active; 'I' for Inactive)
REMARK    1  A    between atoms: C_1  and  C_2
REMARK    2  A    between atoms: C_2  and  C_3
REMARK    3  A    between atoms: C_2  and  C_4
REMARK    4  A    between atoms: C_2  and  C_5
REMARK    5  A    between atoms: C_7  and  C_16
REMARK    6  A    between atoms: C_9  and  C_12
REMARK    7  A    between atoms: C_10  and  O_11
REMARK    8  A    between atoms: C_12  and  C_13
REMARK    9  A    between atoms: C_12  and  C_14
REMARK   10  A    between atoms: C_12  and  C_15
REMARK   11  A    between atoms: C_16  and  N_81
REMARK   12  A    between atoms: C_19  and  C_22
REMARK   13  A    between atoms: N_27  and  C_30
REMARK                            x       y       z     vdW  Elec       q    Type
REMARK                         _______ _______ _______ _____ _____    ______ ____
ROOT
ATOM      1  C   UNL     1       2.737   2.036  -2.220  0.00  0.00    -0.078 C 
ATOM      2  C   UNL     1       3.039   1.712  -3.685  0.00  0.00    -0.006 C 
ATOM      3  C   UNL     1       4.473   1.190  -3.803  0.00  0.00    +0.072 C 
ATOM      4  C   UNL     1       4.635  -0.041  -2.908  0.00  0.00    -0.006 C 
ATOM      5  C   UNL     1       4.287   0.333  -1.465  0.00  0.00    -0.078 C 
ATOM      6  N   UNL     1       2.886   0.804  -1.416  0.00  0.00    +0.382 N 
ATOM      7  H   UNL     1       2.276   0.076  -1.806  0.00  0.00    -0.081 HD
ENDROOT
BRANCH   3   8
ATOM      8  C   UNL     1       4.757   0.814  -5.234  0.00  0.00    +0.219 C 
ATOM      9  O   UNL     1       3.876   0.347  -5.924  0.00  0.00    -0.275 OA
ATOM     10  N   UNL     1       5.990   0.996  -5.747  0.00  0.00    -0.298 N 
ATOM     11  C   UNL     1       7.100   1.456  -4.899  0.00  0.00    +0.126 C 
ATOM     12  C   UNL     1       8.287   0.499  -5.097  0.00  0.00    +0.124 C 
ATOM     13  N   UNL     1       8.598   0.403  -6.529  0.00  0.00    -0.325 N 
ATOM     14  C   UNL     1       7.478  -0.178  -7.281  0.00  0.00    +0.124 C 
ATOM     15  C   UNL     1       6.259   0.745  -7.171  0.00  0.00    +0.126 C 
BRANCH  13  16
ATOM     16  C   UNL     1       9.773  -0.325  -6.739  0.00  0.00    +0.065 A 
ATOM     17  C   UNL     1      10.289  -0.460  -8.021  0.00  0.00    +0.026 A 
ATOM     18  C   UNL     1      11.452  -1.176  -8.225  0.00  0.00    +0.002 A 
ATOM     19  C   UNL     1      12.100  -1.767  -7.155  0.00  0.00    +0.003 A 
ATOM     20  C   UNL     1      11.588  -1.639  -5.877  0.00  0.00    +0.040 A 
ATOM     21  C   UNL     1      10.426  -0.920  -5.665  0.00  0.00    +0.144 A 
ATOM     22  F   UNL     1       9.925  -0.796  -4.416  0.00  0.00    -0.204 F 
ENDBRANCH  13  16
ENDBRANCH   3   8
BRANCH   6  23
ATOM     23  C   UNL     1       2.490   1.064  -0.017  0.00  0.00    -0.043 C 
BRANCH  23  26
ATOM     24  C   UNL     1      -1.223   1.744   0.013  0.00  0.00    -0.000 A 
ATOM     25  C   UNL     1      -0.013   1.078   0.008  0.00  0.00    +0.009 A 
ATOM     26  C   UNL     1       1.171   1.793  -0.005  0.00  0.00    -0.063 A 
ATOM     27  C   UNL     1       1.146   3.175  -0.006  0.00  0.00    +0.009 A 
ATOM     28  C   UNL     1      -0.061   3.846   0.005  0.00  0.00    -0.000 A 
ATOM     29  C   UNL     1      -1.250   3.131   0.018  0.00  0.00    +0.124 A 
BRANCH  24  31
ATOM     30  C   UNL     1      -2.203  -0.534   0.019  0.00  0.00    +0.015 C 
ATOM     31  C   UNL     1      -2.513   0.965   0.020  0.00  0.00    -0.009 C 
ATOM     32  C   UNL     1      -3.316   1.319   1.273  0.00  0.00    +0.015 C 
ATOM     33  C   UNL     1      -3.329   1.317  -1.226  0.00  0.00    +0.015 C 
ENDBRANCH  24  31
BRANCH  28  34
ATOM     34  C   UNL     1      -0.087   5.353   0.004  0.00  0.00    -0.009 C 
ATOM     35  C   UNL     1       1.346   5.888  -0.011  0.00  0.00    +0.015 C 
ATOM     36  C   UNL     1      -0.830   5.849  -1.239  0.00  0.00    +0.015 C 
ATOM     37  C   UNL     1      -0.805   5.852   1.260  0.00  0.00    +0.015 C 
ENDBRANCH  28  34
BRANCH  29  38
ATOM     38  O   UNL     1      -2.440   3.789   0.029  0.00  0.00    -0.506 OA
ATOM     39  H   UNL     1      -2.793   3.978  -0.851  0.00  0.00    +0.292 HD
ENDBRANCH  29  38
ENDBRANCH  23  26
ENDBRANCH   6  23
TORSDOF 7
