REMARK  Name = ZINC58407187
REMARK  13 active torsions:
REMARK  status: ('A' for Active; 'I' for Inactive)
REMARK    1  A    between atoms: C_1  and  C_2
REMARK    2  A    between atoms: C_2  and  O_3
REMARK    3  A    between atoms: O_3  and  C_4
REMARK    4  A    between atoms: C_4  and  C_6
REMARK    5  A    between atoms: C_10  and  N_11
REMARK    6  A    between atoms: C_12  and  C_14
REMARK    7  A    between atoms: C_14  and  C_28
REMARK    8  A    between atoms: C_15  and  C_16
REMARK    9  A    between atoms: C_17  and  C_27
REMARK   10  A    between atoms: N_19  and  C_22
REMARK   11  A    between atoms: C_20  and  C_21
REMARK   12  A    between atoms: C_22  and  C_23
REMARK   13  A    between atoms: C_23  and  C_24
REMARK                            x       y       z     vdW  Elec       q    Type
REMARK                         _______ _______ _______ _____ _____    ______ ____
ROOT
ATOM      1  N   UNL     1       3.499  -2.750   2.067  0.00  0.00    -0.275 N 
ATOM      2  C   UNL     1       4.846  -2.769   2.094  0.00  0.00    +0.259 C 
ATOM      3  O   UNL     1       5.430  -3.076   3.117  0.00  0.00    -0.269 OA
ATOM      4  H   UNL     1       3.034  -2.505   1.252  0.00  0.00    +0.156 HD
ENDROOT
BRANCH   1   9
ATOM      5  C   UNL     1       1.401  -3.115   3.360  0.00  0.00    +0.091 A 
ATOM      6  C   UNL     1       0.891  -3.503   4.664  0.00  0.00    -0.021 A 
ATOM      7  C   UNL     1       1.851  -3.779   5.572  0.00  0.00    -0.004 A 
ATOM      8  S   UNL     1       3.373  -3.528   4.708  0.00  0.00    -0.077 S 
ATOM      9  C   UNL     1       2.779  -3.080   3.203  0.00  0.00    +0.087 A 
ATOM     10  C   UNL     1       1.648  -4.202   6.995  0.00  0.00    +0.043 C 
ATOM     11  C   UNL     1       0.190  -3.913   7.380  0.00  0.00    +0.005 C 
ATOM     12  C   UNL     1      -0.730  -4.453   6.282  0.00  0.00    +0.005 C 
ATOM     13  C   UNL     1      -0.586  -3.604   5.017  0.00  0.00    +0.037 C 
BRANCH   5  14
ATOM     14  C   UNL     1       0.499  -2.781   2.256  0.00  0.00    +0.342 C 
ATOM     15  O   UNL     1       0.116  -3.652   1.498  0.00  0.00    -0.245 OA
BRANCH  14  16
ATOM     16  O   UNL     1       0.092  -1.507   2.079  0.00  0.00    -0.461 OA
BRANCH  16  18
ATOM     17  C   UNL     1      -1.137   0.236   0.943  0.00  0.00    +0.048 C 
ATOM     18  C   UNL     1      -0.788  -1.253   0.982  0.00  0.00    +0.229 C 
ENDBRANCH  16  18
ENDBRANCH  14  16
ENDBRANCH   5  14
ENDBRANCH   1   9
BRANCH   2  19
ATOM     19  C   UNL     1       5.611  -2.419   0.889  0.00  0.00    +0.114 C 
ATOM     20  C   UNL     1       6.982  -2.565   0.875  0.00  0.00    +0.035 C 
BRANCH  20  21
ATOM     21  C   UNL     1       7.660  -3.213   1.998  0.00  0.00    +0.020 A 
ATOM     22  C   UNL     1       7.469  -4.544   2.443  0.00  0.00    +0.067 A 
ATOM     23  N   UNL     1       8.254  -4.743   3.465  0.00  0.00    -0.176 NA
ATOM     24  N   UNL     1       8.974  -3.572   3.724  0.00  0.00    -0.267 N 
ATOM     25  C   UNL     1       8.616  -2.642   2.825  0.00  0.00    +0.044 A 
ATOM     26  C   UNL     1       9.151  -1.236   2.734  0.00  0.00    +0.066 C 
ATOM     27  C   UNL     1       6.525  -5.553   1.841  0.00  0.00    +0.068 C 
BRANCH  24  28
ATOM     28  C   UNL     1       9.959  -3.393   4.793  0.00  0.00    +0.155 C 
BRANCH  28  29
ATOM     29  C   UNL     1      11.348  -3.778   4.277  0.00  0.00    +0.148 C 
BRANCH  29  30
ATOM     30  C   UNL     1      12.361  -3.594   5.377  0.00  0.00    +0.358 C 
ATOM     31  O   UNL     1      12.006  -3.192   6.472  0.00  0.00    -0.246 OA
ATOM     32  O   UNL     1      13.536  -3.846   5.172  0.00  0.00    -0.246 OA
ENDBRANCH  29  30
ENDBRANCH  28  29
ENDBRANCH  24  28
ENDBRANCH  20  21
BRANCH  19  33
ATOM     33  C   UNL     1       4.931  -1.926  -0.272  0.00  0.00    +0.104 C 
ATOM     34  N   UNL     1       4.392  -1.535  -1.192  0.00  0.00    -0.191 NA
ENDBRANCH  19  33
ENDBRANCH   2  19
TORSDOF 10
