REMARK  Name = ZINC12885481
REMARK  18 active torsions:
REMARK  status: ('A' for Active; 'I' for Inactive)
REMARK    1  A    between atoms: C_1  and  C_2
REMARK    2  A    between atoms: C_2  and  C_3
REMARK    3  A    between atoms: C_2  and  C_4
REMARK    4  A    between atoms: C_4  and  C_6
REMARK    5  A    between atoms: C_4  and  N_27
REMARK    6  A    between atoms: N_8  and  C_9
REMARK    7  A    between atoms: C_9  and  C_10
REMARK    8  A    between atoms: C_13  and  C_16
REMARK    9  A    between atoms: N_18  and  CA_19
REMARK   10  A    between atoms: CA_19  and  CB_21
REMARK   11  A    between atoms: CA_19  and  C_25
REMARK   12  A    between atoms: CB_21  and  CG2_23
REMARK   13  A    between atoms: CB_21  and  OG1_24
REMARK   14  A    between atoms: C_28  and  O_30
REMARK   15  A    between atoms: O_30  and  C_31
REMARK   16  A    between atoms: C_31  and  C_32
REMARK   17  A    between atoms: C_31  and  C_33
REMARK   18  A    between atoms: C_31  and  C_34
REMARK                            x       y       z     vdW  Elec       q    Type
REMARK                         _______ _______ _______ _____ _____    ______ ____
ROOT
ATOM      1  C   UNK A   0      -1.466   3.603   2.534  0.00  0.00    +0.107 C 
ENDROOT
BRANCH   1   2
ATOM      2  C   UNK A   0      -0.750   3.109   1.275  0.00  0.00    +0.006 C 
ATOM      3  C   UNK A   0      -0.729   1.579   1.267  0.00  0.00    +0.006 C 
ATOM      4  C   UNK A   0      -0.013   1.086   0.008  0.00  0.00    +0.013 C 
ATOM      5  C   UNK A   0      -0.753   1.593  -1.232  0.00  0.00    +0.075 C 
ATOM      6  C   UNK A   0      -0.773   3.123  -1.223  0.00  0.00    +0.013 C 
ATOM      7  C   UNK A   0      -1.490   3.616   0.036  0.00  0.00    +0.006 C 
BRANCH   5   8
ATOM      8  C   UNK A   0      -0.047   1.107  -2.471  0.00  0.00    +0.217 C 
ATOM      9  O   UNK A   0       0.949   0.422  -2.373  0.00  0.00    -0.275 OA
ATOM     10  N   THR A   1      -0.524   1.433  -3.689  0.00  0.00    -0.300 N 
ATOM     11  H   THR A   1      -1.321   1.980  -3.768  0.00  0.00    +0.150 HD
BRANCH  10  12
ATOM     12  CA  THR A   1       0.162   0.960  -4.895  0.00  0.00    +0.215 C 
BRANCH  12  13
ATOM     13  C   THR A   1       1.282   1.907  -5.239  0.00  0.00    +0.378 C 
ATOM     14  O   THR A   1       1.487   2.877  -4.548  0.00  0.00    -0.244 OA
ATOM     15  OXT THR A   1       2.053   1.673  -6.313  0.00  0.00    -0.244 OA
ENDBRANCH  12  13
BRANCH  12  16
ATOM     16  CB  THR A   1      -0.832   0.901  -6.057  0.00  0.00    +0.143 C 
ATOM     17  CG2 THR A   1      -0.148   0.291  -7.282  0.00  0.00    +0.040 C 
BRANCH  16  18
ATOM     18  OG1 THR A   1      -1.278   2.223  -6.369  0.00  0.00    -0.390 OA
ATOM     19  HG1 THR A   1      -0.569   2.826  -6.630  0.00  0.00    +0.210 HD
ENDBRANCH  16  18
ENDBRANCH  12  16
ENDBRANCH  10  12
ENDBRANCH   5   8
ENDBRANCH   1   2
BRANCH   1  22
ATOM     20  C   UNK A   0      -1.134   3.550   4.947  0.00  0.00    +0.234 C 
ATOM     21  O   UNK A   0      -2.172   4.165   5.074  0.00  0.00    -0.274 OA
ATOM     22  N   UNK A   0      -0.693   3.219   3.718  0.00  0.00    -0.314 N 
ATOM     23  H   UNK A   0       0.137   2.727   3.617  0.00  0.00    +0.149 HD
BRANCH  20  24
ATOM     24  C   UNK A   0      -0.339   3.155   6.165  0.00  0.00    +0.165 C 
BRANCH  24  25
ATOM     25  N   UNK A   0      -1.025   3.627   7.370  0.00  0.00    -0.270 N 
ATOM     26  C   UNK A   0      -0.324   3.856   8.499  0.00  0.00    +0.401 C 
ATOM     27  O   UNK A   0       0.877   3.669   8.517  0.00  0.00    -0.226 OA
ATOM     28  H   UNK A   0      -1.983   3.776   7.356  0.00  0.00    +0.153 HD
BRANCH  26  29
ATOM     29  O   UNK A   0      -0.954   4.290   9.607  0.00  0.00    -0.445 OA
BRANCH  29  30
ATOM     30  C   UNK A   0      -0.136   4.514  10.785  0.00  0.00    +0.107 C 
ATOM     31  C   UNK A   0       0.926   5.571  10.475  0.00  0.00    +0.055 C 
ATOM     32  C   UNK A   0      -1.021   5.001  11.934  0.00  0.00    +0.055 C 
ATOM     33  C   UNK A   0       0.548   3.206  11.188  0.00  0.00    +0.055 C 
ENDBRANCH  29  30
ENDBRANCH  26  29
ENDBRANCH  24  25
BRANCH  24  35
ATOM     34  C   UNK A   0       0.600   1.231   7.453  0.00  0.00    +0.009 C 
ATOM     35  C   UNK A   0      -0.208   1.632   6.217  0.00  0.00    +0.012 C 
ATOM     36  C   UNK A   0      -1.600   1.002   6.291  0.00  0.00    +0.009 C 
ENDBRANCH  24  35
ENDBRANCH  20  24
ENDBRANCH   1  22
TORSDOF 12
