REMARK  Name = ZINC39665459
REMARK  9 active torsions:
REMARK  status: ('A' for Active; 'I' for Inactive)
REMARK    1  A    between atoms: C_1  and  C_2
REMARK    2  A    between atoms: C_7  and  C_8
REMARK    3  A    between atoms: C_8  and  C_9
REMARK    4  A    between atoms: C_13  and  C_22
REMARK    5  A    between atoms: N_24  and  C_25
REMARK    6  A    between atoms: C_25  and  C_26
REMARK    7  A    between atoms: C_26  and  C_28
REMARK    8  A    between atoms: C_26  and  O_29
REMARK    9  A    between atoms: O_29  and  C_30
REMARK                            x       y       z     vdW  Elec       q    Type
REMARK                         _______ _______ _______ _____ _____    ______ ____
ROOT
ATOM      1  C   UNL     1      -3.599  -0.085   4.006  0.00  0.00    +0.220 C 
ATOM      2  O   UNL     1      -4.711  -0.325   3.584  0.00  0.00    -0.275 OA
ATOM      3  N   UNL     1      -3.443   0.739   5.061  0.00  0.00    -0.300 N 
ATOM      4  C   UNL     1      -2.177   1.154   5.710  0.00  0.00    +0.121 C 
ATOM      5  C   UNL     1      -2.383   2.648   6.048  0.00  0.00    +0.100 C 
ATOM      6  C   UNL     1      -3.909   2.824   6.131  0.00  0.00    -0.004 C 
ATOM      7  C   UNL     1      -4.499   1.438   5.832  0.00  0.00    +0.115 C 
ATOM      8  C   UNL     1      -4.383   3.829   5.086  0.00  0.00    -0.010 C 
ATOM      9  C   UNL     1      -5.894   4.031   5.226  0.00  0.00    -0.082 C 
ATOM     10  N   UNL     1      -6.201   4.517   6.577  0.00  0.00    +0.379 N 
ATOM     11  C   UNL     1      -5.827   3.505   7.571  0.00  0.00    -0.082 C 
ATOM     12  C   UNL     1      -4.313   3.281   7.530  0.00  0.00    -0.010 C 
ATOM     13  H   UNL     1      -5.685   5.366   6.753  0.00  0.00    -0.086 HD
ATOM     14  H   UNL     1      -7.190   4.707   6.648  0.00  0.00    -0.086 HD
ENDROOT
BRANCH   5  15
ATOM     15  C   UNL     1      -1.741   2.980   7.370  0.00  0.00    +0.218 C 
ATOM     16  O   UNL     1      -1.674   2.138   8.240  0.00  0.00    -0.275 OA
ATOM     17  N   UNL     1      -1.242   4.213   7.586  0.00  0.00    -0.312 N 
ATOM     18  H   UNL     1      -1.296   4.887   6.890  0.00  0.00    +0.149 HD
BRANCH  17  19
ATOM     19  C   UNL     1      -0.618   4.536   8.872  0.00  0.00    +0.148 C 
BRANCH  19  20
ATOM     20  C   UNL     1      -0.139   5.989   8.855  0.00  0.00    +0.187 C 
ATOM     21  C   UNL     1       0.623   6.290  10.148  0.00  0.00    +0.053 C 
BRANCH  20  22
ATOM     22  O   UNL     1      -1.266   6.861   8.753  0.00  0.00    -0.488 OA
BRANCH  22  23
ATOM     23  C   UNL     1      -1.050   8.089   8.211  0.00  0.00    +0.121 A 
ATOM     24  C   UNL     1       0.239   8.486   7.884  0.00  0.00    +0.045 A 
ATOM     25  C   UNL     1       0.457   9.734   7.333  0.00  0.00    +0.004 A 
ATOM     26  C   UNL     1      -0.608  10.587   7.107  0.00  0.00    +0.000 A 
ATOM     27  C   UNL     1      -1.893  10.193   7.432  0.00  0.00    +0.004 A 
ATOM     28  C   UNL     1      -2.117   8.944   7.978  0.00  0.00    +0.045 A 
ENDBRANCH  22  23
ENDBRANCH  20  22
ENDBRANCH  19  20
ENDBRANCH  17  19
ENDBRANCH   5  15
BRANCH   1  29
ATOM     29  C   UNL     1      -2.393  -0.706   3.350  0.00  0.00    +0.131 C 
BRANCH  29  36
ATOM     30  C   UNL     1      -2.863   0.459   0.748  0.00  0.00    +0.044 C 
ATOM     31  C   UNL     1      -3.063  -1.020   0.959  0.00  0.00    -0.047 A 
ATOM     32  C   UNL     1      -3.465  -1.820  -0.094  0.00  0.00    +0.003 A 
ATOM     33  C   UNL     1      -3.648  -3.176   0.099  0.00  0.00    +0.000 A 
ATOM     34  C   UNL     1      -3.428  -3.733   1.345  0.00  0.00    +0.000 A 
ATOM     35  C   UNL     1      -3.025  -2.933   2.398  0.00  0.00    +0.004 A 
ATOM     36  C   UNL     1      -2.838  -1.577   2.204  0.00  0.00    -0.036 A 
ENDBRANCH  29  36
ENDBRANCH   1  29
TORSDOF 7
