REMARK  Name = ZINC64775782
REMARK  8 active torsions:
REMARK  status: ('A' for Active; 'I' for Inactive)
REMARK    1  A    between atoms: C_1  and  C_2
REMARK    2  A    between atoms: C_2  and  N_3
REMARK    3  A    between atoms: C_7  and  C_9
REMARK    4  A    between atoms: C_9  and  N_10
REMARK    5  A    between atoms: C_11  and  C_13
REMARK    6  A    between atoms: N_23  and  C_31
REMARK    7  A    between atoms: C_31  and  C_32
REMARK    8  A    between atoms: C_35  and  C_38
REMARK                            x       y       z     vdW  Elec       q    Type
REMARK                         _______ _______ _______ _____ _____    ______ ____
ROOT
ATOM      1  C   UNL     1      -1.617  -1.332   4.979  0.00  0.00    +0.092 C 
ATOM      2  C   UNL     1      -0.128  -1.658   5.116  0.00  0.00    +0.016 C 
ATOM      3  C   UNL     1       0.460  -0.878   6.294  0.00  0.00    +0.020 C 
ATOM      4  C   UNL     1      -0.248  -1.301   7.585  0.00  0.00    +0.107 C 
ATOM      5  N   UNL     1      -1.696  -1.126   7.409  0.00  0.00    -0.310 N 
ATOM      6  C   UNL     1      -2.349  -1.759   6.255  0.00  0.00    +0.119 C 
ATOM      7  C   UNL     1      -2.431  -0.381   8.313  0.00  0.00    +0.188 A 
ATOM      8  C   UNL     1      -1.798   0.111   9.551  0.00  0.00    +0.292 A 
ATOM      9  O   UNL     1      -0.628  -0.135   9.785  0.00  0.00    -0.264 OA
ATOM     10  N   UNL     1      -2.532   0.838  10.421  0.00  0.00    -0.300 N 
ATOM     11  C   UNL     1      -3.857   1.100  10.127  0.00  0.00    +0.071 A 
ATOM     12  C   UNL     1      -4.635   1.847  11.006  0.00  0.00    +0.028 A 
ATOM     13  C   UNL     1      -5.955   2.104  10.705  0.00  0.00    +0.002 A 
ATOM     14  C   UNL     1      -6.516   1.624   9.530  0.00  0.00    +0.002 A 
ATOM     15  C   UNL     1      -5.771   0.889   8.653  0.00  0.00    +0.030 A 
ATOM     16  C   UNL     1      -4.425   0.614   8.936  0.00  0.00    +0.090 A 
ATOM     17  N   UNL     1      -3.687  -0.107   8.067  0.00  0.00    -0.225 NA
ENDROOT
BRANCH   1  19
ATOM     18  N   UNL     1      -1.694  -1.859   2.564  0.00  0.00    -0.317 N 
ATOM     19  C   UNL     1      -2.188  -2.075   3.799  0.00  0.00    +0.218 C 
ATOM     20  O   UNL     1      -3.092  -2.867   3.961  0.00  0.00    -0.275 OA
ATOM     21  H   UNL     1      -0.972  -1.226   2.434  0.00  0.00    +0.149 HD
BRANCH  18  22
ATOM     22  C   UNL     1      -2.250  -2.582   1.416  0.00  0.00    +0.089 C 
BRANCH  22  27
ATOM     23  N   UNL     1      -1.580  -0.691  -0.006  0.00  0.00    +0.382 N 
ATOM     24  C   UNL     1      -2.298  -0.375  -1.259  0.00  0.00    -0.078 C 
ATOM     25  C   UNL     1      -2.122  -1.634  -2.144  0.00  0.00    -0.020 C 
ATOM     26  C   UNL     1      -2.210  -2.771  -1.092  0.00  0.00    -0.016 C 
ATOM     27  C   UNL     1      -1.517  -2.156   0.142  0.00  0.00    -0.051 C 
ATOM     28  H   UNL     1      -2.075  -0.291   0.777  0.00  0.00    -0.081 HD
BRANCH  23  30
ATOM     29  C   UNL     1      -0.286   1.387  -0.093  0.00  0.00    -0.017 C 
ATOM     30  C   UNL     1      -0.218  -0.141  -0.065  0.00  0.00    -0.082 C 
ENDBRANCH  23  30
ENDBRANCH  22  27
ENDBRANCH  18  22
ENDBRANCH   1  19
BRANCH  10  31
ATOM     31  C   UNL     1      -1.933   1.340  11.660  0.00  0.00    +0.160 C 
BRANCH  31  32
ATOM     32  C   UNL     1      -1.341   2.705  11.415  0.00  0.00    -0.028 A 
ATOM     33  C   UNL     1      -0.029   2.825  10.998  0.00  0.00    +0.005 A 
ATOM     34  C   UNL     1       0.513   4.076  10.772  0.00  0.00    +0.004 A 
ATOM     35  C   UNL     1      -0.258   5.208  10.964  0.00  0.00    -0.050 A 
ATOM     36  C   UNL     1      -1.570   5.088  11.381  0.00  0.00    +0.004 A 
ATOM     37  C   UNL     1      -2.114   3.836  11.602  0.00  0.00    +0.005 A 
ATOM     38  C   UNL     1       0.334   6.572  10.720  0.00  0.00    +0.044 C 
ENDBRANCH  31  32
ENDBRANCH  10  31
TORSDOF 6
