REMARK  Name = ZINC10471854
REMARK  13 active torsions:
REMARK  status: ('A' for Active; 'I' for Inactive)
REMARK    1  A    between atoms: C_1  and  C_2
REMARK    2  A    between atoms: C_2  and  C_3
REMARK    3  A    between atoms: C_2  and  O_4
REMARK    4  A    between atoms: O_4  and  C_5
REMARK    5  A    between atoms: C_9  and  C_11
REMARK    6  A    between atoms: N_13  and  C_14
REMARK    7  A    between atoms: C_14  and  N_16
REMARK    8  A    between atoms: N_16  and  N_17
REMARK    9  A    between atoms: C_18  and  C_20
REMARK   10  A    between atoms: C_20  and  C_21
REMARK   11  A    between atoms: C_21  and  C_22
REMARK   12  A    between atoms: N_24  and  C_25
REMARK   13  A    between atoms: C_25  and  C_26
REMARK                            x       y       z     vdW  Elec       q    Type
REMARK                         _______ _______ _______ _____ _____    ______ ____
ROOT
ATOM      1  N   UNL     1       2.275   7.994   0.671  0.00  0.00    -0.246 N 
ATOM      2  H   UNL     1       2.272   8.951   0.828  0.00  0.00    +0.172 HD
ENDROOT
BRANCH   1   3
ATOM      3  N   UNL     1       3.483   7.325   0.434  0.00  0.00    -0.235 N 
ATOM      4  C   UNL     1       4.642   8.012   0.424  0.00  0.00    +0.230 C 
ATOM      5  O   UNL     1       4.640   9.209   0.620  0.00  0.00    -0.274 OA
ATOM      6  H   UNL     1       3.485   6.368   0.278  0.00  0.00    +0.173 HD
BRANCH   4   7
ATOM      7  C   UNL     1       5.942   7.294   0.169  0.00  0.00    +0.106 C 
BRANCH   7   8
ATOM      8  C   UNL     1       7.096   8.297   0.211  0.00  0.00    +0.105 C 
BRANCH   8   9
ATOM      9  C   UNL     1       8.396   7.578  -0.043  0.00  0.00    +0.214 C 
ATOM     10  O   UNL     1       8.399   6.381  -0.239  0.00  0.00    -0.276 OA
ATOM     11  N   UNL     1       9.556   8.265  -0.054  0.00  0.00    -0.311 N 
ATOM     12  H   UNL     1       9.553   9.223   0.103  0.00  0.00    +0.149 HD
BRANCH  11  13
ATOM     13  C   UNL     1      10.819   7.567  -0.301  0.00  0.00    +0.139 C 
BRANCH  13  14
ATOM     14  C   UNL     1      11.956   8.555  -0.260  0.00  0.00    -0.030 A 
ATOM     15  C   UNL     1      12.357   9.196  -1.417  0.00  0.00    +0.005 A 
ATOM     16  C   UNL     1      13.397  10.106  -1.378  0.00  0.00    +0.000 A 
ATOM     17  C   UNL     1      14.042  10.368  -0.184  0.00  0.00    +0.000 A 
ATOM     18  C   UNL     1      13.645   9.722   0.972  0.00  0.00    +0.000 A 
ATOM     19  C   UNL     1      12.602   8.816   0.934  0.00  0.00    +0.005 A 
ENDBRANCH  13  14
ENDBRANCH  11  13
ENDBRANCH   8   9
ENDBRANCH   7   8
ENDBRANCH   4   7
ENDBRANCH   1   3
BRANCH   1  20
ATOM     20  C   UNL     1       1.115   7.306   0.681  0.00  0.00    +0.153 C 
ATOM     21  S   UNL     1      -0.361   8.123   0.971  0.00  0.00    -0.017 S 
BRANCH  20  24
ATOM     22  C   UNL     1      -0.041   5.289   0.474  0.00  0.00    +0.250 C 
ATOM     23  O   UNL     1      -1.089   5.869   0.679  0.00  0.00    -0.270 OA
ATOM     24  N   UNL     1       1.118   5.976   0.464  0.00  0.00    -0.263 N 
ATOM     25  H   UNL     1       1.955   5.514   0.300  0.00  0.00    +0.157 HD
BRANCH  22  30
ATOM     26  C   UNL     1      -1.226   1.751   0.016  0.00  0.00    +0.122 A 
ATOM     27  C   UNL     1      -0.024   1.094  -0.213  0.00  0.00    +0.046 A 
ATOM     28  C   UNL     1       1.164   1.800  -0.223  0.00  0.00    +0.004 A 
ATOM     29  C   UNL     1       1.165   3.162  -0.001  0.00  0.00    +0.013 A 
ATOM     30  C   UNL     1      -0.038   3.831   0.235  0.00  0.00    +0.041 A 
ATOM     31  C   UNL     1      -1.237   3.116   0.246  0.00  0.00    +0.058 A 
BRANCH  26  32
ATOM     32  O   UNL     1      -2.392   1.053   0.020  0.00  0.00    -0.489 OA
BRANCH  32  34
ATOM     33  C   UNL     1      -3.536  -1.016   0.523  0.00  0.00    +0.051 C 
ATOM     34  C   UNL     1      -2.297  -0.368  -0.099  0.00  0.00    +0.167 C 
ATOM     35  C   UNL     1      -2.210  -0.752  -1.578  0.00  0.00    +0.051 C 
ENDBRANCH  32  34
ENDBRANCH  26  32
ENDBRANCH  22  30
ENDBRANCH  20  24
ENDBRANCH   1  20
TORSDOF 11
