REMARK  Name = ZINC15834927
REMARK  5 active torsions:
REMARK  status: ('A' for Active; 'I' for Inactive)
REMARK    1  A    between atoms: C_1  and  C_2
REMARK    2  A    between atoms: C_2  and  O_3
REMARK    3  A    between atoms: O_3  and  C_4
REMARK    4  A    between atoms: C_9  and  C_10
REMARK    5  A    between atoms: N_27  and  C_30
REMARK                            x       y       z     vdW  Elec       q    Type
REMARK                         _______ _______ _______ _____ _____    ______ ____
ROOT
ATOM      1  C   UNL     1      -3.855  -1.428   0.135  0.00  0.00    +0.090 C 
ATOM      2  C   UNL     1      -4.258  -1.046   1.530  0.00  0.00    +0.071 C 
ATOM      3  C   UNL     1      -5.662  -0.558   1.601  0.00  0.00    +0.027 C 
ATOM      4  N   UNL     1      -6.318   0.176   0.773  0.00  0.00    -0.316 N 
ATOM      5  C   UNL     1      -6.265   0.651  -0.509  0.00  0.00    +0.045 A 
ATOM      6  C   UNL     1      -7.466   1.214  -0.974  0.00  0.00    +0.024 A 
ATOM      7  C   UNL     1      -7.578   1.739  -2.239  0.00  0.00    +0.002 A 
ATOM      8  C   UNL     1      -6.485   1.717  -3.087  0.00  0.00    +0.001 A 
ATOM      9  C   UNL     1      -5.303   1.169  -2.651  0.00  0.00    +0.016 A 
ATOM     10  C   UNL     1      -5.173   0.629  -1.363  0.00  0.00    +0.030 A 
ATOM     11  S   UNL     1      -3.607  -0.032  -0.951  0.00  0.00    -0.115 S 
ATOM     12  C   UNL     1      -6.366  -0.952   2.725  0.00  0.00    +0.116 C 
ATOM     13  C   UNL     1      -5.676  -1.423   3.939  0.00  0.00    +0.258 C 
ATOM     14  N   UNL     1      -6.428  -1.791   4.997  0.00  0.00    -0.235 N 
ATOM     15  C   UNL     1      -7.766  -1.734   4.959  0.00  0.00    +0.316 C 
ATOM     16  O   UNL     1      -8.385  -2.079   5.947  0.00  0.00    -0.252 OA
ATOM     17  N   UNL     1      -8.459  -1.317   3.890  0.00  0.00    -0.218 N 
ATOM     18  C   UNL     1      -7.838  -0.913   2.762  0.00  0.00    +0.261 C 
ATOM     19  O   UNL     1      -8.478  -0.531   1.800  0.00  0.00    -0.269 OA
ATOM     20  O   UNL     1      -4.462  -1.479   3.985  0.00  0.00    -0.270 OA
ATOM     21  H   UNL     1      -5.989  -2.103   5.804  0.00  0.00    +0.159 HD
ATOM     22  H   UNL     1      -7.124   0.503   1.203  0.00  0.00    +0.152 HD
ENDROOT
BRANCH   1  28
ATOM     23  C   UNL     1      -1.352  -1.560   0.199  0.00  0.00    +0.125 A 
ATOM     24  C   UNL     1      -0.174  -2.289   0.268  0.00  0.00    +0.046 A 
ATOM     25  C   UNL     1      -0.220  -3.668   0.335  0.00  0.00    +0.004 A 
ATOM     26  C   UNL     1      -1.438  -4.322   0.333  0.00  0.00    +0.001 A 
ATOM     27  C   UNL     1      -2.614  -3.597   0.265  0.00  0.00    +0.008 A 
ATOM     28  C   UNL     1      -2.573  -2.217   0.203  0.00  0.00    +0.008 A 
BRANCH  23  29
ATOM     29  O   UNL     1      -1.310  -0.203   0.134  0.00  0.00    -0.492 OA
BRANCH  29  31
ATOM     30  C   UNL     1      -0.170   1.927   0.056  0.00  0.00    +0.048 C 
ATOM     31  C   UNL     1      -0.017   0.406   0.134  0.00  0.00    +0.225 C 
ENDBRANCH  29  31
ENDBRANCH  23  29
ENDBRANCH   1  28
BRANCH  17  32
ATOM     32  C   UNL     1      -9.922  -1.293   3.950  0.00  0.00    +0.086 C 
ATOM     33  C   UNL     1     -10.371  -0.364   5.080  0.00  0.00    +0.023 C 
ATOM     34  C   UNL     1     -11.900  -0.340   5.142  0.00  0.00    +0.002 C 
ATOM     35  C   UNL     1     -12.423  -1.753   5.405  0.00  0.00    +0.000 C 
ATOM     36  C   UNL     1     -11.973  -2.682   4.275  0.00  0.00    +0.002 C 
ATOM     37  C   UNL     1     -10.445  -2.707   4.213  0.00  0.00    +0.023 C 
ENDBRANCH  17  32
TORSDOF 4
