REMARK  Name = ZINC63489343
REMARK  5 active torsions:
REMARK  status: ('A' for Active; 'I' for Inactive)
REMARK    1  A    between atoms: C_1  and  C_2
REMARK    2  A    between atoms: C_13  and  C_15
REMARK    3  A    between atoms: N_17  and  C_18
REMARK    4  A    between atoms: C_18  and  C_19
REMARK    5  A    between atoms: C_19  and  C_20
REMARK                            x       y       z     vdW  Elec       q    Type
REMARK                         _______ _______ _______ _____ _____    ______ ____
ROOT
ATOM      1  C   UNL     1       1.919  -4.229   5.852  0.00  0.00    +0.250 C 
ATOM      2  O   UNL     1       2.196  -5.378   6.136  0.00  0.00    -0.270 OA
ATOM      3  N   UNL     1       2.035  -3.259   6.781  0.00  0.00    -0.311 N 
ATOM      4  H   UNL     1       1.813  -2.342   6.555  0.00  0.00    +0.149 HD
ENDROOT
BRANCH   1  15
ATOM      5  C   UNL     1      -0.018   1.503   0.010  0.00  0.00    +0.044 C 
ATOM      6  C   UNL     1       0.002  -0.004   0.002  0.00  0.00    -0.050 A 
ATOM      7  C   UNL     1       0.006  -0.691  -1.198  0.00  0.00    +0.007 A 
ATOM      8  C   UNL     1       0.033  -2.070  -1.207  0.00  0.00    +0.047 A 
ATOM      9  C   UNL     1       0.052  -2.786  -0.015  0.00  0.00    +0.136 A 
ATOM     10  C   UNL     1       0.033  -2.083   1.194  0.00  0.00    +0.010 A 
ATOM     11  C   UNL     1       0.023  -0.704   1.194  0.00  0.00    +0.011 A 
ATOM     12  C   UNL     1       0.010  -2.870   2.444  0.00  0.00    +0.102 C 
ATOM     13  C   UNL     1       0.863  -4.145   2.176  0.00  0.00    +0.140 C 
ATOM     14  C   UNL     1       1.286  -4.748   3.444  0.00  0.00    +0.009 C 
ATOM     15  C   UNL     1       1.456  -3.896   4.491  0.00  0.00    +0.067 C 
ATOM     16  S   UNL     1       0.979  -2.251   3.860  0.00  0.00    -0.111 S 
ATOM     17  C   UNL     1       0.210  -4.879   1.066  0.00  0.00    +0.321 C 
ATOM     18  O   UNL     1      -0.187  -6.016   1.166  0.00  0.00    -0.250 OA
ATOM     19  O   UNL     1       0.100  -4.146  -0.081  0.00  0.00    -0.425 OA
ENDBRANCH   1  15
BRANCH   3  20
ATOM     20  C   UNL     1       2.494  -3.590   8.132  0.00  0.00    +0.109 C 
BRANCH  20  21
ATOM     21  C   UNL     1       2.535  -2.319   8.982  0.00  0.00    +0.052 C 
BRANCH  21  22
ATOM     22  C   UNL     1       3.008  -2.659  10.372  0.00  0.00    -0.040 C 
ATOM     23  C   UNL     1       4.273  -2.576  10.844  0.00  0.00    -0.001 A 
ATOM     24  C   UNL     1       5.539  -2.162  10.228  0.00  0.00    +0.010 A 
ATOM     25  C   UNL     1       6.669  -2.187  10.970  0.00  0.00    +0.001 A 
ATOM     26  C   UNL     1       6.662  -2.598  12.310  0.00  0.00    +0.002 A 
ATOM     27  C   UNL     1       5.538  -2.993  12.945  0.00  0.00    +0.026 A 
ATOM     28  C   UNL     1       4.292  -3.006  12.261  0.00  0.00    +0.043 A 
ATOM     29  N   UNL     1       3.086  -3.341  12.650  0.00  0.00    -0.380 N 
ATOM     30  C   UNL     1       2.163  -3.156  11.524  0.00  0.00    +0.144 C 
ATOM     31  H   UNL     1       2.843  -3.655  13.535  0.00  0.00    +0.160 HD
ENDBRANCH  21  22
ENDBRANCH  20  21
ENDBRANCH   3  20
TORSDOF 4
