REMARK  Name = ZINC13063870
REMARK  11 active torsions:
REMARK  status: ('A' for Active; 'I' for Inactive)
REMARK    1  A    between atoms: C_1  and  C_2
REMARK    2  A    between atoms: C_2  and  C_3
REMARK    3  A    between atoms: C_3  and  C_5
REMARK    4  A    between atoms: C_3  and  N_63
REMARK    5  A    between atoms: N_9  and  C_10
REMARK    6  A    between atoms: C_10  and  C_11
REMARK    7  A    between atoms: C_17  and  C_18
REMARK    8  A    between atoms: C_17  and  N_63
REMARK    9  A    between atoms: C_23  and  C_24
REMARK   10  A    between atoms: C_23  and  N_63
REMARK   11  A    between atoms: C_29  and  C_36
REMARK                            x       y       z     vdW  Elec       q    Type
REMARK                         _______ _______ _______ _____ _____    ______ ____
ROOT
ATOM      1  N   UNL     1       2.484   7.453  -2.706  0.00  0.00    +0.392 N 
ATOM      2  H   UNL     1       2.686   7.530  -3.709  0.00  0.00    -0.080 HD
ENDROOT
BRANCH   1   3
ATOM      3  C   UNL     1       1.562   6.319  -2.488  0.00  0.00    +0.003 C 
BRANCH   3   4
ATOM      4  C   UNL     1       0.600   6.252  -3.646  0.00  0.00    +0.138 A 
ATOM      5  N   UNL     1      -0.081   7.249  -4.157  0.00  0.00    -0.115 NA
ATOM      6  N   UNL     1      -0.788   6.790  -5.131  0.00  0.00    -0.023 NA
ATOM      7  N   UNL     1      -0.572   5.527  -5.258  0.00  0.00    -0.044 NA
ATOM      8  N   UNL     1       0.273   5.157  -4.357  0.00  0.00    -0.226 N 
BRANCH   8   9
ATOM      9  C   UNL     1       0.787   3.800  -4.150  0.00  0.00    +0.182 C 
BRANCH   9  10
ATOM     10  C   UNL     1      -0.104   3.069  -3.179  0.00  0.00    -0.026 A 
ATOM     11  C   UNL     1      -1.183   2.341  -3.645  0.00  0.00    +0.005 A 
ATOM     12  C   UNL     1      -2.000   1.670  -2.754  0.00  0.00    +0.000 A 
ATOM     13  C   UNL     1      -1.741   1.732  -1.398  0.00  0.00    +0.000 A 
ATOM     14  C   UNL     1      -0.659   2.455  -0.933  0.00  0.00    +0.000 A 
ATOM     15  C   UNL     1       0.158   3.126  -1.823  0.00  0.00    +0.005 A 
ENDBRANCH   9  10
ENDBRANCH   8   9
ENDBRANCH   3   4
BRANCH   3  17
ATOM     16  C   UNL     1       1.744   6.455   0.000  0.00  0.00    +0.002 C 
ATOM     17  C   UNL     1       0.780   6.509  -1.186  0.00  0.00    -0.011 C 
ENDBRANCH   3  17
ENDBRANCH   1   3
BRANCH   1  18
ATOM     18  C   UNL     1       3.750   7.222  -1.978  0.00  0.00    -0.034 C 
BRANCH  18  19
ATOM     19  C   UNL     1       4.455   6.040  -2.592  0.00  0.00    -0.027 A 
ATOM     20  C   UNL     1       5.337   6.012  -3.620  0.00  0.00    +0.009 A 
ATOM     21  C   UNL     1       5.865   4.798  -4.019  0.00  0.00    +0.008 A 
ATOM     22  C   UNL     1       5.484   3.671  -3.369  0.00  0.00    +0.045 A 
ATOM     23  S   UNL     1       4.351   4.314  -2.148  0.00  0.00    -0.103 S 
ENDBRANCH  18  19
ENDBRANCH   1  18
BRANCH   1  24
ATOM     24  C   UNL     1       1.858   8.710  -2.244  0.00  0.00    -0.036 C 
BRANCH  24  25
ATOM     25  C   UNL     1       2.637   9.873  -2.803  0.00  0.00    +0.001 A 
ATOM     26  C   UNL     1       2.244  10.454  -3.963  0.00  0.00    +0.017 A 
ATOM     27  C   UNL     1       3.022  11.581  -4.479  0.00  0.00    -0.001 A 
ATOM     28  C   UNL     1       2.665  12.222  -5.670  0.00  0.00    +0.010 A 
ATOM     29  C   UNL     1       3.411  13.271  -6.125  0.00  0.00    +0.004 A 
ATOM     30  C   UNL     1       4.522  13.708  -5.416  0.00  0.00    -0.048 A 
ATOM     31  C   UNL     1       4.892  13.092  -4.240  0.00  0.00    +0.029 A 
ATOM     32  C   UNL     1       4.147  12.021  -3.757  0.00  0.00    +0.049 A 
ATOM     33  N   UNL     1       4.494  11.387  -2.583  0.00  0.00    -0.322 N 
ATOM     34  H   UNL     1       5.270  11.692  -2.087  0.00  0.00    +0.169 HD
ATOM     35  C   UNL     1       3.771  10.356  -2.114  0.00  0.00    +0.251 A 
ATOM     36  O   UNL     1       4.104   9.822  -1.071  0.00  0.00    -0.268 OA
ATOM     37  C   UNL     1       5.331  14.868  -5.937  0.00  0.00    +0.044 C 
ENDBRANCH  24  25
ENDBRANCH   1  24
TORSDOF 9
