REMARK  Name = ZINC19499531
REMARK  11 active torsions:
REMARK  status: ('A' for Active; 'I' for Inactive)
REMARK    1  A    between atoms: C_1  and  C_2
REMARK    2  A    between atoms: C_2  and  C_3
REMARK    3  A    between atoms: C_3  and  C_4
REMARK    4  A    between atoms: C_3  and  C_5
REMARK    5  A    between atoms: C_3  and  N_6
REMARK    6  A    between atoms: C_7  and  C_11
REMARK    7  A    between atoms: C_11  and  C_13
REMARK    8  A    between atoms: C_11  and  N_27
REMARK    9  A    between atoms: C_16  and  C_26
REMARK   10  A    between atoms: C_18  and  C_25
REMARK   11  A    between atoms: N_30  and  C_33
REMARK                            x       y       z     vdW  Elec       q    Type
REMARK                         _______ _______ _______ _____ _____    ______ ____
ROOT
ATOM      1  C   UNL     1       4.978  -2.778  -0.063  0.00  0.00    +0.162 C 
ENDROOT
BRANCH   1   2
ATOM      2  C   UNL     1       3.600  -2.173  -0.149  0.00  0.00    +0.042 A 
ATOM      3  C   UNL     1       2.772  -2.224   0.923  0.00  0.00    +0.021 A 
ATOM      4  C   UNL     1       1.440  -1.627   0.806  0.00  0.00    +0.002 A 
ATOM      5  C   UNL     1       0.541  -1.649   1.878  0.00  0.00    -0.041 A 
ATOM      6  C   UNL     1      -0.694  -1.082   1.738  0.00  0.00    +0.007 A 
ATOM      7  C   UNL     1      -1.066  -0.486   0.540  0.00  0.00    -0.048 A 
ATOM      8  C   UNL     1      -0.197  -0.453  -0.529  0.00  0.00    +0.029 A 
ATOM      9  C   UNL     1       1.067  -1.023  -0.409  0.00  0.00    +0.050 A 
ATOM     10  N   UNL     1       1.956  -1.005  -1.462  0.00  0.00    -0.322 N 
ATOM     11  H   UNL     1       1.671  -0.534  -2.415  0.00  0.00    +0.169 HD
ATOM     12  C   UNL     1       3.177  -1.556  -1.346  0.00  0.00    +0.254 A 
ATOM     13  O   UNL     1       3.938  -1.521  -2.298  0.00  0.00    -0.268 OA
ATOM     14  C   UNL     1      -2.432   0.138   0.410  0.00  0.00    +0.044 C 
ATOM     15  C   UNL     1       0.933  -2.295   3.182  0.00  0.00    +0.044 C 
ENDBRANCH   1   2
BRANCH   1  16
ATOM     16  N   UNL     1       5.112  -3.836  -1.074  0.00  0.00    -0.292 NA
ATOM     17  C   UNL     1       4.043  -4.835  -0.936  0.00  0.00    +0.067 C 
ATOM     18  C   UNL     1       4.171  -5.873  -2.054  0.00  0.00    -0.063 C 
ATOM     19  N   UNL     1       5.495  -6.508  -1.979  0.00  0.00    +0.383 N 
ATOM     20  C   UNL     1       6.564  -5.509  -2.116  0.00  0.00    -0.063 C 
ATOM     21  C   UNL     1       6.435  -4.471  -0.999  0.00  0.00    +0.067 C 
ATOM     22  H   UNL     1       5.591  -6.975  -0.987  0.00  0.00    -0.081 HD
BRANCH  19  23
ATOM     23  C   UNL     1       5.629  -7.565  -2.989  0.00  0.00    -0.068 C 
ATOM     24  C   UNL     1       5.423  -6.968  -4.383  0.00  0.00    -0.015 C 
ATOM     25  C   UNL     1       5.563  -8.069  -5.436  0.00  0.00    -0.002 C 
ATOM     26  C   UNL     1       4.511  -9.152  -5.184  0.00  0.00    -0.000 C 
ATOM     27  C   UNL     1       4.718  -9.749  -3.791  0.00  0.00    -0.002 C 
ATOM     28  C   UNL     1       4.577  -8.648  -2.738  0.00  0.00    -0.015 C 
ENDBRANCH  19  23
ENDBRANCH   1  16
BRANCH   1  30
ATOM     29  N   UNL     1       5.976  -2.879   2.281  0.00  0.00    -0.222 N 
ATOM     30  C   UNL     1       5.183  -3.366   1.309  0.00  0.00    +0.174 A 
ATOM     31  N   UNL     1       4.619  -4.447   1.790  0.00  0.00    -0.111 NA
ATOM     32  N   UNL     1       5.050  -4.620   2.992  0.00  0.00    -0.023 NA
ATOM     33  N   UNL     1       5.868  -3.673   3.293  0.00  0.00    -0.043 NA
BRANCH  29  34
ATOM     34  C   UNL     1       6.807  -1.675   2.205  0.00  0.00    +0.062 C 
ATOM     35  C   UNL     1       7.878  -1.860   1.129  0.00  0.00    +0.036 C 
ATOM     36  C   UNL     1       5.929  -0.472   1.850  0.00  0.00    +0.036 C 
BRANCH  34  38
ATOM     37  C   UNL     1       8.347  -0.175   3.479  0.00  0.00    +0.006 C 
ATOM     38  C   UNL     1       7.479  -1.433   3.558  0.00  0.00    +0.026 C 
ENDBRANCH  34  38
ENDBRANCH  29  34
ENDBRANCH   1  30
TORSDOF 6
