REMARK  Name = ZINC08744419
REMARK  5 active torsions:
REMARK  status: ('A' for Active; 'I' for Inactive)
REMARK    1  A    between atoms: C_1  and  C_2
REMARK    2  A    between atoms: C_11  and  N_27
REMARK    3  A    between atoms: N_27  and  C_28
REMARK    4  A    between atoms: C_28  and  C_29
REMARK    5  A    between atoms: C_29  and  N_65
REMARK                            x       y       z     vdW  Elec       q    Type
REMARK                         _______ _______ _______ _____ _____    ______ ____
ROOT
ATOM      1  C   UNL     1      -4.625  13.704   1.336  0.00  0.00    +0.044 C 
ATOM      2  C   UNL     1      -4.443  12.975   0.030  0.00  0.00    -0.047 A 
ATOM      3  C   UNL     1      -4.716  13.620  -1.163  0.00  0.00    +0.005 A 
ATOM      4  C   UNL     1      -4.550  12.957  -2.364  0.00  0.00    +0.029 A 
ATOM      5  C   UNL     1      -4.109  11.642  -2.373  0.00  0.00    +0.083 A 
ATOM      6  C   UNL     1      -3.834  10.991  -1.171  0.00  0.00    +0.152 A 
ATOM      7  C   UNL     1      -4.004  11.664   0.028  0.00  0.00    +0.051 A 
ATOM      8  O   UNL     1      -3.403   9.704  -1.171  0.00  0.00    -0.452 OA
ATOM      9  C   UNL     1      -3.230   9.024  -2.331  0.00  0.00    +0.154 A 
ATOM     10  C   UNL     1      -2.795   7.714  -2.300  0.00  0.00    +0.072 A 
ATOM     11  C   UNL     1      -2.605   7.000  -3.482  0.00  0.00    +0.042 A 
ATOM     12  C   UNL     1      -2.867   7.608  -4.718  0.00  0.00    +0.056 A 
ATOM     13  C   UNL     1      -3.318   8.948  -4.757  0.00  0.00    +0.062 A 
ATOM     14  C   UNL     1      -3.497   9.649  -3.563  0.00  0.00    +0.094 A 
ATOM     15  N   UNL     1      -3.939  10.964  -3.585  0.00  0.00    -0.349 N 
ATOM     16  H   UNL     1      -4.127  11.406  -4.427  0.00  0.00    +0.166 HD
ATOM     17  C   UNL     1      -3.596   9.594  -6.047  0.00  0.00    +0.197 A 
ATOM     18  O   UNL     1      -3.984  10.746  -6.081  0.00  0.00    -0.287 OA
ATOM     19  C   UNL     1      -3.403   8.841  -7.303  0.00  0.00    +0.033 A 
ATOM     20  C   UNL     1      -3.664   9.444  -8.531  0.00  0.00    +0.012 A 
ATOM     21  C   UNL     1      -3.481   8.731  -9.701  0.00  0.00    +0.001 A 
ATOM     22  C   UNL     1      -3.039   7.420  -9.662  0.00  0.00    +0.001 A 
ATOM     23  C   UNL     1      -2.775   6.805  -8.452  0.00  0.00    +0.012 A 
ATOM     24  C   UNL     1      -2.954   7.509  -7.263  0.00  0.00    +0.033 A 
ATOM     25  C   UNL     1      -2.674   6.861  -5.965  0.00  0.00    +0.196 A 
ATOM     26  O   UNL     1      -2.286   5.708  -5.931  0.00  0.00    -0.287 OA
ENDROOT
BRANCH  11  27
ATOM     27  N   UNL     1      -2.163   5.688  -3.436  0.00  0.00    -0.345 N 
ATOM     28  H   UNL     1      -2.112   5.165  -4.251  0.00  0.00    +0.146 HD
BRANCH  27  29
ATOM     29  C   UNL     1      -1.773   5.092  -2.156  0.00  0.00    +0.083 C 
BRANCH  29  30
ATOM     30  C   UNL     1      -1.327   3.646  -2.382  0.00  0.00    -0.059 C 
BRANCH  30  40
ATOM     31  C   UNL     1      -0.729   1.597  -1.234  0.00  0.00    -0.074 C 
ATOM     32  C   UNL     1       0.018   1.096   0.002  0.00  0.00    +0.017 C 
ATOM     33  C   UNL     1      -0.672   1.584   1.250  0.00  0.00    -0.048 A 
ATOM     34  C   UNL     1      -0.376   0.965   2.455  0.00  0.00    +0.004 A 
ATOM     35  C   UNL     1      -0.982   1.383   3.622  0.00  0.00    +0.000 A 
ATOM     36  C   UNL     1      -1.889   2.426   3.590  0.00  0.00    +0.000 A 
ATOM     37  C   UNL     1      -2.182   3.042   2.395  0.00  0.00    +0.002 A 
ATOM     38  C   UNL     1      -1.576   2.622   1.220  0.00  0.00    -0.061 A 
ATOM     39  C   UNL     1      -1.937   3.323  -0.064  0.00  0.00    -0.043 C 
ATOM     40  N   UNL     1      -0.915   3.055  -1.089  0.00  0.00    +0.384 N 
ATOM     41  H   UNL     1      -0.027   3.478  -0.796  0.00  0.00    -0.081 HD
ENDBRANCH  30  40
ENDBRANCH  29  30
ENDBRANCH  27  29
ENDBRANCH  11  27
TORSDOF 4
