REMARK  Name = ZINC61855675
REMARK  8 active torsions:
REMARK  status: ('A' for Active; 'I' for Inactive)
REMARK    1  A    between atoms: C_1  and  C_2
REMARK    2  A    between atoms: C_2  and  C_3
REMARK    3  A    between atoms: C_2  and  C_4
REMARK    4  A    between atoms: C_7  and  C_10
REMARK    5  A    between atoms: C_10  and  C_11
REMARK    6  A    between atoms: C_10  and  N_16
REMARK    7  A    between atoms: N_19  and  N_20
REMARK    8  A    between atoms: C_21  and  C_23
REMARK                            x       y       z     vdW  Elec       q    Type
REMARK                         _______ _______ _______ _____ _____    ______ ____
ROOT
ATOM      1  C   UNL     1      -5.419  -2.005   0.043  0.00  0.00    +0.142 C 
ENDROOT
BRANCH   1   5
ATOM      2  C   UNL     1      -1.412  -0.526   0.013  0.00  0.00    -0.045 A 
ATOM      3  C   UNL     1      -2.259  -0.204   1.056  0.00  0.00    +0.004 A 
ATOM      4  C   UNL     1      -3.556  -0.683   1.066  0.00  0.00    +0.006 A 
ATOM      5  C   UNL     1      -4.006  -1.482   0.032  0.00  0.00    -0.022 A 
ATOM      6  C   UNL     1      -3.159  -1.803  -1.012  0.00  0.00    +0.006 A 
ATOM      7  C   UNL     1      -1.863  -1.321  -1.024  0.00  0.00    +0.004 A 
BRANCH   2   9
ATOM      8  C   UNL     1      -0.019   1.526   0.010  0.00  0.00    +0.012 C 
ATOM      9  C   UNL     1       0.002  -0.004   0.002  0.00  0.00    +0.013 C 
ATOM     10  C   UNL     1       0.742  -0.511   1.242  0.00  0.00    +0.012 C 
ENDBRANCH   2   9
ENDBRANCH   1   5
BRANCH   1  11
ATOM     11  N   UNL     1      -5.972  -1.947  -1.312  0.00  0.00    -0.287 N 
ATOM     12  C   UNL     1      -7.305  -1.869  -1.494  0.00  0.00    +0.317 C 
ATOM     13  O   UNL     1      -8.049  -1.846  -0.532  0.00  0.00    -0.251 OA
ATOM     14  N   UNL     1      -7.814  -1.815  -2.741  0.00  0.00    -0.218 N 
ATOM     15  H   UNL     1      -5.378  -1.965  -2.079  0.00  0.00    +0.151 HD
ATOM     16  H   UNL     1      -8.773  -1.759  -2.871  0.00  0.00    +0.174 HD
BRANCH  14  17
ATOM     17  N   UNL     1      -6.956  -1.842  -3.848  0.00  0.00    -0.229 N 
ATOM     18  C   UNL     1      -7.465  -1.789  -5.095  0.00  0.00    +0.263 C 
ATOM     19  O   UNL     1      -8.668  -1.718  -5.259  0.00  0.00    -0.269 OA
ATOM     20  H   UNL     1      -5.997  -1.898  -3.718  0.00  0.00    +0.173 HD
BRANCH  18  21
ATOM     21  C   UNL     1      -6.563  -1.816  -6.261  0.00  0.00    +0.076 A 
ATOM     22  C   UNL     1      -6.943  -1.761  -7.680  0.00  0.00    +0.054 A 
ATOM     23  C   UNL     1      -5.794  -1.814  -8.371  0.00  0.00    +0.195 A 
ATOM     24  O   UNL     1      -4.767  -1.896  -7.512  0.00  0.00    -0.470 OA
ATOM     25  C   UNL     1      -5.201  -1.893  -6.248  0.00  0.00    +0.208 A 
ENDBRANCH  18  21
ENDBRANCH  14  17
ENDBRANCH   1  11
BRANCH   1  26
ATOM     26  C   UNL     1      -5.423  -3.432   0.527  0.00  0.00    +0.014 A 
ATOM     27  C   UNL     1      -5.728  -3.916   1.756  0.00  0.00    +0.013 A 
ATOM     28  C   UNL     1      -5.663  -5.279   1.975  0.00  0.00    +0.008 A 
ATOM     29  C   UNL     1      -5.298  -6.092   0.954  0.00  0.00    +0.045 A 
ATOM     30  S   UNL     1      -5.037  -4.925  -0.372  0.00  0.00    -0.099 S 
ENDBRANCH   1  26
TORSDOF 6
