REMARK  Name = ZINC13388233
REMARK  8 active torsions:
REMARK  status: ('A' for Active; 'I' for Inactive)
REMARK    1  A    between atoms: C_4  and  C_7
REMARK    2  A    between atoms: C_7  and  N_8
REMARK    3  A    between atoms: N_8  and  C_9
REMARK    4  A    between atoms: N_14  and  C_17
REMARK    5  A    between atoms: C_20  and  N_23
REMARK    6  A    between atoms: C_27  and  N_31
REMARK    7  A    between atoms: N_31  and  C_32
REMARK    8  A    between atoms: C_32  and  C_33
REMARK                            x       y       z     vdW  Elec       q    Type
REMARK                         _______ _______ _______ _____ _____    ______ ____
ROOT
ATOM      1  C   UNL     1       5.658  -5.080   2.730  0.00  0.00    +0.044 A 
ATOM      2  C   UNL     1       4.926  -5.922   1.904  0.00  0.00    +0.026 A 
ATOM      3  C   UNL     1       4.871  -7.275   2.172  0.00  0.00    +0.026 A 
ATOM      4  C   UNL     1       5.549  -7.794   3.266  0.00  0.00    +0.044 A 
ATOM      5  C   UNL     1       6.282  -6.952   4.092  0.00  0.00    +0.026 A 
ATOM      6  C   UNL     1       6.340  -5.600   3.822  0.00  0.00    +0.026 A 
ENDROOT
BRANCH   1  11
ATOM      7  C   UNL     1       5.053  -1.487   2.213  0.00  0.00    +0.150 C 
ATOM      8  C   UNL     1       6.547  -1.618   1.853  0.00  0.00    +0.125 C 
ATOM      9  C   UNL     1       6.832  -3.090   2.055  0.00  0.00    +0.228 C 
ATOM     10  O   UNL     1       7.905  -3.628   1.880  0.00  0.00    -0.275 OA
ATOM     11  N   UNL     1       5.713  -3.705   2.458  0.00  0.00    -0.209 N 
ATOM     12  C   UNL     1       4.648  -2.898   2.580  0.00  0.00    +0.244 C 
ATOM     13  O   UNL     1       3.538  -3.241   2.928  0.00  0.00    -0.273 OA
BRANCH   7  14
ATOM     14  N   UNL     1       4.875  -0.584   3.358  0.00  0.00    -0.301 NA
ATOM     15  H   UNL     1       5.568   0.149   3.351  0.00  0.00    +0.123 HD
BRANCH  14  16
ATOM     16  C   UNL     1       3.517  -0.024   3.380  0.00  0.00    +0.117 C 
BRANCH  16  20
ATOM     17  C   UNL     1       3.104   2.583   6.739  0.00  0.00    +0.000 A 
ATOM     18  C   UNL     1       3.541   3.082   5.526  0.00  0.00    +0.000 A 
ATOM     19  C   UNL     1       3.674   2.239   4.439  0.00  0.00    +0.005 A 
ATOM     20  C   UNL     1       3.372   0.896   4.565  0.00  0.00    -0.034 A 
ATOM     21  C   UNL     1       2.936   0.396   5.778  0.00  0.00    +0.005 A 
ATOM     22  C   UNL     1       2.801   1.240   6.865  0.00  0.00    +0.000 A 
ENDBRANCH  16  20
ENDBRANCH  14  16
ENDBRANCH   7  14
ENDBRANCH   1  11
BRANCH   4  23
ATOM     23  N   UNL     1       5.492  -9.169   3.539  0.00  0.00    -0.209 N 
ATOM     24  C   UNL     1       4.863  -9.670   4.609  0.00  0.00    +0.228 C 
ATOM     25  O   UNL     1       4.281  -9.020   5.450  0.00  0.00    -0.275 OA
ATOM     26  C   UNL     1       4.993 -11.178   4.601  0.00  0.00    +0.125 C 
ATOM     27  C   UNL     1       5.816 -11.464   3.329  0.00  0.00    +0.150 C 
ATOM     28  C   UNL     1       6.059 -10.088   2.747  0.00  0.00    +0.244 C 
ATOM     29  O   UNL     1       6.672  -9.855   1.728  0.00  0.00    -0.273 OA
BRANCH  27  30
ATOM     30  N   UNL     1       7.084 -12.121   3.669  0.00  0.00    -0.301 NA
ATOM     31  H   UNL     1       7.771 -11.447   3.974  0.00  0.00    +0.123 HD
BRANCH  30  32
ATOM     32  C   UNL     1       7.588 -12.912   2.538  0.00  0.00    +0.117 C 
BRANCH  32  33
ATOM     33  C   UNL     1       8.888 -13.570   2.925  0.00  0.00    -0.034 A 
ATOM     34  C   UNL     1      10.085 -12.914   2.708  0.00  0.00    +0.005 A 
ATOM     35  C   UNL     1      11.277 -13.518   3.062  0.00  0.00    +0.000 A 
ATOM     36  C   UNL     1      11.272 -14.777   3.634  0.00  0.00    +0.000 A 
ATOM     37  C   UNL     1      10.074 -15.431   3.851  0.00  0.00    +0.000 A 
ATOM     38  C   UNL     1       8.882 -14.826   3.501  0.00  0.00    +0.005 A 
ENDBRANCH  32  33
ENDBRANCH  30  32
ENDBRANCH  27  30
ENDBRANCH   4  23
TORSDOF 8
