REMARK  Name = ZINC21877886
REMARK  13 active torsions:
REMARK  status: ('A' for Active; 'I' for Inactive)
REMARK    1  A    between atoms: C_1  and  C_2
REMARK    2  A    between atoms: C_2  and  C_3
REMARK    3  A    between atoms: C_3  and  C_4
REMARK    4  A    between atoms: C_4  and  N_5
REMARK    5  A    between atoms: C_10  and  C_24
REMARK    6  A    between atoms: C_14  and  C_15
REMARK    7  A    between atoms: C_14  and  C_16
REMARK    8  A    between atoms: N_18  and  C_19
REMARK    9  A    between atoms: N_26  and  C_27
REMARK   10  A    between atoms: C_30  and  O_35
REMARK   11  A    between atoms: C_32  and  O_33
REMARK   12  A    between atoms: O_33  and  C_34
REMARK   13  A    between atoms: O_35  and  C_36
REMARK                            x       y       z     vdW  Elec       q    Type
REMARK                         _______ _______ _______ _____ _____    ______ ____
ROOT
ATOM      1  N   UNL     1       5.141  -3.236  -0.277  0.00  0.00    -0.281 N 
ATOM      2  C   UNL     1       3.807  -3.454  -0.369  0.00  0.00    +0.266 C 
ATOM      3  O   UNL     1       3.349  -4.566  -0.551  0.00  0.00    -0.268 OA
ATOM      4  C   UNL     1       2.940  -2.270  -0.237  0.00  0.00    +0.124 A 
ATOM      5  C   UNL     1       1.601  -2.154  -0.093  0.00  0.00    +0.067 A 
ATOM      6  C   UNL     1       1.355  -0.764  -0.024  0.00  0.00    +0.148 A 
ATOM      7  N   UNL     1       2.520  -0.147  -0.136  0.00  0.00    -0.166 NA
ATOM      8  N   UNL     1       3.465  -0.994  -0.265  0.00  0.00    -0.256 N 
ATOM      9  C   UNL     1       4.905  -0.768  -0.439  0.00  0.00    +0.179 C 
ATOM     10  C   UNL     1       5.675  -1.948   0.152  0.00  0.00    +0.130 C 
ATOM     11  C   UNL     1       5.608  -1.868   1.679  0.00  0.00    +0.044 C 
ENDROOT
BRANCH  10  12
ATOM     12  C   UNL     1       7.117  -1.852  -0.275  0.00  0.00    +0.238 C 
ATOM     13  O   UNL     1       7.997  -1.833   0.560  0.00  0.00    -0.273 OA
ATOM     14  N   UNL     1       7.429  -1.788  -1.585  0.00  0.00    -0.311 N 
ATOM     15  H   UNL     1       6.630  -1.722  -2.338  0.00  0.00    +0.149 HD
BRANCH  14  16
ATOM     16  C   UNL     1       8.832  -1.805  -2.005  0.00  0.00    +0.073 C 
ATOM     17  C   UNL     1       9.402  -0.371  -2.005  0.00  0.00    +0.022 C 
ATOM     18  C   UNL     1      10.344  -0.337  -3.235  0.00  0.00    +0.002 C 
ATOM     19  C   UNL     1       9.576  -1.186  -4.278  0.00  0.00    +0.002 C 
ATOM     20  C   UNL     1       8.944  -2.323  -3.450  0.00  0.00    +0.022 C 
ENDBRANCH  14  16
ENDBRANCH  10  12
BRANCH   6  21
ATOM     21  C   UNL     1       0.036  -0.117   0.137  0.00  0.00    +0.268 C 
ATOM     22  O   UNL     1      -0.968  -0.798   0.224  0.00  0.00    -0.268 OA
ATOM     23  N   UNL     1      -0.054   1.226   0.188  0.00  0.00    -0.277 N 
ATOM     24  H   UNL     1       0.860   1.838   0.210  0.00  0.00    +0.155 HD
BRANCH  23  25
ATOM     25  C   UNL     1      -1.313   1.844   0.213  0.00  0.00    +0.077 A 
ATOM     26  C   UNL     1      -2.418   1.190  -0.312  0.00  0.00    +0.050 A 
ATOM     27  C   UNL     1      -3.659   1.800  -0.286  0.00  0.00    +0.084 A 
ATOM     28  C   UNL     1      -3.801   3.066   0.264  0.00  0.00    +0.142 A 
ATOM     29  C   UNL     1      -2.699   3.723   0.789  0.00  0.00    +0.094 A 
ATOM     30  C   UNL     1      -1.455   3.113   0.770  0.00  0.00    +0.145 A 
ATOM     31 CL   UNL     1      -5.040   0.980  -0.943  0.00  0.00    -0.080 Cl
BRANCH  30  32
ATOM     32  O   UNL     1      -0.374   3.754   1.290  0.00  0.00    -0.493 OA
ATOM     33  C   UNL     1      -0.595   5.052   1.845  0.00  0.00    +0.277 C 
ENDBRANCH  30  32
BRANCH  28  34
ATOM     34  O   UNL     1      -5.023   3.663   0.287  0.00  0.00    -0.494 OA
ATOM     35  C   UNL     1      -5.097   4.967   0.869  0.00  0.00    +0.277 C 
ENDBRANCH  28  34
ENDBRANCH  23  25
ENDBRANCH   6  21
BRANCH   1  36
ATOM     36  C   UNL     1       6.067  -4.319  -0.615  0.00  0.00    +0.109 C 
BRANCH  36  37
ATOM     37  C   UNL     1       6.466  -5.066   0.659  0.00  0.00    +0.019 C 
BRANCH  37  39
ATOM     38  C   UNL     1       7.833  -6.944   1.580  0.00  0.00    +0.004 C 
ATOM     39  C   UNL     1       7.434  -6.197   0.306  0.00  0.00    -0.002 C 
ENDBRANCH  37  39
ENDBRANCH  36  37
ENDBRANCH   1  36
TORSDOF 9
