REMARK  Name = ZINC04523422
REMARK  3 active torsions:
REMARK  status: ('A' for Active; 'I' for Inactive)
REMARK    1  A    between atoms: C_1  and  O_2
REMARK    2  A    between atoms: O_2  and  C_3
REMARK    3  A    between atoms: C_6  and  C_9
REMARK                            x       y       z     vdW  Elec       q    Type
REMARK                         _______ _______ _______ _____ _____    ______ ____
ROOT
ATOM      1  C   UNL     1       3.837   0.764  -1.811  0.00  0.00    +0.069 C 
ATOM      2  N   UNL     1       3.206  -0.254  -1.323  0.00  0.00    -0.183 NA
ATOM      3  N   UNL     1       2.294   0.083  -0.339  0.00  0.00    -0.190 N 
ATOM      4  C   UNL     1       2.489   1.504   0.028  0.00  0.00    +0.137 C 
ATOM      5  C   UNL     1       3.388   2.025  -1.101  0.00  0.00    +0.086 C 
ATOM      6  C   UNL     1       1.124   2.141   0.003  0.00  0.00    +0.017 A 
ATOM      7  C   UNL     1       1.022   3.519  -0.017  0.00  0.00    +0.009 A 
ATOM      8  C   UNL     1      -0.219   4.127  -0.014  0.00  0.00    +0.001 A 
ATOM      9  C   UNL     1      -1.362   3.350   0.010  0.00  0.00    +0.004 A 
ATOM     10  C   UNL     1      -1.265   1.976   0.019  0.00  0.00    +0.046 A 
ATOM     11  C   UNL     1      -0.016   1.353   0.009  0.00  0.00    +0.130 A 
ATOM     12  O   UNL     1       0.002  -0.004   0.002  0.00  0.00    -0.450 OA
ATOM     13  C   UNL     1       1.220  -0.712   0.272  0.00  0.00    +0.269 C 
ATOM     14  C   UNL     1       1.163  -2.081  -0.398  0.00  0.00    +0.104 C 
ATOM     15  C   UNL     1       2.458  -2.844  -0.096  0.00  0.00    +0.086 C 
ATOM     16  S   UNL     1       2.421  -3.344   1.646  0.00  0.00    -0.067 S 
ATOM     17  C   UNL     1       1.947  -1.819   2.382  0.00  0.00    +0.276 C 
ATOM     18  O   UNL     1       2.105  -1.686   3.580  0.00  0.00    -0.263 OA
ATOM     19  N   UNL     1       1.427  -0.806   1.703  0.00  0.00    -0.252 N 
ATOM     20  H   UNL     1       1.152  -0.037   2.227  0.00  0.00    +0.155 HD
ENDROOT
BRANCH   1  24
ATOM     21  C   UNL     1       6.716   0.598  -4.927  0.00  0.00    +0.120 A 
ATOM     22  C   UNL     1       6.106  -0.569  -4.486  0.00  0.00    +0.046 A 
ATOM     23  C   UNL     1       5.170  -0.520  -3.474  0.00  0.00    +0.013 A 
ATOM     24  C   UNL     1       4.837   0.706  -2.893  0.00  0.00    -0.002 A 
ATOM     25  C   UNL     1       5.450   1.878  -3.344  0.00  0.00    +0.013 A 
ATOM     26  C   UNL     1       6.388   1.819  -4.352  0.00  0.00    +0.046 A 
BRANCH  21  28
ATOM     27  C   UNL     1       8.227   1.782  -6.330  0.00  0.00    +0.277 C 
ATOM     28  O   UNL     1       7.637   0.545  -5.925  0.00  0.00    -0.495 OA
ENDBRANCH  21  28
ENDBRANCH   1  24
TORSDOF 2
