REMARK  Name = ZINC22714325
REMARK  11 active torsions:
REMARK  status: ('A' for Active; 'I' for Inactive)
REMARK    1  A    between atoms: C_1  and  O_2
REMARK    2  A    between atoms: O_2  and  C_3
REMARK    3  A    between atoms: C_6  and  C_21
REMARK    4  A    between atoms: C_8  and  C_9
REMARK    5  A    between atoms: C_9  and  O_10
REMARK    6  A    between atoms: O_10  and  C_11
REMARK    7  A    between atoms: C_16  and  N_17
REMARK    8  A    between atoms: C_22  and  C_23
REMARK    9  A    between atoms: C_22  and  C_25
REMARK   10  A    between atoms: N_27  and  C_28
REMARK   11  A    between atoms: C_29  and  C_33
REMARK                            x       y       z     vdW  Elec       q    Type
REMARK                         _______ _______ _______ _____ _____    ______ ____
ROOT
ATOM      1  C   UNL     1      -2.479  -5.032   0.096  0.00  0.00    +0.127 A 
ATOM      2  C   UNL     1      -1.783  -3.846  -0.115  0.00  0.00    +0.046 A 
ATOM      3  C   UNL     1      -0.417  -3.845  -0.126  0.00  0.00    +0.011 A 
ATOM      4  C   UNL     1       0.283  -5.045   0.064  0.00  0.00    -0.023 A 
ATOM      5  C   UNL     1      -0.424  -6.237   0.276  0.00  0.00    +0.018 A 
ATOM      6  C   UNL     1      -1.790  -6.224   0.291  0.00  0.00    +0.032 A 
ENDROOT
BRANCH   1   8
ATOM      7  C   UNL     1      -4.481  -3.767  -0.094  0.00  0.00    +0.277 C 
ATOM      8  O   UNL     1      -3.836  -5.026   0.113  0.00  0.00    -0.495 OA
ENDBRANCH   1   8
BRANCH   4   9
ATOM      9  C   UNL     1       1.748  -5.052   0.046  0.00  0.00    +0.032 C 
ATOM     10  C   UNL     1       2.429  -4.345  -0.921  0.00  0.00    +0.114 C 
BRANCH  10  11
ATOM     11  C   UNL     1       1.701  -3.777  -2.066  0.00  0.00    +0.259 C 
ATOM     12  O   UNL     1       0.523  -4.037  -2.228  0.00  0.00    -0.269 OA
ATOM     13  N   UNL     1       2.339  -2.969  -2.936  0.00  0.00    -0.274 N 
ATOM     14  H   UNL     1       3.403  -2.734  -2.790  0.00  0.00    +0.156 HD
BRANCH  13  15
ATOM     15  C   UNL     1       1.653  -2.433  -4.015  0.00  0.00    +0.089 A 
ATOM     16  C   UNL     1       2.131  -1.589  -5.009  0.00  0.00    +0.080 A 
ATOM     17  C   UNL     1       1.190  -1.180  -6.023  0.00  0.00    +0.028 A 
ATOM     18  C   UNL     1      -0.067  -1.650  -5.920  0.00  0.00    +0.048 A 
ATOM     19  S   UNL     1      -0.009  -2.655  -4.451  0.00  0.00    -0.081 S 
BRANCH  16  20
ATOM     20  C   UNL     1       3.493  -1.146  -5.027  0.00  0.00    +0.102 C 
ATOM     21  N   UNL     1       4.573  -0.795  -5.040  0.00  0.00    -0.191 NA
ENDBRANCH  16  20
ENDBRANCH  13  15
ENDBRANCH  10  11
BRANCH  10  22
ATOM     22  C   UNL     1       3.845  -4.165  -0.812  0.00  0.00    +0.104 C 
ATOM     23  N   UNL     1       4.969  -4.021  -0.725  0.00  0.00    -0.191 NA
ENDBRANCH  10  22
ENDBRANCH   4   9
BRANCH   6  24
ATOM     24  C   UNL     1      -2.551  -7.505   0.519  0.00  0.00    +0.268 C 
BRANCH  24  25
ATOM     25  O   UNL     1      -1.629  -8.583   0.691  0.00  0.00    -0.485 OA
BRANCH  25  26
ATOM     26  C   UNL     1      -2.157  -9.817   0.908  0.00  0.00    +0.154 A 
ATOM     27  C   UNL     1      -3.533  -9.985   0.954  0.00  0.00    +0.086 A 
ATOM     28  C   UNL     1      -4.067 -11.242   1.175  0.00  0.00    +0.127 A 
ATOM     29  C   UNL     1      -3.228 -12.331   1.349  0.00  0.00    +0.041 A 
ATOM     30  C   UNL     1      -1.856 -12.163   1.302  0.00  0.00    +0.039 A 
ATOM     31  C   UNL     1      -1.319 -10.910   1.077  0.00  0.00    +0.168 A 
ATOM     32  F   UNL     1      -5.407 -11.409   1.220  0.00  0.00    -0.205 F 
BRANCH  31  33
ATOM     33  N   UNL     1       0.149 -10.733   1.023  0.00  0.00    +0.060 N 
ATOM     34  O   UNL     1       0.884 -11.692   1.171  0.00  0.00    -0.126 OA
ATOM     35  O   UNL     1       0.622  -9.627   0.829  0.00  0.00    -0.126 OA
ENDBRANCH  31  33
ENDBRANCH  25  26
ENDBRANCH  24  25
ENDBRANCH   6  24
TORSDOF 10
