REMARK  Name = ZINC59463216
REMARK  10 active torsions:
REMARK  status: ('A' for Active; 'I' for Inactive)
REMARK    1  A    between atoms: C_1  and  C_2
REMARK    2  A    between atoms: C_2  and  N_3
REMARK    3  A    between atoms: N_3  and  C_4
REMARK    4  A    between atoms: C_4  and  C_5
REMARK    5  A    between atoms: C_6  and  C_8
REMARK    6  A    between atoms: N_13  and  C_15
REMARK    7  A    between atoms: C_18  and  C_34
REMARK    8  A    between atoms: C_20  and  N_21
REMARK    9  A    between atoms: C_22  and  C_23
REMARK   10  A    between atoms: C_32  and  O_33
REMARK                            x       y       z     vdW  Elec       q    Type
REMARK                         _______ _______ _______ _____ _____    ______ ____
ROOT
ATOM      1  C   UNL     1       2.129  -0.439  -7.128  0.00  0.00    +0.055 A 
ATOM      2  C   UNL     1       1.434  -0.690  -8.301  0.00  0.00    +0.026 A 
ATOM      3  C   UNL     1       1.784  -0.037  -9.468  0.00  0.00    +0.014 A 
ATOM      4  C   UNL     1       2.830   0.870  -9.476  0.00  0.00    +0.057 A 
ATOM      5  C   UNL     1       3.534   1.132  -8.318  0.00  0.00    +0.042 A 
ATOM      6  C   UNL     1       3.186   0.484  -7.131  0.00  0.00    +0.085 A 
ENDROOT
BRANCH   1  11
ATOM      7  C   UNL     1       1.361  -0.427  -3.640  0.00  0.00    +0.092 C 
ATOM      8  C   UNL     1       1.882  -1.800  -3.212  0.00  0.00    +0.016 C 
ATOM      9  C   UNL     1       2.986  -2.251  -4.172  0.00  0.00    +0.020 C 
ATOM     10  C   UNL     1       2.409  -2.372  -5.586  0.00  0.00    +0.105 C 
ATOM     11  N   UNL     1       1.777  -1.097  -5.949  0.00  0.00    -0.328 N 
ATOM     12  C   UNL     1       0.766  -0.527  -5.048  0.00  0.00    +0.118 C 
BRANCH   7  14
ATOM     13  N   UNL     1       0.641   0.462  -1.447  0.00  0.00    -0.302 N 
ATOM     14  C   UNL     1       0.296   0.030  -2.676  0.00  0.00    +0.220 C 
ATOM     15  O   UNL     1      -0.871   0.009  -3.006  0.00  0.00    -0.275 OA
BRANCH  13  17
ATOM     16  C   UNL     1      -0.682   2.363  -0.661  0.00  0.00    +0.024 C 
ATOM     17  C   UNL     1      -0.396   0.869  -0.495  0.00  0.00    +0.104 C 
ENDBRANCH  13  17
BRANCH  13  18
ATOM     18  C   UNL     1       2.054   0.525  -1.062  0.00  0.00    +0.104 C 
ATOM     19  C   UNL     1       2.374  -0.627  -0.107  0.00  0.00    +0.024 C 
ENDBRANCH  13  18
ENDBRANCH   7  14
ENDBRANCH   1  11
BRANCH   4  20
ATOM     20  C   UNL     1       3.203   1.574 -10.755  0.00  0.00    +0.417 C 
ATOM     21  F   UNL     1       2.356   1.149 -11.784  0.00  0.00    -0.166 F 
ATOM     22  F   UNL     1       3.070   2.956 -10.582  0.00  0.00    -0.166 F 
ATOM     23  F   UNL     1       4.528   1.271 -11.086  0.00  0.00    -0.166 F 
ENDBRANCH   4  20
BRANCH   6  24
ATOM     24  N   UNL     1       3.876   0.744  -5.979  0.00  0.00    -0.253 NA
ATOM     25  C   UNL     1       4.067   1.978  -5.597  0.00  0.00    +0.123 C 
BRANCH  25  26
ATOM     26  C   UNL     1       4.920   2.263  -4.440  0.00  0.00    +0.042 A 
ATOM     27  C   UNL     1       5.069   3.629  -3.939  0.00  0.00    -0.006 A 
ATOM     28  C   UNL     1       4.407   4.704  -4.542  0.00  0.00    +0.009 A 
ATOM     29  C   UNL     1       4.572   5.963  -4.045  0.00  0.00    +0.001 A 
ATOM     30  C   UNL     1       5.391   6.194  -2.943  0.00  0.00    +0.001 A 
ATOM     31  C   UNL     1       6.050   5.170  -2.332  0.00  0.00    +0.008 A 
ATOM     32  C   UNL     1       5.902   3.860  -2.818  0.00  0.00    -0.017 A 
ATOM     33  C   UNL     1       6.566   2.778  -2.212  0.00  0.00    +0.012 A 
ATOM     34  C   UNL     1       6.417   1.514  -2.688  0.00  0.00    +0.046 A 
ATOM     35  C   UNL     1       5.604   1.234  -3.787  0.00  0.00    +0.126 A 
BRANCH  35  36
ATOM     36  O   UNL     1       5.480  -0.043  -4.226  0.00  0.00    -0.506 OA
ATOM     37  H   UNL     1       6.180  -0.321  -4.832  0.00  0.00    +0.292 HD
ENDBRANCH  35  36
ENDBRANCH  25  26
ENDBRANCH   6  24
TORSDOF 8
