REMARK  Name = ZINC02614048
REMARK  4 active torsions:
REMARK  status: ('A' for Active; 'I' for Inactive)
REMARK    1  A    between atoms: C_1  and  C_2
REMARK    2  A    between atoms: C_15  and  S_17
REMARK    3  A    between atoms: S_17  and  C_18
REMARK    4  A    between atoms: C_18  and  C_19
REMARK                            x       y       z     vdW  Elec       q    Type
REMARK                         _______ _______ _______ _____ _____    ______ ____
ROOT
ATOM      1  C   UNL     1     -10.717  -9.094   0.148  0.00  0.00    +0.008 C 
ATOM      2  C   UNL     1      -9.278  -8.653   0.425  0.00  0.00    -0.009 C 
ATOM      3  C   UNL     1      -8.313  -9.483  -0.426  0.00  0.00    +0.008 C 
ATOM      4  C   UNL     1      -6.874  -9.226   0.021  0.00  0.00    +0.037 C 
ATOM      5  C   UNL     1      -6.621  -7.720   0.025  0.00  0.00    -0.023 A 
ATOM      6  C   UNL     1      -7.650  -6.849   0.040  0.00  0.00    -0.004 A 
ATOM      7  S   UNL     1      -6.895  -5.245   0.039  0.00  0.00    -0.073 S 
ATOM      8  C   UNL     1      -5.194  -5.751   0.020  0.00  0.00    +0.117 A 
ATOM      9  C   UNL     1      -5.271  -7.154   0.014  0.00  0.00    +0.075 A 
ATOM     10  C   UNL     1      -4.019  -7.847  -0.003  0.00  0.00    +0.261 A 
ATOM     11  O   UNL     1      -3.987  -9.066  -0.010  0.00  0.00    -0.267 OA
ATOM     12  N   UNL     1      -2.877  -7.135  -0.015  0.00  0.00    -0.301 N 
ATOM     13  H   UNL     1      -2.026  -7.600  -0.030  0.00  0.00    +0.171 HD
ATOM     14  C   UNL     1      -2.894  -5.770  -0.002  0.00  0.00    +0.170 A 
ATOM     15  N   UNL     1      -4.033  -5.107   0.012  0.00  0.00    -0.216 NA
ATOM     16  C   UNL     1      -9.113  -7.172   0.054  0.00  0.00    +0.046 C 
ENDROOT
BRANCH  14  17
ATOM     17  S   UNL     1      -1.372  -4.882  -0.011  0.00  0.00    -0.078 S 
BRANCH  17  18
ATOM     18  C   UNL     1      -1.998  -3.184   0.004  0.00  0.00    +0.173 C 
BRANCH  18  19
ATOM     19  C   UNL     1      -0.839  -2.221  -0.002  0.00  0.00    +0.229 C 
ATOM     20  O   UNL     1       0.298  -2.641  -0.015  0.00  0.00    -0.275 OA
ATOM     21  N   UNL     1      -1.067  -0.892   0.007  0.00  0.00    -0.264 N 
ATOM     22  C   UNL     1       0.002  -0.004   0.002  0.00  0.00    +0.165 A 
ATOM     23  N   UNL     1       1.293  -0.263  -0.012  0.00  0.00    -0.229 NA
ATOM     24  C   UNL     1       2.210   0.702  -0.016  0.00  0.00    +0.054 A 
ATOM     25  C   UNL     1       1.734   1.975  -0.004  0.00  0.00    +0.014 A 
ATOM     26  S   UNL     1      -0.021   1.734   0.012  0.00  0.00    -0.057 S 
ATOM     27  C   UNL     1       2.517   3.244  -0.003  0.00  0.00    +0.044 C 
ATOM     28  C   UNL     1       3.976   2.909   0.349  0.00  0.00    +0.006 C 
ATOM     29  C   UNL     1       4.425   1.715  -0.497  0.00  0.00    +0.006 C 
ATOM     30  C   UNL     1       3.712   0.443  -0.033  0.00  0.00    +0.056 C 
ATOM     31  H   UNL     1      -1.977  -0.556   0.018  0.00  0.00    +0.157 HD
ENDBRANCH  18  19
ENDBRANCH  17  18
ENDBRANCH  14  17
TORSDOF 3
