REMARK  Name = ZINC09332039
REMARK  9 active torsions:
REMARK  status: ('A' for Active; 'I' for Inactive)
REMARK    1  A    between atoms: C_1  and  O_2
REMARK    2  A    between atoms: O_2  and  C_3
REMARK    3  A    between atoms: C_8  and  N_9
REMARK    4  A    between atoms: C_24  and  C_30
REMARK    5  A    between atoms: C_30  and  C_32
REMARK    6  A    between atoms: C_35  and  O_40
REMARK    7  A    between atoms: C_36  and  O_38
REMARK    8  A    between atoms: O_38  and  C_39
REMARK    9  A    between atoms: O_40  and  C_41
REMARK                            x       y       z     vdW  Elec       q    Type
REMARK                         _______ _______ _______ _____ _____    ______ ____
ROOT
ATOM      1  N   UNL     1      -2.215   0.891   0.192  0.00  0.00    -0.206 N 
ATOM      2  C   UNL     1      -1.718   0.554   1.420  0.00  0.00    +0.232 C 
ATOM      3  O   UNL     1      -2.228  -0.176   2.242  0.00  0.00    -0.274 OA
ATOM      4  C   UNL     1      -0.403   1.281   1.537  0.00  0.00    +0.113 C 
ATOM      5  C   UNL     1       0.816   0.672   2.164  0.00  0.00    +0.100 C 
ATOM      6  C   UNL     1       0.732  -0.688   2.752  0.00  0.00    -0.021 A 
ATOM      7  C   UNL     1      -0.413  -1.167   3.349  0.00  0.00    +0.006 A 
ATOM      8  C   UNL     1      -0.455  -2.437   3.891  0.00  0.00    +0.000 A 
ATOM      9  C   UNL     1       0.663  -3.252   3.845  0.00  0.00    +0.001 A 
ATOM     10  C   UNL     1       1.823  -2.792   3.258  0.00  0.00    +0.008 A 
ATOM     11  C   UNL     1       1.874  -1.509   2.711  0.00  0.00    -0.019 A 
ATOM     12  C   UNL     1       3.125  -1.027   2.094  0.00  0.00    +0.022 C 
ATOM     13  C   UNL     1       3.120   0.081   1.327  0.00  0.00    +0.054 C 
ATOM     14  C   UNL     1       1.410   1.494  -0.003  0.00  0.00    +0.141 C 
ATOM     15  C   UNL     1      -0.013   1.086   0.008  0.00  0.00    +0.116 C 
ATOM     16  C   UNL     1      -1.265   1.451  -0.616  0.00  0.00    +0.232 C 
ATOM     17  O   UNL     1      -1.439   2.097  -1.627  0.00  0.00    -0.274 OA
ATOM     18  N   UNL     1       1.931   1.036   1.339  0.00  0.00    -0.384 NA
ATOM     19  H   UNL     1       2.308   1.883   1.780  0.00  0.00    +0.127 HD
ENDROOT
BRANCH   1  25
ATOM     20  C   UNL     1      -3.929  -0.506  -0.798  0.00  0.00    +0.142 A 
ATOM     21  C   UNL     1      -5.249  -0.700  -1.174  0.00  0.00    +0.047 A 
ATOM     22  C   UNL     1      -6.185   0.290  -0.947  0.00  0.00    +0.004 A 
ATOM     23  C   UNL     1      -5.809   1.477  -0.345  0.00  0.00    +0.002 A 
ATOM     24  C   UNL     1      -4.497   1.677   0.037  0.00  0.00    +0.027 A 
ATOM     25  C   UNL     1      -3.550   0.689  -0.192  0.00  0.00    +0.085 A 
BRANCH  20  27
ATOM     26  C   UNL     1      -3.467  -2.679  -1.647  0.00  0.00    +0.277 C 
ATOM     27  O   UNL     1      -3.007  -1.480  -1.021  0.00  0.00    -0.493 OA
ENDBRANCH  20  27
ENDBRANCH   1  25
BRANCH  14  28
ATOM     28  C   UNL     1       1.557   2.977   0.222  0.00  0.00    +0.183 C 
ATOM     29  O   UNL     1       1.939   3.392   1.295  0.00  0.00    -0.290 OA
BRANCH  28  30
ATOM     30  C   UNL     1       1.237   3.918  -0.859  0.00  0.00    +0.023 A 
ATOM     31  C   UNL     1       0.795   3.441  -2.099  0.00  0.00    +0.015 A 
ATOM     32  C   UNL     1       0.496   4.326  -3.110  0.00  0.00    +0.050 A 
ATOM     33  C   UNL     1       0.631   5.693  -2.904  0.00  0.00    +0.162 A 
ATOM     34  C   UNL     1       1.070   6.177  -1.671  0.00  0.00    +0.162 A 
ATOM     35  C   UNL     1       1.367   5.297  -0.650  0.00  0.00    +0.060 A 
BRANCH  34  36
ATOM     36  O   UNL     1       1.200   7.516  -1.474  0.00  0.00    -0.491 OA
ATOM     37  C   UNL     1       1.655   7.941  -0.188  0.00  0.00    +0.277 C 
ENDBRANCH  34  36
BRANCH  33  38
ATOM     38  O   UNL     1       0.334   6.561  -3.905  0.00  0.00    -0.491 OA
ATOM     39  C   UNL     1      -0.110   5.998  -5.141  0.00  0.00    +0.277 C 
ENDBRANCH  33  38
ENDBRANCH  28  30
ENDBRANCH  14  28
TORSDOF 6
