REMARK  Name = ZINC19970204
REMARK  8 active torsions:
REMARK  status: ('A' for Active; 'I' for Inactive)
REMARK    1  A    between atoms: C_1  and  C_2
REMARK    2  A    between atoms: C_2  and  C_3
REMARK    3  A    between atoms: C_6  and  C_9
REMARK    4  A    between atoms: C_9  and  C_11
REMARK    5  A    between atoms: C_9  and  N_22
REMARK    6  A    between atoms: C_13  and  N_19
REMARK    7  A    between atoms: C_16  and  C_17
REMARK    8  A    between atoms: C_17  and  C_18
REMARK                            x       y       z     vdW  Elec       q    Type
REMARK                         _______ _______ _______ _____ _____    ______ ____
ROOT
ATOM      1  C   UNL     1       0.065   1.254   0.091  0.00  0.00    -0.013 C 
ENDROOT
BRANCH   1   5
ATOM      2  C   UNL     1      -2.133   2.655  -3.293  0.00  0.00    -0.048 A 
ATOM      3  C   UNL     1      -1.718   1.337  -3.236  0.00  0.00    +0.004 A 
ATOM      4  C   UNL     1      -1.006   0.884  -2.140  0.00  0.00    +0.002 A 
ATOM      5  C   UNL     1      -0.710   1.748  -1.103  0.00  0.00    -0.058 A 
ATOM      6  C   UNL     1      -1.130   3.064  -1.158  0.00  0.00    +0.002 A 
ATOM      7  C   UNL     1      -1.837   3.519  -2.256  0.00  0.00    +0.004 A 
BRANCH   2   9
ATOM      8  C   UNL     1      -4.406   2.955  -4.238  0.00  0.00    +0.009 C 
ATOM      9  C   UNL     1      -2.909   3.148  -4.487  0.00  0.00    +0.032 C 
ENDBRANCH   2   9
ENDBRANCH   1   5
BRANCH   1  10
ATOM     10  C   UNL     1       1.530   1.552  -0.102  0.00  0.00    -0.052 A 
ATOM     11  C   UNL     1       1.926   2.496  -1.031  0.00  0.00    +0.035 A 
ATOM     12  C   UNL     1       3.269   2.769  -1.209  0.00  0.00    +0.126 A 
ATOM     13  C   UNL     1       4.217   2.099  -0.457  0.00  0.00    +0.033 A 
ATOM     14  C   UNL     1       3.820   1.155   0.472  0.00  0.00    +0.006 A 
ATOM     15  C   UNL     1       2.476   0.885   0.652  0.00  0.00    -0.046 A 
BRANCH  12  16
ATOM     16  N   UNL     1       3.694   3.779  -2.204  0.00  0.00    +0.056 N 
ATOM     17  O   UNL     1       2.860   4.370  -2.866  0.00  0.00    -0.126 OA
ATOM     18  O   UNL     1       4.878   4.020  -2.361  0.00  0.00    -0.126 OA
ENDBRANCH  12  16
BRANCH  15  19
ATOM     19  C   UNL     1       2.044  -0.139   1.669  0.00  0.00    +0.032 C 
ATOM     20  C   UNL     1       1.855  -1.493   0.981  0.00  0.00    +0.009 C 
ENDBRANCH  15  19
ENDBRANCH   1  10
BRANCH   1  21
ATOM     21  N   UNL     1      -0.416   1.933   1.302  0.00  0.00    +0.385 N 
ATOM     22  H   UNL     1       0.150   1.572   2.174  0.00  0.00    -0.089 HD
ATOM     23  H   UNL     1      -1.485   1.715   1.444  0.00  0.00    -0.089 HD
ATOM     24  H   UNL     1      -0.274   3.018   1.196  0.00  0.00    -0.089 HD
ENDBRANCH   1  21
TORSDOF 6
