REMARK  Name = ZINC67267629
REMARK  2 active torsions:
REMARK  status: ('A' for Active; 'I' for Inactive)
REMARK    1  A    between atoms: C_1  and  C_2
REMARK    2  A    between atoms: C_13  and  C_15
REMARK                            x       y       z     vdW  Elec       q    Type
REMARK                         _______ _______ _______ _____ _____    ______ ____
ROOT
ATOM      1  C   UNL     1      -0.737  -3.563   3.662  0.00  0.00    +0.076 C 
ATOM      2  C   UNL     1       0.703  -4.012   3.403  0.00  0.00    +0.015 C 
ATOM      3  C   UNL     1       1.378  -4.350   4.735  0.00  0.00    +0.036 C 
ATOM      4  C   UNL     1       0.601  -5.459   5.435  0.00  0.00    +0.112 C 
ATOM      5  C   UNL     1      -0.844  -5.036   5.678  0.00  0.00    +0.036 C 
ATOM      6  C   UNL     1      -1.510  -4.695   4.342  0.00  0.00    +0.015 C 
ATOM      7  C   UNL     1       0.649  -6.732   4.622  0.00  0.00    +0.244 C 
ATOM      8  O   UNL     1       0.225  -6.902   3.498  0.00  0.00    -0.273 OA
ATOM      9  N   UNL     1       1.263  -7.640   5.408  0.00  0.00    -0.238 N 
ATOM     10  C   UNL     1       1.603  -7.116   6.592  0.00  0.00    +0.307 C 
ATOM     11  O   UNL     1       2.168  -7.739   7.470  0.00  0.00    -0.252 OA
ATOM     12  N   UNL     1       1.250  -5.821   6.702  0.00  0.00    -0.285 N 
ATOM     13  H   UNL     1       1.435  -8.558   5.149  0.00  0.00    +0.159 HD
ATOM     14  H   UNL     1       1.396  -5.242   7.466  0.00  0.00    +0.151 HD
ENDROOT
BRANCH   1  26
ATOM     15  C   UNL     1       0.513   0.933  -0.648  0.00  0.00    +0.012 C 
ATOM     16  C   UNL     1      -0.400   0.425   0.469  0.00  0.00    +0.019 C 
ATOM     17  C   UNL     1       0.447  -0.269   1.536  0.00  0.00    +0.027 C 
ATOM     18  C   UNL     1      -0.486  -0.955   2.542  0.00  0.00    +0.114 C 
ATOM     19  N   UNL     1      -1.239  -1.990   1.821  0.00  0.00    -0.271 N 
ATOM     20  C   UNL     1      -1.789  -1.680   0.569  0.00  0.00    +0.040 A 
ATOM     21  C   UNL     1      -1.407  -0.533  -0.109  0.00  0.00    -0.023 A 
ATOM     22  C   UNL     1      -1.963  -0.255  -1.346  0.00  0.00    +0.006 A 
ATOM     23  C   UNL     1      -2.893  -1.112  -1.901  0.00  0.00    +0.000 A 
ATOM     24  C   UNL     1      -3.275  -2.256  -1.224  0.00  0.00    +0.002 A 
ATOM     25  C   UNL     1      -2.725  -2.540   0.009  0.00  0.00    +0.024 A 
ATOM     26  C   UNL     1      -1.399  -3.218   2.353  0.00  0.00    +0.223 C 
ATOM     27  O   UNL     1      -2.075  -4.045   1.779  0.00  0.00    -0.275 OA
ENDBRANCH   1  26
TORSDOF 1
