REMARK  Name = ZINC11788178
REMARK  8 active torsions:
REMARK  status: ('A' for Active; 'I' for Inactive)
REMARK    1  A    between atoms: C_1  and  O_2
REMARK    2  A    between atoms: O_2  and  C_3
REMARK    3  A    between atoms: C_12  and  C_13
REMARK    4  A    between atoms: C_13  and  N_60
REMARK    5  A    between atoms: C_19  and  C_23
REMARK    6  A    between atoms: C_23  and  C_24
REMARK    7  A    between atoms: C_24  and  N_25
REMARK    8  A    between atoms: C_26  and  C_28
REMARK                            x       y       z     vdW  Elec       q    Type
REMARK                         _______ _______ _______ _____ _____    ______ ____
ROOT
ATOM      1  C   UNL     1      -2.205   5.161  -2.083  0.00  0.00    -0.071 C 
ATOM      2  C   UNL     1      -3.079   5.576  -3.270  0.00  0.00    +0.058 C 
ATOM      3  C   UNL     1      -4.517   5.628  -2.821  0.00  0.00    +0.132 A 
ATOM      4  N   UNL     1      -5.559   5.138  -3.426  0.00  0.00    -0.134 NA
ATOM      5  N   UNL     1      -6.618   5.404  -2.744  0.00  0.00    -0.134 NA
ATOM      6  C   UNL     1      -6.294   6.071  -1.668  0.00  0.00    +0.135 A 
ATOM      7  N   UNL     1      -4.952   6.218  -1.680  0.00  0.00    -0.317 N 
ATOM      8  C   UNL     1      -4.111   6.860  -0.669  0.00  0.00    +0.106 C 
ATOM      9  C   UNL     1      -2.838   7.389  -1.335  0.00  0.00    -0.056 C 
ATOM     10  N   UNL     1      -1.770   6.362  -1.338  0.00  0.00    +0.384 N 
ATOM     11  H   UNL     1      -0.938   6.752  -1.796  0.00  0.00    -0.081 HD
ENDROOT
BRANCH  10  12
ATOM     12  C   UNL     1      -1.423   5.995   0.047  0.00  0.00    -0.039 C 
BRANCH  12  22
ATOM     13  C   UNL     1       0.063   3.996   0.036  0.00  0.00    +0.122 A 
ATOM     14  C   UNL     1       1.323   3.388   0.032  0.00  0.00    +0.046 A 
ATOM     15  C   UNL     1       2.459   4.135   0.033  0.00  0.00    +0.012 A 
ATOM     16  C   UNL     1       2.372   5.538   0.039  0.00  0.00    -0.017 A 
ATOM     17  C   UNL     1       3.526   6.340   0.040  0.00  0.00    +0.008 A 
ATOM     18  C   UNL     1       3.404   7.696   0.047  0.00  0.00    +0.001 A 
ATOM     19  C   UNL     1       2.150   8.304   0.057  0.00  0.00    +0.001 A 
ATOM     20  C   UNL     1       1.010   7.560   0.050  0.00  0.00    +0.009 A 
ATOM     21  C   UNL     1       1.096   6.157   0.043  0.00  0.00    -0.013 A 
ATOM     22  C   UNL     1      -0.058   5.356   0.042  0.00  0.00    -0.015 A 
BRANCH  13  24
ATOM     23  C   UNL     1      -0.864   1.807   0.029  0.00  0.00    +0.277 C 
ATOM     24  O   UNL     1      -1.054   3.223   0.035  0.00  0.00    -0.495 OA
ENDBRANCH  13  24
ENDBRANCH  12  22
ENDBRANCH  10  12
BRANCH   6  25
ATOM     25  C   UNL     1      -7.240   6.581  -0.611  0.00  0.00    +0.095 C 
BRANCH  25  26
ATOM     26  C   UNL     1      -7.418   5.514   0.471  0.00  0.00    +0.112 C 
BRANCH  26  27
ATOM     27  N   UNL     1      -8.338   6.010   1.498  0.00  0.00    -0.308 N 
ATOM     28  C   UNL     1      -8.646   5.235   2.557  0.00  0.00    +0.279 C 
ATOM     29  O   UNL     1      -8.160   4.124   2.660  0.00  0.00    -0.267 OA
ATOM     30  H   UNL     1      -8.725   6.895   1.416  0.00  0.00    +0.149 HD
BRANCH  28  31
ATOM     31  C   UNL     1      -9.566   5.731   3.585  0.00  0.00    +0.189 A 
ATOM     32  C   UNL     1      -9.961   5.054   4.703  0.00  0.00    +0.054 A 
ATOM     33  C   UNL     1     -10.838   5.900   5.399  0.00  0.00    +0.042 A 
ATOM     34  C   UNL     1     -10.939   7.043   4.685  0.00  0.00    +0.196 A 
ATOM     35  O   UNL     1     -10.167   6.939   3.595  0.00  0.00    -0.458 OA
ENDBRANCH  28  31
ENDBRANCH  26  27
ENDBRANCH  25  26
ENDBRANCH   6  25
TORSDOF 7
