REMARK  Name = ZINC16516247
REMARK  11 active torsions:
REMARK  status: ('A' for Active; 'I' for Inactive)
REMARK    1  A    between atoms: C_1  and  C_2
REMARK    2  A    between atoms: C_5  and  C_8
REMARK    3  A    between atoms: C_8  and  C_9
REMARK    4  A    between atoms: N_14  and  C_15
REMARK    5  A    between atoms: N_14  and  C_32
REMARK    6  A    between atoms: C_15  and  C_16
REMARK    7  A    between atoms: C_16  and  C_17
REMARK    8  A    between atoms: N_19  and  C_20
REMARK    9  A    between atoms: C_25  and  C_26
REMARK   10  A    between atoms: C_25  and  N_73
REMARK   11  A    between atoms: C_32  and  C_33
REMARK                            x       y       z     vdW  Elec       q    Type
REMARK                         _______ _______ _______ _____ _____    ______ ____
ROOT
ATOM      1  C   UNL     1      -0.742   1.585  -1.213  0.00  0.00    +0.145 A 
ATOM      2  N   UNL     1      -0.417   2.739  -1.747  0.00  0.00    -0.208 NA
ATOM      3  C   UNL     1      -1.077   3.150  -2.821  0.00  0.00    +0.181 A 
ATOM      4  S   UNL     1      -2.190   1.842  -3.065  0.00  0.00    +0.049 S 
ATOM      5  N   UNL     1      -1.698   0.865  -1.748  0.00  0.00    -0.192 NA
ATOM      6  N   UNL     1      -0.919   4.313  -3.554  0.00  0.00    -0.301 N 
ENDROOT
BRANCH   1   7
ATOM      7  C   UNL     1      -0.013   1.086   0.008  0.00  0.00    +0.112 C 
BRANCH   7  12
ATOM      8  C   UNL     1      -2.718   2.950   4.762  0.00  0.00    +0.044 C 
ATOM      9  C   UNL     1      -2.012   2.463   3.523  0.00  0.00    -0.050 A 
ATOM     10  C   UNL     1      -2.366   1.254   2.955  0.00  0.00    +0.003 A 
ATOM     11  C   UNL     1      -1.719   0.808   1.818  0.00  0.00    +0.004 A 
ATOM     12  C   UNL     1      -0.718   1.572   1.248  0.00  0.00    -0.040 A 
ATOM     13  C   UNL     1      -0.360   2.779   1.819  0.00  0.00    +0.004 A 
ATOM     14  C   UNL     1      -1.010   3.227   2.953  0.00  0.00    +0.003 A 
ENDBRANCH   7  12
ENDBRANCH   1   7
BRANCH   6  15
ATOM     15  C   UNL     1      -1.769   4.565  -4.720  0.00  0.00    +0.117 C 
BRANCH  15  16
ATOM     16  C   UNL     1      -3.028   5.316  -4.281  0.00  0.00    +0.114 C 
BRANCH  16  17
ATOM     17  C   UNL     1      -3.903   5.575  -5.480  0.00  0.00    +0.215 C 
ATOM     18  O   UNL     1      -3.553   5.197  -6.578  0.00  0.00    -0.276 OA
ATOM     19  N   UNL     1      -5.073   6.228  -5.333  0.00  0.00    -0.313 N 
ATOM     20  H   UNL     1      -5.352   6.530  -4.455  0.00  0.00    +0.149 HD
BRANCH  19  21
ATOM     21  C   UNL     1      -5.923   6.480  -6.499  0.00  0.00    +0.069 C 
ATOM     22  C   UNL     1      -5.470   7.767  -7.193  0.00  0.00    +0.003 C 
ATOM     23  C   UNL     1      -6.399   8.058  -8.374  0.00  0.00    -0.077 C 
ATOM     24  C   UNL     1      -8.251   6.961  -7.261  0.00  0.00    -0.077 C 
ATOM     25  C   UNL     1      -7.377   6.637  -6.047  0.00  0.00    +0.003 C 
ATOM     26  N   UNL     1      -7.779   8.223  -7.870  0.00  0.00    +0.382 N 
ATOM     27  H   UNL     1      -7.786   8.960  -7.156  0.00  0.00    -0.081 HD
BRANCH  26  28
ATOM     28  C   UNL     1      -8.676   8.617  -8.976  0.00  0.00    -0.043 C 
BRANCH  28  29
ATOM     29  C   UNL     1      -8.305  10.004  -9.431  0.00  0.00    -0.064 A 
ATOM     30  C   UNL     1      -8.894  11.107  -8.840  0.00  0.00    +0.002 A 
ATOM     31  C   UNL     1      -8.549  12.380  -9.254  0.00  0.00    +0.000 A 
ATOM     32  C   UNL     1      -7.624  12.550 -10.267  0.00  0.00    +0.000 A 
ATOM     33  C   UNL     1      -7.039  11.448 -10.862  0.00  0.00    +0.000 A 
ATOM     34  C   UNL     1      -7.380  10.175 -10.444  0.00  0.00    +0.002 A 
ENDBRANCH  28  29
ENDBRANCH  26  28
ENDBRANCH  19  21
ENDBRANCH  16  17
ENDBRANCH  15  16
ENDBRANCH   6  15
BRANCH   6  35
ATOM     35  C   UNL     1       0.098   5.292  -3.163  0.00  0.00    +0.181 C 
BRANCH  35  36
ATOM     36  C   UNL     1       1.395   4.975  -3.861  0.00  0.00    +0.122 A 
ATOM     37  C   UNL     1       1.778   5.448  -5.061  0.00  0.00    +0.046 A 
ATOM     38  C   UNL     1       3.053   4.898  -5.330  0.00  0.00    +0.041 A 
ATOM     39  C   UNL     1       3.372   4.123  -4.278  0.00  0.00    +0.195 A 
ATOM     40  O   UNL     1       2.367   4.178  -3.389  0.00  0.00    -0.466 OA
ENDBRANCH  35  36
ENDBRANCH   6  35
TORSDOF 10
