REMARK  Name = ZINC42986689
REMARK  11 active torsions:
REMARK  status: ('A' for Active; 'I' for Inactive)
REMARK    1  A    between atoms: C_1  and  C_2
REMARK    2  A    between atoms: C_2  and  C_3
REMARK    3  A    between atoms: C_8  and  N_9
REMARK    4  A    between atoms: C_10  and  C_12
REMARK    5  A    between atoms: C_12  and  C_14
REMARK    6  A    between atoms: C_12  and  S_17
REMARK    7  A    between atoms: C_14  and  C_15
REMARK    8  A    between atoms: C_14  and  C_16
REMARK    9  A    between atoms: S_17  and  C_18
REMARK   10  A    between atoms: N_22  and  C_23
REMARK   11  A    between atoms: C_26  and  O_29
REMARK                            x       y       z     vdW  Elec       q    Type
REMARK                         _______ _______ _______ _____ _____    ______ ____
ROOT
ATOM      1  C   UNL     1      -1.451  -0.272  -4.864  0.00  0.00    +0.143 C 
ENDROOT
BRANCH   1   3
ATOM      2  N   UNL     1      -1.505  -0.315  -2.391  0.00  0.00    -0.284 N 
ATOM      3  C   UNL     1      -2.147  -0.541  -3.555  0.00  0.00    +0.231 C 
ATOM      4  O   UNL     1      -3.285  -0.961  -3.548  0.00  0.00    -0.274 OA
ATOM      5  H   UNL     1      -0.620   0.082  -2.395  0.00  0.00    +0.155 HD
BRANCH   2  11
ATOM      6  C   UNL     1      -1.350  -1.118  -0.119  0.00  0.00    -0.026 A 
ATOM      7  C   UNL     1      -1.955  -1.444   1.079  0.00  0.00    +0.005 A 
ATOM      8  C   UNL     1      -3.324  -1.310   1.222  0.00  0.00    +0.000 A 
ATOM      9  C   UNL     1      -4.091  -0.850   0.168  0.00  0.00    +0.002 A 
ATOM     10  C   UNL     1      -3.492  -0.522  -1.033  0.00  0.00    +0.023 A 
ATOM     11  C   UNL     1      -2.116  -0.651  -1.178  0.00  0.00    +0.037 A 
BRANCH   6  13
ATOM     12  C   UNL     1       0.819   0.076   0.019  0.00  0.00    +0.009 C 
ATOM     13  C   UNL     1       0.142  -1.264  -0.275  0.00  0.00    +0.033 C 
ENDBRANCH   6  13
ENDBRANCH   2  11
ENDBRANCH   1   3
BRANCH   1  14
ATOM     14  C   UNL     1      -1.502   1.226  -5.171  0.00  0.00    +0.005 C 
ATOM     15  C   UNL     1      -2.956   1.702  -5.144  0.00  0.00    +0.009 C 
ATOM     16  C   UNL     1      -0.696   1.990  -4.119  0.00  0.00    +0.009 C 
ENDBRANCH   1  14
BRANCH   1  17
ATOM     17  S   UNL     1      -2.281  -1.190  -6.190  0.00  0.00    -0.071 S 
BRANCH  17  18
ATOM     18  C   UNL     1      -1.276  -0.895  -7.607  0.00  0.00    +0.215 A 
ATOM     19  N   UNL     1      -0.177  -0.173  -7.650  0.00  0.00    -0.101 NA
ATOM     20  N   UNL     1       0.309  -0.165  -8.838  0.00  0.00    -0.022 NA
ATOM     21  N   UNL     1      -0.426  -0.867  -9.630  0.00  0.00    -0.038 NA
ATOM     22  N   UNL     1      -1.486  -1.375  -8.858  0.00  0.00    -0.187 N 
BRANCH  22  23
ATOM     23  C   UNL     1      -2.536  -2.200  -9.290  0.00  0.00    +0.070 A 
ATOM     24  C   UNL     1      -3.055  -3.166  -8.440  0.00  0.00    +0.031 A 
ATOM     25  C   UNL     1      -4.089  -3.977  -8.865  0.00  0.00    +0.047 A 
ATOM     26  C   UNL     1      -4.609  -3.825 -10.142  0.00  0.00    +0.117 A 
ATOM     27  C   UNL     1      -4.090  -2.860 -10.993  0.00  0.00    +0.047 A 
ATOM     28  C   UNL     1      -3.060  -2.045 -10.567  0.00  0.00    +0.031 A 
BRANCH  26  29
ATOM     29  O   UNL     1      -5.626  -4.624 -10.561  0.00  0.00    -0.507 OA
ATOM     30  H   UNL     1      -6.506  -4.269 -10.374  0.00  0.00    +0.292 HD
ENDBRANCH  26  29
ENDBRANCH  22  23
ENDBRANCH  17  18
ENDBRANCH   1  17
TORSDOF 8
