REMARK  Name = ZINC28356734
REMARK  4 active torsions:
REMARK  status: ('A' for Active; 'I' for Inactive)
REMARK    1  A    between atoms: C_6  and  N_7
REMARK    2  A    between atoms: C_8  and  C_18
REMARK    3  A    between atoms: C_13  and  C_16
REMARK    4  A    between atoms: C_21  and  C_23
REMARK                            x       y       z     vdW  Elec       q    Type
REMARK                         _______ _______ _______ _____ _____    ______ ____
ROOT
ATOM      1  N   UNL     1       2.191   3.022  -0.008  0.00  0.00    -0.267 N 
ATOM      2  C   UNL     1       3.493   3.292   0.618  0.00  0.00    +0.234 C 
ATOM      3  N   UNL     1       4.455   2.264   0.217  0.00  0.00    -0.286 N 
ATOM      4  C   UNL     1       4.045   1.008  -0.052  0.00  0.00    +0.258 C 
ATOM      5  O   UNL     1       4.857   0.149  -0.343  0.00  0.00    -0.269 OA
ATOM      6  C   UNL     1       2.618   0.683   0.009  0.00  0.00    +0.142 C 
ATOM      7  C   UNL     1       1.696   1.743   0.029  0.00  0.00    +0.103 C 
ATOM      8  S   UNL     1      -0.039   1.439   0.090  0.00  0.00    -0.033 SA
ATOM      9  H   UNL     1       5.523   2.514   0.132  0.00  0.00    +0.151 HD
ENDROOT
BRANCH   1  15
ATOM     10  C   UNL     1       0.943   5.085   0.133  0.00  0.00    +0.025 A 
ATOM     11  C   UNL     1       0.235   6.099  -0.481  0.00  0.00    +0.022 A 
ATOM     12  C   UNL     1       0.040   6.077  -1.851  0.00  0.00    +0.041 A 
ATOM     13  C   UNL     1       0.558   5.042  -2.610  0.00  0.00    +0.022 A 
ATOM     14  C   UNL     1       1.272   4.029  -2.002  0.00  0.00    +0.025 A 
ATOM     15  C   UNL     1       1.469   4.048  -0.627  0.00  0.00    +0.037 A 
ATOM     16 CL   UNL     1      -0.857   7.349  -2.619  0.00  0.00    -0.084 Cl
ENDBRANCH   1  15
BRANCH   2  17
ATOM     17  C   UNL     1       3.344   3.281   2.118  0.00  0.00    +0.144 A 
ATOM     18  C   UNL     1       4.300   2.926   2.999  0.00  0.00    +0.049 A 
ATOM     19  C   UNL     1       3.744   3.063   4.287  0.00  0.00    +0.050 A 
ATOM     20  C   UNL     1       2.465   3.490   4.119  0.00  0.00    +0.135 A 
ATOM     21  O   UNL     1       2.236   3.618   2.798  0.00  0.00    -0.456 OA
BRANCH  20  22
ATOM     22  C   UNL     1       1.493   3.766   5.198  0.00  0.00    +0.019 A 
ATOM     23  C   UNL     1       0.204   4.202   4.885  0.00  0.00    +0.013 A 
ATOM     24  C   UNL     1      -0.699   4.458   5.896  0.00  0.00    +0.022 A 
ATOM     25  C   UNL     1      -0.329   4.284   7.219  0.00  0.00    +0.059 A 
ATOM     26  C   UNL     1       0.948   3.851   7.536  0.00  0.00    +0.060 A 
ATOM     27  C   UNL     1       1.859   3.587   6.532  0.00  0.00    +0.033 A 
ATOM     28 CL   UNL     1       1.403   3.634   9.198  0.00  0.00    -0.082 Cl
ATOM     29 CL   UNL     1      -1.471   4.608   8.486  0.00  0.00    -0.082 Cl
ENDBRANCH  20  22
ENDBRANCH   2  17
BRANCH   6  30
ATOM     30  C   UNL     1       2.175  -0.678   0.049  0.00  0.00    +0.107 C 
ATOM     31  N   UNL     1       1.824  -1.758   0.081  0.00  0.00    -0.191 NA
ENDBRANCH   6  30
TORSDOF 4
