REMARK  Name = ZINC00384187
REMARK  2 active torsions:
REMARK  status: ('A' for Active; 'I' for Inactive)
REMARK    1  A    between atoms: C_4  and  C_7
REMARK    2  A    between atoms: N_9  and  N_10
REMARK                            x       y       z     vdW  Elec       q    Type
REMARK                         _______ _______ _______ _____ _____    ______ ____
ROOT
ATOM      1  N   UNL     1      -1.137  -2.095   0.002  0.00  0.00    -0.252 N 
ATOM      2  C   UNL     1      -2.314  -2.796   0.009  0.00  0.00    +0.113 C 
ATOM      3  N   UNL     1      -3.362  -2.106   0.023  0.00  0.00    -0.234 NA
ATOM      4  C   UNL     1      -4.690  -2.332   0.083  0.00  0.00    +0.086 A 
ATOM      5  C   UNL     1      -5.520  -1.196   0.029  0.00  0.00    +0.029 A 
ATOM      6  C   UNL     1      -6.888  -1.313   0.094  0.00  0.00    +0.002 A 
ATOM      7  C   UNL     1      -7.472  -2.561   0.214  0.00  0.00    +0.002 A 
ATOM      8  C   UNL     1      -6.678  -3.687   0.264  0.00  0.00    +0.025 A 
ATOM      9  C   UNL     1      -5.289  -3.587   0.194  0.00  0.00    +0.053 A 
ATOM     10  N   UNL     1      -4.570  -4.774   0.228  0.00  0.00    -0.342 N 
ATOM     11  C   UNL     1      -3.269  -4.940   0.833  0.00  0.00    +0.109 C 
ATOM     12  C   UNL     1      -2.187  -4.278  -0.006  0.00  0.00    +0.091 C 
ATOM     13  H   UNL     1      -0.290  -2.568  -0.009  0.00  0.00    +0.171 HD
ATOM     14  H   UNL     1      -4.973  -5.553  -0.188  0.00  0.00    +0.146 HD
ENDROOT
BRANCH   1  17
ATOM     15  C   UNL     1       0.002  -0.004   0.002  0.00  0.00    +0.260 C 
ATOM     16  O   UNL     1       1.063  -0.597  -0.011  0.00  0.00    -0.269 OA
ATOM     17  N   UNL     1      -1.156  -0.694   0.009  0.00  0.00    -0.232 N 
ATOM     18  H   UNL     1      -2.002  -0.220   0.020  0.00  0.00    +0.173 HD
BRANCH  15  22
ATOM     19  C   UNL     1      -0.056   4.243   0.025  0.00  0.00    +0.000 A 
ATOM     20  C   UNL     1       1.154   3.571   0.010  0.00  0.00    +0.001 A 
ATOM     21  C   UNL     1       1.179   2.192   0.003  0.00  0.00    +0.013 A 
ATOM     22  C   UNL     1      -0.018   1.474   0.010  0.00  0.00    +0.038 A 
ATOM     23  C   UNL     1      -1.234   2.159   0.020  0.00  0.00    +0.013 A 
ATOM     24  C   UNL     1      -1.246   3.538   0.033  0.00  0.00    +0.001 A 
ENDBRANCH  15  22
ENDBRANCH   1  17
TORSDOF 2
