REMARK  Name = ZINC22928376
REMARK  13 active torsions:
REMARK  status: ('A' for Active; 'I' for Inactive)
REMARK    1  A    between atoms: C_1  and  C_2
REMARK    2  A    between atoms: C_6  and  C_15
REMARK    3  A    between atoms: C_13  and  C_14
REMARK    4  A    between atoms: C_15  and  N_16
REMARK    5  A    between atoms: N_16  and  C_17
REMARK    6  A    between atoms: N_16  and  C_25
REMARK    7  A    between atoms: C_17  and  C_18
REMARK    8  A    between atoms: C_18  and  N_19
REMARK    9  A    between atoms: C_25  and  C_27
REMARK   10  A    between atoms: C_25  and  C_38
REMARK   11  A    between atoms: N_31  and  C_32
REMARK   12  A    between atoms: C_38  and  C_39
REMARK   13  A    between atoms: C_38  and  C_40
REMARK                            x       y       z     vdW  Elec       q    Type
REMARK                         _______ _______ _______ _____ _____    ______ ____
ROOT
ATOM      1  N   UNL     1       1.630  -5.309  -3.850  0.00  0.00    -0.287 NA
ENDROOT
BRANCH   1   2
ATOM      2  C   UNL     1       0.260  -4.927  -3.483  0.00  0.00    +0.125 C 
BRANCH   2   8
ATOM      3  C   UNL     1       0.318   1.855  -0.382  0.00  0.00    +0.044 C 
ATOM      4  C   UNL     1       0.334   0.353  -0.258  0.00  0.00    -0.047 A 
ATOM      5  C   UNL     1       0.299  -0.420  -1.384  0.00  0.00    +0.013 A 
ATOM      6  C   UNL     1       0.314  -1.813  -1.270  0.00  0.00    -0.001 A 
ATOM      7  C   UNL     1       0.279  -2.671  -2.456  0.00  0.00    +0.020 A 
ATOM      8  C   UNL     1       0.296  -4.016  -2.284  0.00  0.00    +0.031 A 
ATOM      9  C   UNL     1       0.346  -4.566  -0.985  0.00  0.00    +0.254 A 
ATOM     10  O   UNL     1       0.361  -5.777  -0.852  0.00  0.00    -0.268 OA
ATOM     11  N   UNL     1       0.380  -3.786   0.111  0.00  0.00    -0.322 N 
ATOM     12  H   UNL     1       0.415  -4.197   0.989  0.00  0.00    +0.169 HD
ATOM     13  C   UNL     1       0.365  -2.412   0.003  0.00  0.00    +0.049 A 
ATOM     14  C   UNL     1       0.399  -1.605   1.136  0.00  0.00    +0.030 A 
ATOM     15  C   UNL     1       0.389  -0.233   0.999  0.00  0.00    -0.046 A 
ATOM     16  C   UNL     1       0.433   0.639   2.227  0.00  0.00    +0.044 C 
ENDBRANCH   2   8
ENDBRANCH   1   2
BRANCH   1  17
ATOM     17  C   UNL     1       2.164  -6.312  -2.920  0.00  0.00    +0.101 C 
BRANCH  17  18
ATOM     18  C   UNL     1       3.626  -6.602  -3.266  0.00  0.00    +0.100 C 
BRANCH  18  19
ATOM     19  N   UNL     1       4.197  -7.509  -2.261  0.00  0.00    -0.297 NA
ATOM     20  C   UNL     1       4.278  -6.855  -0.947  0.00  0.00    +0.112 C 
ATOM     21  C   UNL     1       4.821  -7.853   0.081  0.00  0.00    +0.175 C 
ATOM     22  O   UNL     1       6.091  -8.340  -0.361  0.00  0.00    -0.377 OA
ATOM     23  C   UNL     1       6.048  -8.983  -1.638  0.00  0.00    +0.175 C 
ATOM     24  C   UNL     1       5.518  -7.998  -2.682  0.00  0.00    +0.112 C 
ENDBRANCH  18  19
ENDBRANCH  17  18
ENDBRANCH   1  17
BRANCH   1  25
ATOM     25  C   UNL     1       1.690  -5.791  -5.236  0.00  0.00    +0.129 C 
BRANCH  25  26
ATOM     26  C   UNL     1       0.697  -6.910  -5.421  0.00  0.00    +0.169 A 
ATOM     27  N   UNL     1      -0.582  -6.877  -5.138  0.00  0.00    -0.112 NA
ATOM     28  N   UNL     1      -1.086  -8.024  -5.437  0.00  0.00    -0.023 NA
ATOM     29  N   UNL     1      -0.161  -8.789  -5.904  0.00  0.00    -0.044 NA
ATOM     30  N   UNL     1       0.952  -8.136  -5.915  0.00  0.00    -0.225 N 
BRANCH  30  31
ATOM     31  C   UNL     1       2.250  -8.637  -6.375  0.00  0.00    +0.111 C 
ATOM     32  C   UNL     1       2.150  -9.034  -7.849  0.00  0.00    +0.027 C 
ATOM     33  C   UNL     1       3.505  -9.556  -8.330  0.00  0.00    +0.002 C 
ATOM     34  C   UNL     1       3.904 -10.778  -7.500  0.00  0.00    +0.000 C 
ATOM     35  C   UNL     1       4.004 -10.381  -6.025  0.00  0.00    +0.002 C 
ATOM     36  C   UNL     1       2.649  -9.858  -5.545  0.00  0.00    +0.027 C 
ENDBRANCH  30  31
ENDBRANCH  25  26
BRANCH  25  37
ATOM     37  C   UNL     1       1.349  -4.645  -6.190  0.00  0.00    +0.008 C 
ATOM     38  C   UNL     1       2.315  -3.482  -5.956  0.00  0.00    +0.009 C 
ATOM     39  C   UNL     1       1.475  -5.130  -7.636  0.00  0.00    +0.009 C 
ENDBRANCH  25  37
ENDBRANCH   1  25
TORSDOF 9
