REMARK  Name = ZINC59410664
REMARK  8 active torsions:
REMARK  status: ('A' for Active; 'I' for Inactive)
REMARK    1  A    between atoms: C_1  and  C_2
REMARK    2  A    between atoms: C_5  and  C_34
REMARK    3  A    between atoms: N_8  and  C_10
REMARK    4  A    between atoms: C_10  and  C_11
REMARK    5  A    between atoms: C_14  and  C_17
REMARK    6  A    between atoms: C_17  and  N_18
REMARK    7  A    between atoms: C_19  and  C_21
REMARK    8  A    between atoms: C_26  and  N_27
REMARK                            x       y       z     vdW  Elec       q    Type
REMARK                         _______ _______ _______ _____ _____    ______ ____
ROOT
ATOM      1  C   UNL     1       0.568   2.717   7.845  0.00  0.00    +0.139 C 
ENDROOT
BRANCH   1   5
ATOM      2  C   UNL     1       3.525   1.652   4.952  0.00  0.00    -0.064 A 
ATOM      3  C   UNL     1       3.593   2.876   5.591  0.00  0.00    +0.002 A 
ATOM      4  C   UNL     1       2.636   3.221   6.527  0.00  0.00    +0.005 A 
ATOM      5  C   UNL     1       1.611   2.342   6.824  0.00  0.00    -0.030 A 
ATOM      6  C   UNL     1       1.543   1.119   6.184  0.00  0.00    +0.005 A 
ATOM      7  C   UNL     1       2.497   0.776   5.244  0.00  0.00    +0.002 A 
BRANCH   2   8
ATOM      8  C   UNL     1       4.568   1.277   3.931  0.00  0.00    -0.043 C 
BRANCH   8  14
ATOM      9  C   UNL     1       2.106   3.014   0.977  0.00  0.00    +0.005 C 
ATOM     10  C   UNL     1       2.421   1.521   0.863  0.00  0.00    -0.031 C 
ATOM     11  C   UNL     1       3.506   1.306  -0.195  0.00  0.00    +0.003 C 
ATOM     12  C   UNL     1       4.791   2.006   0.257  0.00  0.00    -0.031 C 
ATOM     13  C   UNL     1       5.204   1.467   1.628  0.00  0.00    -0.075 C 
ATOM     14  N   UNL     1       4.136   1.726   2.601  0.00  0.00    +0.383 N 
ATOM     15  C   UNL     1       2.920   1.000   2.212  0.00  0.00    -0.075 C 
ATOM     16  C   UNL     1       5.905   1.734  -0.757  0.00  0.00    +0.005 C 
ATOM     17  H   UNL     1       3.941   2.715   2.629  0.00  0.00    -0.081 HD
ENDBRANCH   8  14
ENDBRANCH   2   8
ENDBRANCH   1   5
BRANCH   1  18
ATOM     18  N   UNL     1      -0.542   3.404   7.180  0.00  0.00    -0.307 N 
ATOM     19  C   UNL     1      -1.596   3.834   7.901  0.00  0.00    +0.247 C 
ATOM     20  O   UNL     1      -1.626   3.653   9.102  0.00  0.00    -0.270 OA
ATOM     21  H   UNL     1      -0.518   3.548   6.221  0.00  0.00    +0.149 HD
BRANCH  19  22
ATOM     22  C   UNL     1      -2.715   4.526   7.230  0.00  0.00    +0.071 A 
ATOM     23  C   UNL     1      -2.470   5.655   6.444  0.00  0.00    +0.064 A 
ATOM     24  C   UNL     1      -3.520   6.300   5.817  0.00  0.00    +0.163 A 
ATOM     25  C   UNL     1      -4.820   5.823   5.969  0.00  0.00    +0.164 A 
ATOM     26  C   UNL     1      -5.063   4.701   6.753  0.00  0.00    +0.083 A 
ATOM     27  C   UNL     1      -4.020   4.051   7.376  0.00  0.00    +0.142 A 
ATOM     28  O   UNL     1      -5.863   6.441   5.353  0.00  0.00    -0.485 OA
ATOM     29  C   UNL     1      -5.636   7.774   4.884  0.00  0.00    +0.270 C 
ATOM     30  C   UNL     1      -4.293   7.800   4.141  0.00  0.00    +0.270 C 
ATOM     31  O   UNL     1      -3.267   7.401   5.057  0.00  0.00    -0.485 OA
BRANCH  27  32
ATOM     32  N   UNL     1      -4.284   2.853   8.204  0.00  0.00    +0.057 N 
ATOM     33  O   UNL     1      -5.422   2.513   8.431  0.00  0.00    -0.126 OA
ATOM     34  O   UNL     1      -3.361   2.213   8.653  0.00  0.00    -0.126 OA
ENDBRANCH  27  32
ENDBRANCH  19  22
ENDBRANCH   1  18
TORSDOF 6
