REMARK  Name = ZINC44168986
REMARK  11 active torsions:
REMARK  status: ('A' for Active; 'I' for Inactive)
REMARK    1  A    between atoms: C_1  and  C_2
REMARK    2  A    between atoms: C_2  and  C_40
REMARK    3  A    between atoms: C_5  and  C_38
REMARK    4  A    between atoms: C_5  and  C_39
REMARK    5  A    between atoms: C_10  and  C_12
REMARK    6  A    between atoms: C_17  and  C_20
REMARK    7  A    between atoms: N_22  and  C_23
REMARK    8  A    between atoms: C_23  and  C_24
REMARK    9  A    between atoms: C_24  and  C_25
REMARK   10  A    between atoms: C_25  and  C_26
REMARK   11  A    between atoms: C_25  and  C_32
REMARK                            x       y       z     vdW  Elec       q    Type
REMARK                         _______ _______ _______ _____ _____    ______ ____
ROOT
ATOM      1  C   UNL     1       4.892   0.614   2.167  0.00  0.00    -0.030 C 
ATOM      2  C   UNL     1       5.434  -0.723   1.649  0.00  0.00    +0.058 C 
ATOM      3  S   UNL     1       5.748  -1.805   3.079  0.00  0.00    -0.163 S 
ATOM      4  C   UNL     1       6.719  -0.733   4.184  0.00  0.00    +0.062 C 
ATOM      5  C   UNL     1       5.985   0.606   4.323  0.00  0.00    +0.027 C 
ATOM      6  N   UNL     1       5.895   1.260   3.016  0.00  0.00    +0.392 N 
ATOM      7  H   UNL     1       6.793   1.214   2.559  0.00  0.00    -0.084 HD
ATOM      8  H   UNL     1       5.642   2.228   3.148  0.00  0.00    -0.084 HD
ENDROOT
BRANCH   1  18
ATOM      9  C   UNL     1       3.740   5.527  -1.831  0.00  0.00    +0.016 C 
ATOM     10  C   UNL     1       3.707   4.075  -2.312  0.00  0.00    -0.010 C 
ATOM     11  C   UNL     1       2.343   3.782  -2.933  0.00  0.00    +0.012 C 
ATOM     12  C   UNL     1       1.293   3.779  -1.815  0.00  0.00    +0.012 C 
ATOM     13  C   UNL     1       1.521   2.546  -0.944  0.00  0.00    -0.010 C 
ATOM     14  C   UNL     1       2.962   2.459  -0.514  0.00  0.00    -0.038 A 
ATOM     15  C   UNL     1       3.966   3.159  -1.145  0.00  0.00    -0.038 A 
ATOM     16  C   UNL     1       5.277   3.030  -0.704  0.00  0.00    +0.004 A 
ATOM     17  C   UNL     1       5.579   2.209   0.364  0.00  0.00    +0.002 A 
ATOM     18  C   UNL     1       4.570   1.510   1.000  0.00  0.00    -0.060 A 
ATOM     19  C   UNL     1       3.268   1.636   0.561  0.00  0.00    +0.006 A 
ATOM     20  C   UNL     1       1.155   1.291  -1.739  0.00  0.00    +0.016 C 
ATOM     21  C   UNL     1       0.629   2.633   0.297  0.00  0.00    +0.016 C 
ATOM     22  C   UNL     1       4.795   3.869  -3.368  0.00  0.00    +0.016 C 
ENDBRANCH   1  18
BRANCH   5  23
ATOM     23  C   UNL     1       6.741   1.495   5.276  0.00  0.00    +0.200 C 
ATOM     24  O   UNL     1       7.166   2.566   4.898  0.00  0.00    -0.278 OA
ATOM     25  N   UNL     1       6.944   1.101   6.548  0.00  0.00    -0.317 N 
ATOM     26  H   UNL     1       6.604   0.244   6.851  0.00  0.00    +0.149 HD
BRANCH  25  27
ATOM     27  C   UNL     1       7.679   1.965   7.475  0.00  0.00    +0.105 C 
BRANCH  27  28
ATOM     28  C   UNL     1       7.768   1.287   8.844  0.00  0.00    +0.031 C 
BRANCH  28  29
ATOM     29  C   UNL     1       8.536   2.190   9.811  0.00  0.00    +0.050 C 
BRANCH  29  30
ATOM     30  C   UNL     1       7.753   3.456  10.044  0.00  0.00    -0.040 A 
ATOM     31  C   UNL     1       8.358   4.686   9.865  0.00  0.00    +0.004 A 
ATOM     32  C   UNL     1       7.640   5.848  10.079  0.00  0.00    +0.000 A 
ATOM     33  C   UNL     1       6.317   5.780  10.472  0.00  0.00    +0.000 A 
ATOM     34  C   UNL     1       5.711   4.550  10.651  0.00  0.00    +0.000 A 
ATOM     35  C   UNL     1       6.428   3.388  10.433  0.00  0.00    +0.004 A 
ENDBRANCH  29  30
BRANCH  29  36
ATOM     36  C   UNL     1       8.730   1.471  11.122  0.00  0.00    -0.040 A 
ATOM     37  C   UNL     1       7.647   0.906  11.768  0.00  0.00    +0.004 A 
ATOM     38  C   UNL     1       7.825   0.247  12.970  0.00  0.00    +0.000 A 
ATOM     39  C   UNL     1       9.088   0.152  13.525  0.00  0.00    +0.000 A 
ATOM     40  C   UNL     1      10.171   0.717  12.879  0.00  0.00    +0.000 A 
ATOM     41  C   UNL     1       9.993   1.372  11.675  0.00  0.00    +0.004 A 
ENDBRANCH  29  36
ENDBRANCH  28  29
ENDBRANCH  27  28
ENDBRANCH  25  27
ENDBRANCH   5  23
TORSDOF 7
