REMARK  Name = ZINC53524665
REMARK  7 active torsions:
REMARK  status: ('A' for Active; 'I' for Inactive)
REMARK    1  A    between atoms: C_1  and  N_2
REMARK    2  A    between atoms: N_2  and  C_3
REMARK    3  A    between atoms: C_3  and  C_4
REMARK    4  A    between atoms: N_17  and  C_18
REMARK    5  A    between atoms: C_18  and  C_19
REMARK    6  A    between atoms: C_19  and  C_21
REMARK    7  A    between atoms: C_19  and  N_26
REMARK                            x       y       z     vdW  Elec       q    Type
REMARK                         _______ _______ _______ _____ _____    ______ ____
ROOT
ATOM      1  C   UNL     1      -0.695   1.184   0.044  0.00  0.00    +0.133 C 
ATOM      2  N   UNL     1      -1.075  -0.223  -0.100  0.00  0.00    -0.285 N 
ATOM      3  C   UNL     1      -1.015  -0.817  -1.308  0.00  0.00    +0.302 C 
ATOM      4  O   UNL     1      -1.330  -1.985  -1.427  0.00  0.00    -0.253 OA
ATOM      5  N   UNL     1      -0.604  -0.117  -2.384  0.00  0.00    -0.300 N 
ATOM      6  H   UNL     1      -0.353   0.815  -2.288  0.00  0.00    +0.150 HD
ENDROOT
BRANCH   2   7
ATOM      7  C   UNL     1      -1.521  -0.985   1.070  0.00  0.00    +0.157 C 
BRANCH   7   8
ATOM      8  C   UNL     1      -3.039  -0.855   1.214  0.00  0.00    +0.228 C 
ATOM      9  C   UNL     1      -3.510  -1.639   2.446  0.00  0.00    +0.275 C 
ATOM     10  O   UNL     1      -4.929  -1.486   2.559  0.00  0.00    -0.485 OA
ATOM     11  C   UNL     1      -5.421  -0.224   2.418  0.00  0.00    +0.162 A 
ATOM     12  C   UNL     1      -6.703   0.060   2.865  0.00  0.00    +0.049 A 
ATOM     13  C   UNL     1      -7.217   1.336   2.725  0.00  0.00    +0.004 A 
ATOM     14  C   UNL     1      -6.456   2.330   2.140  0.00  0.00    +0.004 A 
ATOM     15  C   UNL     1      -5.177   2.054   1.695  0.00  0.00    +0.049 A 
ATOM     16  C   UNL     1      -4.655   0.776   1.833  0.00  0.00    +0.163 A 
ATOM     17  O   UNL     1      -3.391   0.521   1.395  0.00  0.00    -0.480 OA
ENDBRANCH   7   8
ENDBRANCH   2   7
BRANCH   5  18
ATOM     18  C   UNL     1      -0.538  -0.762  -3.697  0.00  0.00    +0.098 C 
BRANCH  18  19
ATOM     19  C   UNL     1      -0.173   0.277  -4.758  0.00  0.00    +0.016 C 
BRANCH  19  20
ATOM     20  N   UNL     1      -1.151   1.372  -4.729  0.00  0.00    +0.387 N 
ATOM     21  C   UNL     1      -2.502   0.823  -4.896  0.00  0.00    -0.078 C 
ATOM     22  C   UNL     1      -3.532   1.949  -4.785  0.00  0.00    -0.019 C 
ATOM     23  C   UNL     1      -3.263   2.988  -5.878  0.00  0.00    -0.004 C 
ATOM     24  C   UNL     1      -1.826   3.500  -5.740  0.00  0.00    -0.019 C 
ATOM     25  C   UNL     1      -0.860   2.316  -5.815  0.00  0.00    -0.078 C 
ATOM     26  H   UNL     1      -1.092   1.851  -3.843  0.00  0.00    -0.081 HD
ENDBRANCH  19  20
BRANCH  19  27
ATOM     27  C   UNL     1      -0.183  -0.370  -6.119  0.00  0.00    +0.093 A 
ATOM     28  C   UNL     1       0.900  -0.649  -6.866  0.00  0.00    +0.043 A 
ATOM     29  C   UNL     1       0.433  -1.248  -8.058  0.00  0.00    +0.041 A 
ATOM     30  C   UNL     1      -0.908  -1.300  -7.969  0.00  0.00    +0.195 A 
ATOM     31  O   UNL     1      -1.275  -0.772  -6.790  0.00  0.00    -0.469 OA
ENDBRANCH  19  27
ENDBRANCH  18  19
ENDBRANCH   5  18
TORSDOF 6
