REMARK  Name = ZINC32716885
REMARK  9 active torsions:
REMARK  status: ('A' for Active; 'I' for Inactive)
REMARK    1  A    between atoms: C_1  and  C_2
REMARK    2  A    between atoms: C_2  and  C_3
REMARK    3  A    between atoms: C_2  and  C_4
REMARK    4  A    between atoms: C_2  and  C_5
REMARK    5  A    between atoms: C_12  and  C_14
REMARK    6  A    between atoms: N_16  and  C_17
REMARK    7  A    between atoms: C_17  and  C_18
REMARK    8  A    between atoms: C_18  and  S_19
REMARK    9  A    between atoms: S_19  and  N_22
REMARK                            x       y       z     vdW  Elec       q    Type
REMARK                         _______ _______ _______ _____ _____    ______ ____
ROOT
ATOM      1  C   UNL     1       7.623  -1.156  -6.321  0.00  0.00    +0.128 C 
ENDROOT
BRANCH   1   4
ATOM      2  C   UNL     1       6.006  -0.687  -4.560  0.00  0.00    +0.251 C 
ATOM      3  O   UNL     1       6.936  -0.465  -3.806  0.00  0.00    -0.270 OA
ATOM      4  N   UNL     1       6.245  -1.040  -5.838  0.00  0.00    -0.309 N 
ATOM      5  H   UNL     1       5.504  -1.217  -6.439  0.00  0.00    +0.149 HD
BRANCH   2  12
ATOM      6  C   UNL     1       0.704  -0.328  -1.303  0.00  0.00    -0.001 C 
ATOM      7  C   UNL     1      -0.022   0.190  -2.548  0.00  0.00    +0.009 C 
ATOM      8  C   UNL     1       0.529  -0.540  -3.780  0.00  0.00    +0.043 C 
ATOM      9  C   UNL     1       2.028  -0.505  -3.722  0.00  0.00    -0.006 A 
ATOM     10  C   UNL     1       2.795  -0.194  -2.638  0.00  0.00    -0.036 A 
ATOM     11  C   UNL     1       4.170  -0.226  -2.818  0.00  0.00    +0.024 A 
ATOM     12  C   UNL     1       4.627  -0.571  -4.077  0.00  0.00    +0.074 A 
ATOM     13  S   UNL     1       3.100  -0.837  -4.958  0.00  0.00    -0.088 S 
ATOM     14  C   UNL     1       2.150   0.169  -1.303  0.00  0.00    +0.040 C 
BRANCH   6  16
ATOM     15  C   UNL     1       0.002   1.713  -0.044  0.00  0.00    +0.011 C 
ATOM     16  C   UNL     1      -0.009   0.183  -0.049  0.00  0.00    -0.035 C 
ATOM     17  C   UNL     1       0.713  -0.337   1.196  0.00  0.00    +0.011 C 
ATOM     18  C   UNL     1      -1.455  -0.316  -0.046  0.00  0.00    +0.011 C 
ENDBRANCH   6  16
ENDBRANCH   2  12
ENDBRANCH   1   4
BRANCH   1  19
ATOM     19  C   UNL     1       7.614  -1.567  -7.795  0.00  0.00    +0.204 C 
BRANCH  19  20
ATOM     20  S   UNL     1       9.320  -1.711  -8.393  0.00  0.00    +0.033 S 
ATOM     21  O   UNL     1       9.936  -0.431  -8.428  0.00  0.00    -0.158 OA
ATOM     22  O   UNL     1       9.968  -2.809  -7.765  0.00  0.00    -0.158 OA
BRANCH  20  23
ATOM     23  N   UNL     1       9.179  -2.155  -9.982  0.00  0.00    -0.178 NA
ATOM     24  C   UNL     1       9.125  -3.575 -10.359  0.00  0.00    +0.128 C 
ATOM     25  C   UNL     1       7.853  -3.815 -11.182  0.00  0.00    +0.123 C 
ATOM     26  N   UNL     1       7.778  -2.797 -12.239  0.00  0.00    -0.314 N 
ATOM     27  C   UNL     1       7.832  -1.378 -11.862  0.00  0.00    +0.123 C 
ATOM     28  C   UNL     1       9.098  -1.138 -11.039  0.00  0.00    +0.128 C 
ATOM     29  C   UNL     1       7.659  -3.170 -13.573  0.00  0.00    +0.099 A 
ATOM     30  C   UNL     1       7.736  -4.515 -13.922  0.00  0.00    +0.042 A 
ATOM     31  C   UNL     1       7.615  -4.872 -15.253  0.00  0.00    +0.005 A 
ATOM     32  C   UNL     1       7.422  -3.869 -16.194  0.00  0.00    +0.018 A 
ATOM     33  C   UNL     1       7.356  -2.555 -15.777  0.00  0.00    +0.084 A 
ATOM     34  N   UNL     1       7.468  -2.244 -14.499  0.00  0.00    -0.350 N 
ATOM     35  H   UNL     1       7.414  -1.313 -14.233  0.00  0.00    +0.166 HD
ENDBRANCH  20  23
ENDBRANCH  19  20
ENDBRANCH   1  19
TORSDOF 6
