REMARK  Name = ZINC39991258
REMARK  8 active torsions:
REMARK  status: ('A' for Active; 'I' for Inactive)
REMARK    1  A    between atoms: C_1  and  C_2
REMARK    2  A    between atoms: C_2  and  C_3
REMARK    3  A    between atoms: C_2  and  N_4
REMARK    4  A    between atoms: C_5  and  C_7
REMARK    5  A    between atoms: C_7  and  S_8
REMARK    6  A    between atoms: S_8  and  C_9
REMARK    7  A    between atoms: C_13  and  C_22
REMARK    8  A    between atoms: N_14  and  C_15
REMARK                            x       y       z     vdW  Elec       q    Type
REMARK                         _______ _______ _______ _____ _____    ______ ____
ROOT
ATOM      1  C   UNL     1      -4.576  -3.996  -0.912  0.00  0.00    +0.241 C 
ATOM      2  N   UNL     1      -5.449  -3.040  -1.613  0.00  0.00    -0.237 N 
ATOM      3  N   UNL     1      -6.674  -3.051  -0.936  0.00  0.00    -0.169 NA
ATOM      4  C   UNL     1      -6.652  -3.881   0.073  0.00  0.00    +0.151 C 
ATOM      5  N   UNL     1      -5.410  -4.520   0.182  0.00  0.00    -0.254 N 
ATOM      6  H   UNL     1      -5.220  -2.508  -2.391  0.00  0.00    +0.171 HD
ENDROOT
BRANCH   4   7
ATOM      7  C   UNL     1      -7.735  -4.106   0.937  0.00  0.00    +0.022 C 
ATOM      8  C   UNL     1      -9.025  -3.586   0.826  0.00  0.00    +0.006 A 
ATOM      9  C   UNL     1      -9.628  -2.727  -0.117  0.00  0.00    +0.010 A 
ATOM     10  C   UNL     1     -10.933  -2.379   0.026  0.00  0.00    +0.001 A 
ATOM     11  C   UNL     1     -11.702  -2.851   1.092  0.00  0.00    +0.002 A 
ATOM     12  C   UNL     1     -11.188  -3.679   2.034  0.00  0.00    +0.026 A 
ATOM     13  C   UNL     1      -9.832  -4.087   1.950  0.00  0.00    +0.043 A 
ATOM     14  N   UNL     1      -9.107  -4.871   2.724  0.00  0.00    -0.380 N 
ATOM     15  C   UNL     1      -7.749  -4.968   2.180  0.00  0.00    +0.152 C 
ATOM     16  H   UNL     1      -9.424  -5.316   3.526  0.00  0.00    +0.160 HD
ENDBRANCH   4   7
BRANCH   5  17
ATOM     17  C   UNL     1      -5.035  -5.466   1.139  0.00  0.00    +0.038 A 
ATOM     18  C   UNL     1      -5.189  -6.822   0.875  0.00  0.00    +0.025 A 
ATOM     19  C   UNL     1      -4.817  -7.755   1.823  0.00  0.00    +0.022 A 
ATOM     20  C   UNL     1      -4.293  -7.341   3.035  0.00  0.00    +0.041 A 
ATOM     21  C   UNL     1      -4.139  -5.992   3.301  0.00  0.00    +0.022 A 
ATOM     22  C   UNL     1      -4.503  -5.054   2.354  0.00  0.00    +0.025 A 
ATOM     23 CL   UNL     1      -3.828  -8.517   4.224  0.00  0.00    -0.084 Cl
ENDBRANCH   5  17
BRANCH   1  24
ATOM     24  S   UNL     1      -3.115  -3.150  -0.247  0.00  0.00    -0.108 S 
BRANCH  24  25
ATOM     25  C   UNL     1      -3.805  -1.850   0.812  0.00  0.00    +0.168 C 
BRANCH  25  27
ATOM     26  N   UNL     1      -2.959  -0.036   2.267  0.00  0.00    -0.312 N 
ATOM     27  C   UNL     1      -2.683  -1.061   1.436  0.00  0.00    +0.223 C 
ATOM     28  O   UNL     1      -1.530  -1.348   1.190  0.00  0.00    -0.275 OA
ATOM     29  H   UNL     1      -3.881   0.193   2.463  0.00  0.00    +0.149 HD
BRANCH  26  31
ATOM     30  C   UNL     1      -2.366   2.133   3.228  0.00  0.00    +0.027 C 
ATOM     31  C   UNL     1      -1.868   0.730   2.873  0.00  0.00    +0.067 C 
ATOM     32  C   UNL     1      -1.391   0.022   4.142  0.00  0.00    +0.027 C 
ENDBRANCH  26  31
ENDBRANCH  25  27
ENDBRANCH  24  25
ENDBRANCH   1  24
TORSDOF 6
