REMARK  Name = ZINC37037675
REMARK  6 active torsions:
REMARK  status: ('A' for Active; 'I' for Inactive)
REMARK    1  A    between atoms: C_3  and  S_12
REMARK    2  A    between atoms: C_4  and  N_11
REMARK    3  A    between atoms: C_6  and  C_7
REMARK    4  A    between atoms: S_12  and  C_13
REMARK    5  A    between atoms: C_13  and  C_14
REMARK    6  A    between atoms: C_17  and  N_19
REMARK                            x       y       z     vdW  Elec       q    Type
REMARK                         _______ _______ _______ _____ _____    ______ ____
ROOT
ATOM      1  C   UNL     1      -0.017   1.378   0.010  0.00  0.00    +0.013 A 
ATOM      2  C   UNL     1       1.169   2.090   0.002  0.00  0.00    +0.017 A 
ATOM      3  C   UNL     1       2.381   1.417  -0.013  0.00  0.00    +0.029 A 
ATOM      4  C   UNL     1       2.400   0.021  -0.021  0.00  0.00    +0.039 A 
ATOM      5  C   UNL     1       1.207  -0.684  -0.013  0.00  0.00    +0.036 A 
ATOM      6  C   UNL     1       0.002  -0.004   0.002  0.00  0.00    +0.057 A 
ENDROOT
BRANCH   6   7
ATOM      7  C   UNL     1      -1.294  -0.773   0.011  0.00  0.00    +0.417 C 
ATOM      8  F   UNL     1      -2.368   0.123   0.026  0.00  0.00    -0.166 F 
ATOM      9  F   UNL     1      -1.370  -1.572  -1.135  0.00  0.00    -0.166 F 
ATOM     10  F   UNL     1      -1.347  -1.584   1.149  0.00  0.00    -0.166 F 
ENDBRANCH   6   7
BRANCH   4  11
ATOM     11  N   UNL     1       3.621  -0.664  -0.037  0.00  0.00    -0.357 N 
ATOM     12  H   UNL     1       4.455  -0.170  -0.042  0.00  0.00    +0.142 HD
ATOM     13  H   UNL     1       3.632  -1.634  -0.042  0.00  0.00    +0.142 HD
ENDBRANCH   4  11
BRANCH   3  14
ATOM     14  S   UNL     1       3.894   2.321  -0.023  0.00  0.00    -0.116 S 
BRANCH  14  15
ATOM     15  C   UNL     1       3.368   4.057  -0.009  0.00  0.00    +0.148 C 
BRANCH  15  16
ATOM     16  C   UNL     1       4.581   4.950  -0.017  0.00  0.00    +0.118 A 
ATOM     17  C   UNL     1       5.201   5.426  -1.111  0.00  0.00    +0.048 A 
ATOM     18  C   UNL     1       6.284   6.214  -0.659  0.00  0.00    +0.076 A 
ATOM     19  C   UNL     1       6.261   6.173   0.685  0.00  0.00    +0.280 A 
ATOM     20  O   UNL     1       5.224   5.410   1.069  0.00  0.00    -0.438 OA
BRANCH  19  21
ATOM     21  N   UNL     1       7.214   6.857   1.589  0.00  0.00    +0.093 N 
ATOM     22  O   UNL     1       8.110   7.525   1.129  0.00  0.00    -0.123 OA
ATOM     23  O   UNL     1       7.095   6.747   2.787  0.00  0.00    -0.123 OA
ENDBRANCH  19  21
ENDBRANCH  15  16
ENDBRANCH  14  15
ENDBRANCH   3  14
TORSDOF 6
