REMARK  Name = ZINC39994280
REMARK  8 active torsions:
REMARK  status: ('A' for Active; 'I' for Inactive)
REMARK    1  A    between atoms: C_1  and  C_2
REMARK    2  A    between atoms: C_9  and  N_27
REMARK    3  A    between atoms: C_10  and  C_13
REMARK    4  A    between atoms: C_14  and  C_15
REMARK    5  A    between atoms: C_14  and  C_17
REMARK    6  A    between atoms: N_19  and  C_20
REMARK    7  A    between atoms: C_29  and  C_36
REMARK    8  A    between atoms: C_32  and  C_35
REMARK                            x       y       z     vdW  Elec       q    Type
REMARK                         _______ _______ _______ _____ _____    ______ ____
ROOT
ATOM      1  C   UNL     1       0.946   1.297   0.017  0.00  0.00    +0.047 C 
ATOM      2  C   UNL     1       0.653  -0.181   0.025  0.00  0.00    -0.007 A 
ATOM      3  C   UNL     1       0.687  -0.894  -1.138  0.00  0.00    +0.008 A 
ATOM      4  C   UNL     1       0.413  -2.267  -1.115  0.00  0.00    +0.019 A 
ATOM      5  C   UNL     1       0.116  -2.880   0.054  0.00  0.00    +0.096 A 
ATOM      6  N   UNL     1       0.079  -2.176   1.221  0.00  0.00    -0.267 N 
ATOM      7  C   UNL     1       0.348  -0.836   1.231  0.00  0.00    +0.145 A 
ATOM      8  N   UNL     1       0.322  -0.130   2.363  0.00  0.00    -0.213 NA
ATOM      9  C   UNL     1       0.042  -0.693   3.528  0.00  0.00    +0.136 A 
ATOM     10  C   UNL     1      -0.240  -2.082   3.583  0.00  0.00    +0.081 A 
ATOM     11  C   UNL     1      -0.221  -2.820   2.370  0.00  0.00    +0.267 A 
ATOM     12  O   UNL     1      -0.457  -4.015   2.368  0.00  0.00    -0.267 OA
ENDROOT
BRANCH   9  13
ATOM     13  N   UNL     1       0.024   0.064   4.677  0.00  0.00    -0.314 N 
ATOM     14  C   UNL     1       0.581  -0.464   5.930  0.00  0.00    +0.109 C 
ATOM     15  C   UNL     1       1.605   0.536   6.474  0.00  0.00    +0.004 C 
ATOM     16  C   UNL     1       0.948   1.911   6.609  0.00  0.00    +0.009 C 
ATOM     17  C   UNL     1       0.485   2.395   5.233  0.00  0.00    +0.004 C 
ATOM     18  C   UNL     1      -0.547   1.417   4.673  0.00  0.00    +0.109 C 
ATOM     19  C   UNL     1       1.685   2.464   4.286  0.00  0.00    +0.009 C 
ATOM     20  C   UNL     1       2.098   0.068   7.845  0.00  0.00    +0.009 C 
ENDBRANCH   9  13
BRANCH  10  21
ATOM     21  C   UNL     1      -0.541  -2.710   4.803  0.00  0.00    +0.040 C 
ATOM     22  C   UNL     1       0.307  -3.685   5.311  0.00  0.00    +0.114 C 
BRANCH  22  23
ATOM     23  C   UNL     1      -0.066  -4.425   6.520  0.00  0.00    +0.259 C 
ATOM     24  O   UNL     1      -1.119  -4.183   7.080  0.00  0.00    -0.269 OA
ATOM     25  N   UNL     1       0.757  -5.372   7.013  0.00  0.00    -0.281 N 
ATOM     26  H   UNL     1       1.564  -5.612   6.530  0.00  0.00    +0.155 HD
BRANCH  25  27
ATOM     27  C   UNL     1       0.449  -6.008   8.219  0.00  0.00    +0.034 A 
ATOM     28  C   UNL     1       1.465  -6.371   9.094  0.00  0.00    +0.025 A 
ATOM     29  C   UNL     1       1.158  -6.998  10.285  0.00  0.00    +0.022 A 
ATOM     30  C   UNL     1      -0.161  -7.267  10.607  0.00  0.00    +0.041 A 
ATOM     31  C   UNL     1      -1.175  -6.907   9.737  0.00  0.00    +0.022 A 
ATOM     32  C   UNL     1      -0.874  -6.274   8.548  0.00  0.00    +0.025 A 
ATOM     33 CL   UNL     1      -0.544  -8.057  12.105  0.00  0.00    -0.084 Cl
ENDBRANCH  25  27
ENDBRANCH  22  23
BRANCH  22  34
ATOM     34  C   UNL     1       1.547  -3.969   4.652  0.00  0.00    +0.104 C 
ATOM     35  N   UNL     1       2.530  -4.194   4.129  0.00  0.00    -0.191 NA
ENDBRANCH  22  34
ENDBRANCH  10  21
TORSDOF 5
