REMARK  Name = ZINC39345134
REMARK  8 active torsions:
REMARK  status: ('A' for Active; 'I' for Inactive)
REMARK    1  A    between atoms: C_1  and  C_2
REMARK    2  A    between atoms: C_4  and  C_9
REMARK    3  A    between atoms: C_5  and  O_8
REMARK    4  A    between atoms: C_9  and  C_11
REMARK    5  A    between atoms: C_9  and  C_22
REMARK    6  A    between atoms: C_15  and  N_18
REMARK    7  A    between atoms: C_16  and  O_17
REMARK    8  A    between atoms: C_23  and  C_28
REMARK                            x       y       z     vdW  Elec       q    Type
REMARK                         _______ _______ _______ _____ _____    ______ ____
ROOT
ATOM      1  C   UNL     1      -2.564  -0.551  -0.768  0.00  0.00    +0.093 C 
ENDROOT
BRANCH   1   2
ATOM      2  C   UNL     1      -2.474  -1.394  -2.014  0.00  0.00    +0.053 A 
ATOM      3  C   UNL     1      -3.192  -2.566  -2.269  0.00  0.00    +0.068 A 
ATOM      4  N   UNL     1      -2.847  -3.010  -3.450  0.00  0.00    -0.176 NA
ATOM      5  N   UNL     1      -1.896  -2.135  -3.990  0.00  0.00    -0.243 N 
ATOM      6  C   UNL     1      -1.685  -1.146  -3.093  0.00  0.00    +0.271 A 
ATOM      7  O   UNL     1      -0.836  -0.097  -3.242  0.00  0.00    -0.266 OA
ATOM      8  C   UNL     1      -4.192  -3.208  -1.342  0.00  0.00    +0.068 C 
ATOM      9  H   UNL     1      -1.466  -2.222  -4.855  0.00  0.00    +0.192 HD
ENDBRANCH   1   2
BRANCH   1  10
ATOM     10  C   UNL     1      -3.209   0.770  -1.101  0.00  0.00    +0.009 A 
ATOM     11  C   UNL     1      -2.561   1.667  -1.928  0.00  0.00    +0.023 A 
ATOM     12  C   UNL     1      -3.153   2.879  -2.234  0.00  0.00    +0.021 A 
ATOM     13  C   UNL     1      -4.395   3.196  -1.712  0.00  0.00    +0.051 A 
ATOM     14  C   UNL     1      -5.046   2.302  -0.885  0.00  0.00    +0.169 A 
ATOM     15  C   UNL     1      -4.457   1.083  -0.582  0.00  0.00    +0.151 A 
ATOM     16 BR   UNL     1      -2.263   4.105  -3.366  0.00  0.00    -0.050 Br
BRANCH  14  17
ATOM     17  N   UNL     1      -6.374   2.642  -0.327  0.00  0.00    +0.060 N 
ATOM     18  O   UNL     1      -6.889   3.702  -0.596  0.00  0.00    -0.126 OA
ATOM     19  O   UNL     1      -6.944   1.859   0.397  0.00  0.00    -0.126 OA
ENDBRANCH  14  17
BRANCH  15  20
ATOM     20  O   UNL     1      -5.098   0.200   0.228  0.00  0.00    -0.504 OA
ATOM     21  H   UNL     1      -4.898   0.310   1.168  0.00  0.00    +0.292 HD
ENDBRANCH  15  20
ENDBRANCH   1  10
BRANCH   1  24
ATOM     22  C   UNL     1      -1.243   1.879   0.997  0.00  0.00    +0.039 C 
ATOM     23  C   UNL     1      -0.476   1.017  -0.009  0.00  0.00    +0.157 C 
ATOM     24  C   UNL     1      -1.180  -0.311  -0.224  0.00  0.00    +0.031 C 
ATOM     25  C   UNL     1      -0.284  -1.220   0.185  0.00  0.00    +0.234 C 
ATOM     26  N   UNL     1       0.851  -0.614   0.611  0.00  0.00    -0.116 NA
ATOM     27  N   UNL     1       0.833   0.621   0.537  0.00  0.00    -0.176 NA
BRANCH  25  28
ATOM     28  O   UNL     1      -0.486  -2.563   0.173  0.00  0.00    -0.491 OA
ATOM     29  H   UNL     1       0.265  -3.077   0.503  0.00  0.00    +0.294 HD
ENDBRANCH  25  28
ENDBRANCH   1  24
TORSDOF 6
