REMARK  Name = ZINC21108544
REMARK  7 active torsions:
REMARK  status: ('A' for Active; 'I' for Inactive)
REMARK    1  A    between atoms: C_1  and  C_2
REMARK    2  A    between atoms: C_7  and  S_8
REMARK    3  A    between atoms: S_8  and  N_11
REMARK    4  A    between atoms: N_11  and  C_12
REMARK    5  A    between atoms: C_12  and  C_13
REMARK    6  A    between atoms: N_16  and  C_19
REMARK    7  A    between atoms: C_19  and  C_20
REMARK                            x       y       z     vdW  Elec       q    Type
REMARK                         _______ _______ _______ _____ _____    ______ ____
ROOT
ATOM      1  N   UNL     1       2.909   4.102   0.113  0.00  0.00    -0.190 NA
ATOM      2  H   UNL     1       3.751   3.561   0.572  0.00  0.00    +0.148 HD
ENDROOT
BRANCH   1   3
ATOM      3  S   UNL     1       3.151   5.636  -0.462  0.00  0.00    +0.059 S 
ATOM      4  O   UNL     1       4.549   5.881  -0.389  0.00  0.00    -0.153 OA
ATOM      5  O   UNL     1       2.423   5.733  -1.678  0.00  0.00    -0.153 OA
BRANCH   3  12
ATOM      6  C   UNL     1       4.052   6.022   2.394  0.00  0.00    +0.046 C 
ATOM      7  C   UNL     1       2.871   6.853   1.963  0.00  0.00    -0.022 A 
ATOM      8  C   UNL     1       2.276   7.722   2.860  0.00  0.00    +0.032 A 
ATOM      9  C   UNL     1       1.190   8.485   2.463  0.00  0.00    +0.076 A 
ATOM     10  C   UNL     1       0.700   8.374   1.162  0.00  0.00    +0.144 A 
ATOM     11  C   UNL     1       1.304   7.508   0.269  0.00  0.00    +0.076 A 
ATOM     12  C   UNL     1       2.385   6.745   0.673  0.00  0.00    +0.112 A 
ATOM     13  O   UNL     1      -0.367   9.127   0.784  0.00  0.00    -0.481 OA
ATOM     14  C   UNL     1      -1.342   9.412   1.790  0.00  0.00    +0.325 C 
ATOM     15  C   UNL     1      -0.651   9.858   3.053  0.00  0.00    +0.255 C 
ATOM     16  O   UNL     1      -1.192  10.651   3.796  0.00  0.00    -0.272 OA
ATOM     17  N   UNL     1       0.573   9.372   3.355  0.00  0.00    -0.280 N 
ATOM     18  H   UNL     1       1.085   9.662   4.285  0.00  0.00    +0.155 HD
ENDBRANCH   3  12
ENDBRANCH   1   3
BRANCH   1  19
ATOM     19  C   UNL     1       1.551   3.561   0.210  0.00  0.00    +0.109 C 
BRANCH  19  20
ATOM     20  C   UNL     1       1.618   2.042   0.383  0.00  0.00    +0.001 C 
ATOM     21  C   UNL     1       0.208   1.491   0.609  0.00  0.00    -0.014 C 
ATOM     22  C   UNL     1       0.273  -0.034   0.721  0.00  0.00    -0.078 C 
ATOM     23  N   UNL     1       0.846  -0.592  -0.511  0.00  0.00    +0.382 N 
ATOM     24  C   UNL     1       2.217  -0.114  -0.724  0.00  0.00    -0.078 C 
ATOM     25  C   UNL     1       2.209   1.409  -0.879  0.00  0.00    -0.014 C 
ATOM     26  H   UNL     1       0.233  -0.241  -1.355  0.00  0.00    -0.081 HD
BRANCH  23  27
ATOM     27  C   UNL     1       0.797  -2.060  -0.496  0.00  0.00    -0.040 C 
BRANCH  27  28
ATOM     28  C   UNL     1       1.159  -2.589  -1.860  0.00  0.00    -0.029 A 
ATOM     29  C   UNL     1       0.165  -2.997  -2.730  0.00  0.00    +0.004 A 
ATOM     30  C   UNL     1       0.497  -3.476  -3.983  0.00  0.00    +0.000 A 
ATOM     31  C   UNL     1       1.824  -3.559  -4.364  0.00  0.00    +0.003 A 
ATOM     32  C   UNL     1       2.819  -3.158  -3.494  0.00  0.00    +0.038 A 
ATOM     33  C   UNL     1       2.488  -2.672  -2.240  0.00  0.00    +0.125 A 
ATOM     34  F   UNL     1       3.460  -2.279  -1.389  0.00  0.00    -0.205 F 
ENDBRANCH  27  28
ENDBRANCH  23  27
ENDBRANCH  19  20
ENDBRANCH   1  19
TORSDOF 6
