REMARK  Name = ZINC09514536
REMARK  5 active torsions:
REMARK  status: ('A' for Active; 'I' for Inactive)
REMARK    1  A    between atoms: C_1  and  C_2
REMARK    2  A    between atoms: C_2  and  C_29
REMARK    3  A    between atoms: N_5  and  C_9
REMARK    4  A    between atoms: C_9  and  C_10
REMARK    5  A    between atoms: C_21  and  C_23
REMARK                            x       y       z     vdW  Elec       q    Type
REMARK                         _______ _______ _______ _____ _____    ______ ____
ROOT
ATOM      1  C   UNL     1       3.939   2.476   1.308  0.00  0.00    +0.047 C 
ATOM      2  C   UNL     1       3.689   3.205  -0.013  0.00  0.00    +0.136 C 
ATOM      3  C   UNL     1       3.773   2.240  -1.179  0.00  0.00    +0.251 C 
ATOM      4  O   UNL     1       3.075   1.270  -1.378  0.00  0.00    -0.272 OA
ATOM      5  N   UNL     1       4.786   2.686  -1.948  0.00  0.00    -0.215 N 
ATOM      6  C   UNL     1       5.348   3.787  -1.435  0.00  0.00    +0.310 C 
ATOM      7  O   UNL     1       6.280   4.372  -1.951  0.00  0.00    -0.252 OA
ATOM      8  N   UNL     1       4.765   4.173  -0.286  0.00  0.00    -0.281 N 
ATOM      9  H   UNL     1       5.007   4.940   0.257  0.00  0.00    +0.152 HD
ENDROOT
BRANCH   2  10
ATOM     10  C   UNL     1       2.349   3.894   0.009  0.00  0.00    -0.008 A 
ATOM     11  C   UNL     1       2.271   5.244  -0.151  0.00  0.00    +0.007 A 
ATOM     12  C   UNL     1       1.041   5.899  -0.133  0.00  0.00    +0.001 A 
ATOM     13  C   UNL     1      -0.118   5.208   0.046  0.00  0.00    +0.008 A 
ATOM     14  C   UNL     1      -0.077   3.814   0.215  0.00  0.00    -0.018 A 
ATOM     15  C   UNL     1       1.174   3.148   0.196  0.00  0.00    -0.012 A 
ATOM     16  C   UNL     1       1.214   1.753   0.365  0.00  0.00    +0.009 A 
ATOM     17  C   UNL     1       0.055   1.062   0.543  0.00  0.00    +0.001 A 
ATOM     18  C   UNL     1      -1.175   1.717   0.556  0.00  0.00    +0.001 A 
ATOM     19  C   UNL     1      -1.253   3.067   0.401  0.00  0.00    +0.008 A 
ENDBRANCH   2  10
BRANCH   5  20
ATOM     20  C   UNL     1       5.218   2.045  -3.192  0.00  0.00    +0.214 C 
BRANCH  20  21
ATOM     21  C   UNL     1       4.455   2.632  -4.352  0.00  0.00    +0.238 C 
ATOM     22  O   UNL     1       3.697   3.562  -4.170  0.00  0.00    -0.273 OA
ATOM     23  N   UNL     1       4.615   2.124  -5.590  0.00  0.00    -0.256 N 
ATOM     24  C   UNL     1       4.010   2.727  -6.706  0.00  0.00    +0.079 A 
ATOM     25  C   UNL     1       3.478   4.003  -6.604  0.00  0.00    +0.027 A 
ATOM     26  C   UNL     1       2.881   4.590  -7.705  0.00  0.00    +0.002 A 
ATOM     27  C   UNL     1       2.816   3.906  -8.905  0.00  0.00    +0.004 A 
ATOM     28  C   UNL     1       3.347   2.635  -9.012  0.00  0.00    +0.047 A 
ATOM     29  C   UNL     1       3.948   2.038  -7.914  0.00  0.00    +0.142 A 
ATOM     30  O   UNL     1       4.474   0.790  -8.031  0.00  0.00    -0.488 OA
ATOM     31  C   UNL     1       4.680   0.039  -6.832  0.00  0.00    +0.256 C 
ATOM     32  C   UNL     1       5.434   0.922  -5.821  0.00  0.00    +0.149 C 
BRANCH  32  33
ATOM     33  C   UNL     1       6.776   1.317  -6.382  0.00  0.00    -0.023 A 
ATOM     34  C   UNL     1       6.861   2.322  -7.327  0.00  0.00    +0.005 A 
ATOM     35  C   UNL     1       8.092   2.688  -7.839  0.00  0.00    +0.000 A 
ATOM     36  C   UNL     1       9.237   2.042  -7.412  0.00  0.00    +0.000 A 
ATOM     37  C   UNL     1       9.151   1.034  -6.470  0.00  0.00    +0.000 A 
ATOM     38  C   UNL     1       7.921   0.671  -5.955  0.00  0.00    +0.005 A 
ENDBRANCH  32  33
ENDBRANCH  20  21
ENDBRANCH   5  20
TORSDOF 4
