REMARK  Name = ZINC39595583
REMARK  8 active torsions:
REMARK  status: ('A' for Active; 'I' for Inactive)
REMARK    1  A    between atoms: C_1  and  C_2
REMARK    2  A    between atoms: C_2  and  C_4
REMARK    3  A    between atoms: C_2  and  O_31
REMARK    4  A    between atoms: C_4  and  N_5
REMARK    5  A    between atoms: C_6  and  C_8
REMARK    6  A    between atoms: C_19  and  C_21
REMARK    7  A    between atoms: C_24  and  C_27
REMARK    8  A    between atoms: O_31  and  C_32
REMARK                            x       y       z     vdW  Elec       q    Type
REMARK                         _______ _______ _______ _____ _____    ______ ____
ROOT
ATOM      1  C   UNL     1      -2.597  -4.245   0.443  0.00  0.00    +0.100 C 
ATOM      2  C   UNL     1      -2.139  -4.678   1.854  0.00  0.00    +0.121 C 
ATOM      3  N   UNL     1      -3.398  -4.884   2.609  0.00  0.00    -0.296 N 
ATOM      4  C   UNL     1      -4.312  -5.525   1.634  0.00  0.00    +0.115 C 
ATOM      5  C   UNL     1      -4.022  -4.806   0.301  0.00  0.00    -0.004 C 
ATOM      6  C   UNL     1      -4.087  -5.796  -0.858  0.00  0.00    -0.010 C 
ATOM      7  C   UNL     1      -5.526  -6.296  -1.016  0.00  0.00    -0.082 C 
ATOM      8  N   UNL     1      -6.417  -5.157  -1.269  0.00  0.00    +0.379 N 
ATOM      9  C   UNL     1      -6.419  -4.256  -0.109  0.00  0.00    -0.082 C 
ATOM     10  C   UNL     1      -5.018  -3.670   0.087  0.00  0.00    -0.010 C 
ATOM     11  C   UNL     1      -3.653  -4.562   3.893  0.00  0.00    +0.247 C 
ATOM     12  O   UNL     1      -2.832  -3.940   4.538  0.00  0.00    -0.270 OA
ATOM     13  H   UNL     1      -6.095  -4.654  -2.083  0.00  0.00    -0.086 HD
ATOM     14  H   UNL     1      -7.354  -5.494  -1.433  0.00  0.00    -0.086 HD
ENDROOT
BRANCH  11  15
ATOM     15  C   UNL     1      -4.931  -4.967   4.516  0.00  0.00    +0.037 A 
ATOM     16  C   UNL     1      -5.633  -6.069   4.024  0.00  0.00    +0.013 A 
ATOM     17  C   UNL     1      -6.825  -6.441   4.611  0.00  0.00    +0.013 A 
ATOM     18  C   UNL     1      -7.324  -5.726   5.684  0.00  0.00    +0.055 A 
ATOM     19  C   UNL     1      -6.634  -4.633   6.177  0.00  0.00    +0.013 A 
ATOM     20  C   UNL     1      -5.438  -4.253   5.603  0.00  0.00    +0.013 A 
BRANCH  18  21
ATOM     21  C   UNL     1      -8.627  -6.138   6.320  0.00  0.00    +0.417 C 
ATOM     22  F   UNL     1      -8.376  -7.054   7.347  0.00  0.00    -0.166 F 
ATOM     23  F   UNL     1      -9.267  -5.011   6.846  0.00  0.00    -0.166 F 
ATOM     24  F   UNL     1      -9.449  -6.733   5.356  0.00  0.00    -0.166 F 
ENDBRANCH  18  21
ENDBRANCH  11  15
BRANCH   1  26
ATOM     25  N   UNL     1      -2.570  -2.154  -0.878  0.00  0.00    -0.312 N 
ATOM     26  C   UNL     1      -2.612  -2.742   0.334  0.00  0.00    +0.218 C 
ATOM     27  O   UNL     1      -2.662  -2.062   1.337  0.00  0.00    -0.275 OA
ATOM     28  H   UNL     1      -2.530  -2.698  -1.680  0.00  0.00    +0.149 HD
BRANCH  25  29
ATOM     29  C   UNL     1      -2.584  -0.693  -0.984  0.00  0.00    +0.148 C 
BRANCH  29  31
ATOM     30  C   UNL     1      -2.418   1.234  -2.565  0.00  0.00    +0.053 C 
ATOM     31  C   UNL     1      -2.529  -0.288  -2.458  0.00  0.00    +0.187 C 
BRANCH  31  32
ATOM     32  O   UNL     1      -3.718  -0.726  -3.117  0.00  0.00    -0.488 OA
BRANCH  32  33
ATOM     33  C   UNL     1      -3.642  -0.926  -4.460  0.00  0.00    +0.121 A 
ATOM     34  C   UNL     1      -2.422  -0.808  -5.111  0.00  0.00    +0.048 A 
ATOM     35  C   UNL     1      -2.346  -1.012  -6.475  0.00  0.00    +0.042 A 
ATOM     36  C   UNL     1      -3.486  -1.334  -7.192  0.00  0.00    +0.124 A 
ATOM     37  C   UNL     1      -4.703  -1.452  -6.544  0.00  0.00    +0.042 A 
ATOM     38  C   UNL     1      -4.781  -1.255  -5.179  0.00  0.00    +0.048 A 
ATOM     39  F   UNL     1      -3.410  -1.532  -8.527  0.00  0.00    -0.205 F 
ENDBRANCH  32  33
ENDBRANCH  31  32
ENDBRANCH  29  31
ENDBRANCH  25  29
ENDBRANCH   1  26
TORSDOF 7
