REMARK  Name = ZINC36056866
REMARK  11 active torsions:
REMARK  status: ('A' for Active; 'I' for Inactive)
REMARK    1  A    between atoms: C_1  and  C_2
REMARK    2  A    between atoms: C_2  and  O_4
REMARK    3  A    between atoms: O_4  and  C_5
REMARK    4  A    between atoms: C_15  and  O_36
REMARK    5  A    between atoms: C_16  and  O_32
REMARK    6  A    between atoms: C_19  and  C_31
REMARK    7  A    between atoms: C_24  and  C_25
REMARK    8  A    between atoms: C_24  and  O_27
REMARK    9  A    between atoms: O_27  and  C_28
REMARK   10  A    between atoms: C_28  and  C_30
REMARK   11  A    between atoms: O_32  and  N_33
REMARK                            x       y       z     vdW  Elec       q    Type
REMARK                         _______ _______ _______ _____ _____    ______ ____
ROOT
ATOM      1  C   UNL     1      -1.117  -2.060   0.121  0.00  0.00    +0.132 A 
ATOM      2  C   UNL     1       0.166  -2.584   0.175  0.00  0.00    +0.047 A 
ATOM      3  C   UNL     1       0.347  -3.951   0.188  0.00  0.00    +0.010 A 
ATOM      4  C   UNL     1      -0.744  -4.813   0.146  0.00  0.00    -0.009 A 
ATOM      5  C   UNL     1      -2.016  -4.291   0.085  0.00  0.00    -0.038 A 
ATOM      6  C   UNL     1      -2.204  -2.916   0.075  0.00  0.00    +0.050 A 
ATOM      7  C   UNL     1      -3.246  -5.161   0.019  0.00  0.00    +0.036 C 
ATOM      8  C   UNL     1      -2.853  -6.542  -0.521  0.00  0.00    +0.012 C 
ATOM      9  C   UNL     1      -1.750  -7.087   0.373  0.00  0.00    +0.033 C 
ATOM     10  C   UNL     1      -0.458  -6.295   0.184  0.00  0.00    +0.133 C 
ATOM     11  C   UNL     1       0.321  -6.700  -1.057  0.00  0.00    +0.246 C 
ATOM     12  C   UNL     1       0.530  -8.214  -1.170  0.00  0.00    +0.062 C 
ATOM     13  C   UNL     1      -0.788  -8.939  -1.072  0.00  0.00    +0.026 C 
ATOM     14  C   UNL     1      -1.486  -8.553   0.247  0.00  0.00    +0.006 C 
ATOM     15  C   UNL     1      -2.685  -9.509   0.264  0.00  0.00    +0.009 C 
ATOM     16  C   UNL     1      -2.059 -10.843  -0.231  0.00  0.00    +0.062 C 
ATOM     17  C   UNL     1      -0.733 -10.472  -0.946  0.00  0.00    +0.179 C 
ATOM     18  C   UNL     1      -1.653  -8.652  -2.304  0.00  0.00    +0.016 C 
ENDROOT
BRANCH  17  19
ATOM     19  C   UNL     1       0.418 -10.920  -0.157  0.00  0.00    -0.058 C 
ATOM     20  C   UNL     1       1.340 -11.279   0.474  0.00  0.00    +0.008 C 
ENDBRANCH  17  19
BRANCH  10  21
ATOM     21  O   UNL     1       0.380  -6.542   1.329  0.00  0.00    -0.380 OA
ATOM     22  H   UNL     1       1.224  -6.071   1.308  0.00  0.00    +0.211 HD
ENDBRANCH  10  21
BRANCH   1  23
ATOM     23  O   UNL     1      -1.307  -0.714   0.113  0.00  0.00    -0.426 OA
BRANCH  23  25
ATOM     24  C   UNL     1      -1.839   1.372   1.322  0.00  0.00    +0.136 C 
ATOM     25  C   UNL     1      -1.722  -0.129   1.248  0.00  0.00    +0.309 C 
ATOM     26  O   UNL     1      -2.002  -0.805   2.209  0.00  0.00    -0.251 OA
ENDBRANCH  23  25
ENDBRANCH   1  23
BRANCH  17  27
ATOM     27  O   UNL     1      -0.703 -11.055  -2.251  0.00  0.00    -0.445 OA
BRANCH  27  28
ATOM     28  C   UNL     1      -0.653 -12.394  -2.319  0.00  0.00    +0.305 C 
ATOM     29  O   UNL     1      -0.637 -13.051  -1.305  0.00  0.00    -0.251 OA
ATOM     30  C   UNL     1      -0.619 -13.080  -3.661  0.00  0.00    +0.136 C 
ENDBRANCH  27  28
ENDBRANCH  17  27
BRANCH  11  31
ATOM     31  O   UNL     1      -0.281  -6.168  -2.230  0.00  0.00    -0.345 OA
BRANCH  31  32
ATOM     32  N   UNL     1       0.616  -6.004  -3.314  0.00  0.00    +0.218 N 
ATOM     33  O   UNL     1       1.779  -6.310  -3.188  0.00  0.00    -0.090 OA
ATOM     34  O   UNL     1       0.218  -5.559  -4.365  0.00  0.00    -0.090 OA
ENDBRANCH  31  32
ENDBRANCH  11  31
TORSDOF 8
