REMARK  Name = ZINC39466862
REMARK  7 active torsions:
REMARK  status: ('A' for Active; 'I' for Inactive)
REMARK    1  A    between atoms: C_1  and  C_2
REMARK    2  A    between atoms: C_2  and  O_3
REMARK    3  A    between atoms: O_3  and  C_4
REMARK    4  A    between atoms: P_13  and  C_29
REMARK    5  A    between atoms: C_21  and  C_22
REMARK    6  A    between atoms: C_22  and  C_23
REMARK    7  A    between atoms: C_29  and  C_30
REMARK                            x       y       z     vdW  Elec       q    Type
REMARK                         _______ _______ _______ _____ _____    ______ ____
ROOT
ATOM      1  C   UNL     1       0.802  -1.824   1.306  0.00  0.00    +0.120 C 
ATOM      2  C   UNL     1       0.281  -2.643   0.389  0.00  0.00    +0.023 C 
ATOM      3  C   UNL     1       0.417  -4.133   0.554  0.00  0.00    +0.019 C 
ATOM      4  C   UNL     1       0.336  -4.826  -0.799  0.00  0.00    -0.002 C 
ATOM      5  C   UNL     1       1.093  -6.161  -0.783  0.00  0.00    -0.020 C 
ATOM      6  C   UNL     1       0.398  -7.045  -1.829  0.00  0.00    +0.156 C 
ATOM      7  O   UNL     1       1.049  -8.322  -1.918  0.00  0.00    -0.319 OA
ATOM      8  P   UNL     1       1.298  -9.130  -0.527  0.00  0.00    +0.262 P 
ATOM      9  O   UNL     1       2.379 -10.126  -0.696  0.00  0.00    -0.274 OA
ATOM     10  N   UNL     1       1.747  -7.974   0.558  0.00  0.00    -0.291 NA
ATOM     11  N   UNL     1       1.073  -6.770   0.541  0.00  0.00    +0.397 N 
ATOM     12  C   UNL     1       1.789  -5.958   1.538  0.00  0.00    -0.046 C 
ATOM     13  C   UNL     1       1.766  -4.462   1.189  0.00  0.00    +0.005 C 
ATOM     14  C   UNL     1       1.960  -3.634   2.431  0.00  0.00    -0.017 C 
ATOM     15  C   UNL     1       1.502  -2.390   2.475  0.00  0.00    -0.005 C 
ATOM     16  H   UNL     1       2.461  -8.142   1.193  0.00  0.00    +0.111 HD
ATOM     17  H   UNL     1       0.117  -6.903   0.836  0.00  0.00    -0.055 HD
ENDROOT
BRANCH   1  18
ATOM     18  O   UNL     1       0.693  -0.477   1.160  0.00  0.00    -0.492 OA
BRANCH  18  20
ATOM     19  C   UNL     1      -0.019   1.526   0.010  0.00  0.00    +0.048 C 
ATOM     20  C   UNL     1       0.002  -0.004   0.002  0.00  0.00    +0.225 C 
ENDBRANCH  18  20
ENDBRANCH   1  18
BRANCH  15  21
ATOM     21  C   UNL     1       1.690  -1.560   3.719  0.00  0.00    +0.073 C 
BRANCH  21  22
ATOM     22  C   UNL     1       2.927  -0.711   3.573  0.00  0.00    -0.043 A 
ATOM     23  C   UNL     1       4.153  -1.199   3.985  0.00  0.00    +0.004 A 
ATOM     24  C   UNL     1       5.287  -0.420   3.852  0.00  0.00    +0.000 A 
ATOM     25  C   UNL     1       5.195   0.847   3.306  0.00  0.00    +0.000 A 
ATOM     26  C   UNL     1       3.970   1.334   2.893  0.00  0.00    +0.000 A 
ATOM     27  C   UNL     1       2.836   0.554   3.022  0.00  0.00    +0.004 A 
ENDBRANCH  21  22
ENDBRANCH  15  21
BRANCH   8  28
ATOM     28  C   UNL     1      -0.239  -9.950   0.013  0.00  0.00    +0.147 C 
BRANCH  28  29
ATOM     29  C   UNL     1      -0.688 -10.922  -1.047  0.00  0.00    -0.037 A 
ATOM     30  C   UNL     1      -1.534 -10.502  -2.056  0.00  0.00    +0.004 A 
ATOM     31  C   UNL     1      -1.947 -11.394  -3.028  0.00  0.00    +0.000 A 
ATOM     32  C   UNL     1      -1.513 -12.706  -2.991  0.00  0.00    +0.000 A 
ATOM     33  C   UNL     1      -0.666 -13.126  -1.982  0.00  0.00    +0.000 A 
ATOM     34  C   UNL     1      -0.250 -12.233  -1.013  0.00  0.00    +0.004 A 
ENDBRANCH  28  29
ENDBRANCH   8  28
TORSDOF 6
