REMARK  Name = ZINC03846256
REMARK  6 active torsions:
REMARK  status: ('A' for Active; 'I' for Inactive)
REMARK    1  A    between atoms: C_1  and  C_2
REMARK    2  A    between atoms: C_2  and  C_3
REMARK    3  A    between atoms: C_2  and  C_4
REMARK    4  A    between atoms: C_4  and  C_12
REMARK    5  A    between atoms: C_7  and  C_9
REMARK    6  A    between atoms: C_7  and  C_10
REMARK                            x       y       z     vdW  Elec       q    Type
REMARK                         _______ _______ _______ _____ _____    ______ ____
ROOT
ATOM      1  C   UNL     1      -2.748   2.238   0.344  0.00  0.00    +0.173 C 
ATOM      2  C   UNL     1      -3.390   3.638   0.405  0.00  0.00    +0.050 C 
ATOM      3  C   UNL     1      -2.232   4.569   0.853  0.00  0.00    +0.050 C 
ATOM      4  C   UNL     1      -0.984   3.732   0.475  0.00  0.00    +0.168 C 
ATOM      5  O   UNL     1      -1.382   2.376   0.769  0.00  0.00    -0.344 OA
ATOM      6  C   UNL     1      -0.660   3.889  -1.012  0.00  0.00    +0.054 C 
ENDROOT
BRANCH   1   8
ATOM      7  C   UNL     1      -2.833  -0.100   1.222  0.00  0.00    +0.010 C 
ATOM      8  C   UNL     1      -3.490   1.281   1.279  0.00  0.00    +0.026 C 
ATOM      9  C   UNL     1      -3.427   1.817   2.711  0.00  0.00    +0.010 C 
ENDBRANCH   1   8
BRANCH   4  10
ATOM     10  C   UNL     1       0.199   4.133   1.319  0.00  0.00    +0.387 C 
ATOM     11  O   UNL     1       0.268   5.252   1.770  0.00  0.00    -0.243 OA
ATOM     12  O   UNL     1       1.175   3.247   1.569  0.00  0.00    -0.243 OA
ENDBRANCH   4  10
BRANCH   1  13
ATOM     13  C   UNL     1      -2.795   1.713  -1.068  0.00  0.00    +0.388 C 
ATOM     14  O   UNL     1      -3.675   2.068  -1.815  0.00  0.00    -0.243 OA
ATOM     15  O   UNL     1      -1.859   0.852  -1.495  0.00  0.00    -0.243 OA
ENDBRANCH   1  13
TORSDOF 3
