REMARK  Name = ZINC09547662
REMARK  9 active torsions:
REMARK  status: ('A' for Active; 'I' for Inactive)
REMARK    1  A    between atoms: C_1  and  S_2
REMARK    2  A    between atoms: S_2  and  C_3
REMARK    3  A    between atoms: C_3  and  C_4
REMARK    4  A    between atoms: C_4  and  C_5
REMARK    5  A    between atoms: C_5  and  C_7
REMARK    6  A    between atoms: C_5  and  N_16
REMARK    7  A    between atoms: N_9  and  C_10
REMARK    8  A    between atoms: C_10  and  C_11
REMARK    9  A    between atoms: C_25  and  C_27
REMARK                            x       y       z     vdW  Elec       q    Type
REMARK                         _______ _______ _______ _____ _____    ______ ____
ROOT
ATOM      1  N   UNL     1       0.496   8.107  -0.856  0.00  0.00    -0.288 N 
ATOM      2  C   UNL     1      -0.725   7.545  -0.753  0.00  0.00    +0.303 C 
ATOM      3  O   UNL     1      -1.702   8.245  -0.568  0.00  0.00    -0.253 OA
ATOM      4  N   UNL     1      -0.862   6.209  -0.854  0.00  0.00    -0.283 N 
ATOM      5  C   UNL     1      -2.196   5.592  -0.856  0.00  0.00    +0.128 C 
ATOM      6  C   UNL     1      -2.252   4.542   0.261  0.00  0.00    +0.127 C 
ATOM      7  N   UNL     1      -1.071   3.675   0.149  0.00  0.00    -0.294 N 
ATOM      8  C   UNL     1       0.263   4.291   0.157  0.00  0.00    +0.127 C 
ATOM      9  C   UNL     1       0.319   5.341  -0.966  0.00  0.00    +0.128 C 
ATOM     10  C   UNL     1      -1.209   2.338   0.048  0.00  0.00    +0.249 C 
ATOM     11  O   UNL     1      -2.317   1.846  -0.053  0.00  0.00    -0.270 OA
ATOM     12  H   UNL     1       1.283   7.545  -0.936  0.00  0.00    +0.151 HD
ENDROOT
BRANCH  10  13
ATOM     13  C   UNL     1      -0.021   1.474   0.059  0.00  0.00    +0.062 A 
ATOM     14  C   UNL     1       1.067   1.593   0.873  0.00  0.00    +0.096 A 
ATOM     15  N   UNL     1       1.963   0.618   0.587  0.00  0.00    -0.360 N 
ATOM     16  H   UNL     1       2.815   0.499   1.036  0.00  0.00    +0.165 HD
ATOM     17  C   UNL     1       1.493  -0.183  -0.433  0.00  0.00    +0.047 A 
ATOM     18  C   UNL     1       0.234   0.312  -0.811  0.00  0.00    +0.012 A 
ATOM     19  C   UNL     1      -0.483  -0.309  -1.831  0.00  0.00    +0.011 A 
ATOM     20  C   UNL     1       0.049  -1.410  -2.466  0.00  0.00    +0.001 A 
ATOM     21  C   UNL     1       1.292  -1.900  -2.094  0.00  0.00    +0.002 A 
ATOM     22  C   UNL     1       2.012  -1.296  -1.087  0.00  0.00    +0.026 A 
ENDBRANCH  10  13
BRANCH   1  23
ATOM     23  C   UNL     1       0.635   9.565  -0.848  0.00  0.00    +0.161 C 
BRANCH  23  24
ATOM     24  C   UNL     1       1.904   9.953  -1.562  0.00  0.00    +0.234 C 
ATOM     25  O   UNL     1       2.622   9.096  -2.031  0.00  0.00    -0.274 OA
ATOM     26  N   UNL     1       2.241  11.253  -1.679  0.00  0.00    -0.307 N 
ATOM     27  H   UNL     1       1.667  11.939  -1.304  0.00  0.00    +0.149 HD
BRANCH  26  28
ATOM     28  C   UNL     1       3.475  11.630  -2.372  0.00  0.00    +0.178 C 
BRANCH  28  29
ATOM     29  C   UNL     1       3.618  13.130  -2.364  0.00  0.00    +0.122 A 
ATOM     30  C   UNL     1       4.239  13.856  -1.417  0.00  0.00    +0.046 A 
ATOM     31  C   UNL     1       4.136  15.211  -1.807  0.00  0.00    +0.041 A 
ATOM     32  C   UNL     1       3.457  15.232  -2.968  0.00  0.00    +0.195 A 
ATOM     33  O   UNL     1       3.151  13.969  -3.304  0.00  0.00    -0.466 OA
ENDBRANCH  28  29
ENDBRANCH  26  28
ENDBRANCH  23  24
BRANCH  23  34
ATOM     34  C   UNL     1       0.689  10.065   0.597  0.00  0.00    +0.042 C 
BRANCH  34  35
ATOM     35  C   UNL     1      -0.648   9.781   1.285  0.00  0.00    +0.071 C 
BRANCH  35  37
ATOM     36  C   UNL     1      -2.222   9.968   3.664  0.00  0.00    +0.084 C 
ATOM     37  S   UNL     1      -0.584  10.373   2.998  0.00  0.00    -0.164 S 
ENDBRANCH  35  37
ENDBRANCH  34  35
ENDBRANCH  23  34
ENDBRANCH   1  23
TORSDOF 8
