REMARK  Name = ZINC40988455
REMARK  12 active torsions:
REMARK  status: ('A' for Active; 'I' for Inactive)
REMARK    1  A    between atoms: C_1  and  C_2
REMARK    2  A    between atoms: C_2  and  N_3
REMARK    3  A    between atoms: N_3  and  C_4
REMARK    4  A    between atoms: N_3  and  C_6
REMARK    5  A    between atoms: C_4  and  C_5
REMARK    6  A    between atoms: C_6  and  C_8
REMARK    7  A    between atoms: C_6  and  C_29
REMARK    8  A    between atoms: C_8  and  N_9
REMARK    9  A    between atoms: C_10  and  C_12
REMARK   10  A    between atoms: N_15  and  C_17
REMARK   11  A    between atoms: C_32  and  O_35
REMARK   12  A    between atoms: O_35  and  C_36
REMARK                            x       y       z     vdW  Elec       q    Type
REMARK                         _______ _______ _______ _____ _____    ______ ____
ROOT
ATOM      1  N   UNL     1      -1.685   0.881  -0.717  0.00  0.00    -0.311 N 
ATOM      2  C   UNL     1      -2.212   1.816  -1.532  0.00  0.00    +0.264 C 
ATOM      3  O   UNL     1      -3.414   1.868  -1.700  0.00  0.00    -0.268 OA
ATOM      4  H   UNL     1      -0.734   0.884  -0.526  0.00  0.00    +0.149 HD
ENDROOT
BRANCH   2   5
ATOM      5  C   UNL     1      -1.327   2.777  -2.222  0.00  0.00    +0.150 A 
ATOM      6  C   UNL     1      -1.727   3.863  -3.018  0.00  0.00    +0.006 A 
ATOM      7  C   UNL     1      -0.583   4.457  -3.439  0.00  0.00    +0.044 A 
ATOM      8  N   UNL     1       0.441   3.762  -2.918  0.00  0.00    -0.263 N 
ATOM      9  N   UNL     1      -0.005   2.786  -2.205  0.00  0.00    -0.166 NA
ATOM     10  C   UNL     1      -0.546   5.672  -4.331  0.00  0.00    +0.055 C 
ATOM     11  C   UNL     1      -1.925   5.834  -4.983  0.00  0.00    +0.006 C 
ATOM     12  C   UNL     1      -3.014   5.764  -3.909  0.00  0.00    +0.005 C 
ATOM     13  C   UNL     1      -3.112   4.330  -3.371  0.00  0.00    +0.039 C 
BRANCH   8  14
ATOM     14  C   UNL     1       1.858   4.071  -3.126  0.00  0.00    +0.130 C 
ATOM     15  C   UNL     1       2.565   2.865  -3.766  0.00  0.00    +0.051 C 
ATOM     16  C   UNL     1       4.099   3.053  -3.695  0.00  0.00    +0.168 C 
ATOM     17  S   UNL     1       4.308   4.103  -2.199  0.00  0.00    -0.029 S 
ATOM     18  O   UNL     1       4.933   3.336  -1.179  0.00  0.00    -0.174 OA
ATOM     19  O   UNL     1       4.875   5.348  -2.584  0.00  0.00    -0.174 OA
ATOM     20  C   UNL     1       2.538   4.360  -1.757  0.00  0.00    +0.192 C 
ENDBRANCH   8  14
ENDBRANCH   2   5
BRANCH   1  21
ATOM     21  C   UNL     1      -2.549  -0.140  -0.119  0.00  0.00    +0.094 C 
BRANCH  21  22
ATOM     22  C   UNL     1      -1.733  -0.993   0.854  0.00  0.00    -0.020 C 
BRANCH  22  23
ATOM     23  C   UNL     1      -2.578  -2.139   1.349  0.00  0.00    -0.059 A 
ATOM     24  C   UNL     1      -3.634  -2.598   0.584  0.00  0.00    +0.005 A 
ATOM     25  C   UNL     1      -4.410  -3.648   1.036  0.00  0.00    +0.046 A 
ATOM     26  C   UNL     1      -4.130  -4.240   2.258  0.00  0.00    +0.120 A 
ATOM     27  C   UNL     1      -3.070  -3.777   3.024  0.00  0.00    +0.046 A 
ATOM     28  C   UNL     1      -2.293  -2.731   2.566  0.00  0.00    +0.005 A 
BRANCH  26  29
ATOM     29  O   UNL     1      -4.893  -5.272   2.705  0.00  0.00    -0.495 OA
ATOM     30  C   UNL     1      -4.546  -5.834   3.973  0.00  0.00    +0.277 C 
ENDBRANCH  26  29
ENDBRANCH  22  23
BRANCH  22  31
ATOM     31  N   UNL     1      -0.547  -1.522   0.166  0.00  0.00    +0.385 N 
ATOM     32  H   UNL     1      -0.024  -0.758  -0.237  0.00  0.00    -0.081 HD
BRANCH  31  34
ATOM     33  C   UNL     1       0.852  -1.253   2.158  0.00  0.00    -0.017 C 
ATOM     34  C   UNL     1       0.298  -2.240   1.128  0.00  0.00    -0.081 C 
ENDBRANCH  31  34
BRANCH  31  35
ATOM     35  C   UNL     1      -0.969  -2.442  -0.899  0.00  0.00    -0.081 C 
ATOM     36  C   UNL     1      -1.192  -1.657  -2.193  0.00  0.00    -0.017 C 
ENDBRANCH  31  35
ENDBRANCH  22  31
ENDBRANCH  21  22
ENDBRANCH   1  21
TORSDOF 9
