REMARK  Name = ZINC28284760
REMARK  11 active torsions:
REMARK  status: ('A' for Active; 'I' for Inactive)
REMARK    1  A    between atoms: C_1  and  C_2
REMARK    2  A    between atoms: C_2  and  O_3
REMARK    3  A    between atoms: O_3  and  C_4
REMARK    4  A    between atoms: C_4  and  C_6
REMARK    5  A    between atoms: C_8  and  C_33
REMARK    6  A    between atoms: C_10  and  N_12
REMARK    7  A    between atoms: C_16  and  N_20
REMARK    8  A    between atoms: N_23  and  C_26
REMARK    9  A    between atoms: C_33  and  O_35
REMARK   10  A    between atoms: O_35  and  C_36
REMARK   11  A    between atoms: C_36  and  C_37
REMARK                            x       y       z     vdW  Elec       q    Type
REMARK                         _______ _______ _______ _____ _____    ______ ____
ROOT
ATOM      1  N   UNL     1      -0.224   4.451  -4.198  0.00  0.00    -0.212 N 
ATOM      2  C   UNL     1      -0.635   5.546  -3.546  0.00  0.00    +0.225 C 
ATOM      3  O   UNL     1      -0.379   6.688  -3.861  0.00  0.00    -0.275 OA
ATOM      4  C   UNL     1      -1.470   5.132  -2.354  0.00  0.00    +0.090 C 
ATOM      5  C   UNL     1      -1.470   3.591  -2.430  0.00  0.00    +0.029 C 
ATOM      6  C   UNL     1      -0.635   3.297  -3.658  0.00  0.00    +0.213 C 
ATOM      7  O   UNL     1      -0.380   2.192  -4.085  0.00  0.00    -0.277 OA
ENDROOT
BRANCH   5   8
ATOM      8  N   UNL     1      -0.848   3.014  -1.232  0.00  0.00    +0.390 N 
ATOM      9  C   UNL     1      -0.844   1.546  -1.296  0.00  0.00    -0.059 C 
ATOM     10  C   UNL     1      -0.118   0.986  -0.070  0.00  0.00    +0.086 C 
ATOM     11  N   UNL     1      -0.789   1.455   1.151  0.00  0.00    -0.331 N 
ATOM     12  C   UNL     1      -0.794   2.924   1.214  0.00  0.00    +0.086 C 
ATOM     13  C   UNL     1      -1.519   3.483  -0.011  0.00  0.00    -0.059 C 
ATOM     14  H   UNL     1       0.197   3.355  -1.197  0.00  0.00    -0.081 HD
BRANCH  11  15
ATOM     15  C   UNL     1      -0.196   0.906   2.292  0.00  0.00    +0.065 A 
ATOM     16  C   UNL     1      -0.164  -0.472   2.464  0.00  0.00    +0.026 A 
ATOM     17  C   UNL     1       0.422  -1.012   3.592  0.00  0.00    +0.002 A 
ATOM     18  C   UNL     1       0.977  -0.183   4.550  0.00  0.00    +0.003 A 
ATOM     19  C   UNL     1       0.947   1.189   4.383  0.00  0.00    +0.040 A 
ATOM     20  C   UNL     1       0.367   1.737   3.254  0.00  0.00    +0.144 A 
ATOM     21  F   UNL     1       0.343   3.077   3.088  0.00  0.00    -0.204 F 
ENDBRANCH  11  15
ENDBRANCH   5   8
BRANCH   1  26
ATOM     22  C   UNL     1       0.842   5.089  -7.676  0.00  0.00    +0.062 A 
ATOM     23  C   UNL     1       2.154   4.621  -7.642  0.00  0.00    +0.030 A 
ATOM     24  C   UNL     1       2.673   4.096  -6.460  0.00  0.00    +0.062 A 
ATOM     25  C   UNL     1       1.877   4.041  -5.314  0.00  0.00    +0.039 A 
ATOM     26  C   UNL     1       0.572   4.508  -5.351  0.00  0.00    +0.045 A 
ATOM     27  C   UNL     1       0.050   5.026  -6.527  0.00  0.00    +0.039 A 
BRANCH  22  28
ATOM     28  C   UNL     1       0.286   5.647  -8.926  0.00  0.00    +0.339 C 
ATOM     29  O   UNL     1      -0.858   6.055  -8.954  0.00  0.00    -0.245 OA
BRANCH  28  30
ATOM     30  O   UNL     1       1.049   5.703 -10.035  0.00  0.00    -0.461 OA
BRANCH  30  32
ATOM     31  C   UNL     1       1.449   6.244 -12.376  0.00  0.00    +0.048 C 
ATOM     32  C   UNL     1       0.438   6.263 -11.228  0.00  0.00    +0.229 C 
ENDBRANCH  30  32
ENDBRANCH  28  30
ENDBRANCH  22  28
BRANCH  24  33
ATOM     33  C   UNL     1       4.064   3.599  -6.420  0.00  0.00    +0.339 C 
ATOM     34  O   UNL     1       4.516   3.142  -5.389  0.00  0.00    -0.245 OA
BRANCH  33  35
ATOM     35  O   UNL     1       4.831   3.653  -7.526  0.00  0.00    -0.461 OA
BRANCH  35  36
ATOM     36  C   UNL     1       6.187   3.147  -7.413  0.00  0.00    +0.229 C 
ATOM     37  C   UNL     1       6.899   3.290  -8.760  0.00  0.00    +0.048 C 
ENDBRANCH  35  36
ENDBRANCH  33  35
ENDBRANCH  24  33
ENDBRANCH   1  26
TORSDOF 9
