REMARK  Name = ZINC44861114
REMARK  9 active torsions:
REMARK  status: ('A' for Active; 'I' for Inactive)
REMARK    1  A    between atoms: C_1  and  C_2
REMARK    2  A    between atoms: C_2  and  C_4
REMARK    3  A    between atoms: C_2  and  N_12
REMARK    4  A    between atoms: C_13  and  C_15
REMARK    5  A    between atoms: C_15  and  C_17
REMARK    6  A    between atoms: C_15  and  C_20
REMARK    7  A    between atoms: C_17  and  C_18
REMARK    8  A    between atoms: C_17  and  C_19
REMARK    9  A    between atoms: N_21  and  O_22
REMARK                            x       y       z     vdW  Elec       q    Type
REMARK                         _______ _______ _______ _____ _____    ______ ____
ROOT
ATOM      1  N   UNL     1      -1.278  -0.453  -0.174  0.00  0.00    -0.308 N 
ATOM      2  C   UNL     1      -1.820  -0.629  -1.396  0.00  0.00    +0.224 C 
ATOM      3  O   UNL     1      -1.136  -0.489  -2.388  0.00  0.00    -0.275 OA
ATOM      4  H   UNL     1      -1.804  -0.637   0.620  0.00  0.00    +0.149 HD
ENDROOT
BRANCH   1   6
ATOM      5  C   UNL     1       0.123   1.544  -0.009  0.00  0.00    +0.033 C 
ATOM      6  C   UNL     1       0.104   0.014  -0.046  0.00  0.00    +0.102 C 
BRANCH   6   7
ATOM      7  C   UNL     1       0.701  -0.527   1.228  0.00  0.00    -0.009 A 
ATOM      8  C   UNL     1      -0.116  -0.825   2.302  0.00  0.00    +0.008 A 
ATOM      9  C   UNL     1       0.431  -1.321   3.470  0.00  0.00    +0.020 A 
ATOM     10  C   UNL     1       1.797  -1.520   3.565  0.00  0.00    +0.042 A 
ATOM     11  C   UNL     1       2.615  -1.222   2.490  0.00  0.00    +0.040 A 
ATOM     12  C   UNL     1       2.066  -0.730   1.319  0.00  0.00    +0.047 A 
ATOM     13 CL   UNL     1       3.092  -0.361  -0.032  0.00  0.00    -0.083 Cl
ATOM     14 CL   UNL     1       2.484  -2.143   5.032  0.00  0.00    -0.083 Cl
ENDBRANCH   6   7
ENDBRANCH   1   6
BRANCH   2  15
ATOM     15  C   UNL     1      -3.274  -0.999  -1.530  0.00  0.00    +0.144 C 
BRANCH  15  16
ATOM     16  C   UNL     1      -3.402  -2.494  -1.667  0.00  0.00    +0.144 C 
ATOM     17  N   UNL     1      -3.475  -3.032  -2.839  0.00  0.00    -0.076 NA
ATOM     18  N   UNL     1      -3.439  -3.288  -0.542  0.00  0.00    -0.343 N 
ATOM     19  H   UNL     1      -3.384  -2.885   0.339  0.00  0.00    +0.144 HD
ATOM     20  H   UNL     1      -3.521  -4.251  -0.630  0.00  0.00    +0.144 HD
BRANCH  17  21
ATOM     21  O   UNL     1      -3.595  -4.437  -2.968  0.00  0.00    -0.408 OA
ATOM     22  H   UNL     1      -3.644  -4.745  -3.883  0.00  0.00    +0.328 HD
ENDBRANCH  17  21
ENDBRANCH  15  16
BRANCH  15  23
ATOM     23  C   UNL     1      -3.861  -0.322  -2.770  0.00  0.00    +0.002 C 
ATOM     24  C   UNL     1      -5.361  -0.614  -2.849  0.00  0.00    +0.008 C 
ATOM     25  C   UNL     1      -3.641   1.190  -2.678  0.00  0.00    +0.008 C 
ENDBRANCH  15  23
ENDBRANCH   2  15
TORSDOF 6
