REMARK  Name = ZINC06281756
REMARK  7 active torsions:
REMARK  status: ('A' for Active; 'I' for Inactive)
REMARK    1  A    between atoms: C_1  and  C_2
REMARK    2  A    between atoms: C_9  and  C_14
REMARK    3  A    between atoms: C_14  and  C_16
REMARK    4  A    between atoms: C_14  and  N_66
REMARK    5  A    between atoms: N_20  and  C_21
REMARK    6  A    between atoms: C_21  and  C_22
REMARK    7  A    between atoms: N_30  and  C_33
REMARK                            x       y       z     vdW  Elec       q    Type
REMARK                         _______ _______ _______ _____ _____    ______ ____
ROOT
ATOM      1  C   UNL     1       1.926   6.393  -1.845  0.00  0.00    +0.039 C 
ENDROOT
BRANCH   1  10
ATOM      2  C   UNL     1      -2.707   1.641  -5.248  0.00  0.00    +0.044 C 
ATOM      3  C   UNL     1      -2.378   3.023  -4.745  0.00  0.00    -0.050 A 
ATOM      4  C   UNL     1      -3.290   4.056  -4.923  0.00  0.00    +0.005 A 
ATOM      5  C   UNL     1      -3.010   5.327  -4.473  0.00  0.00    +0.026 A 
ATOM      6  C   UNL     1      -1.802   5.582  -3.831  0.00  0.00    +0.049 A 
ATOM      7  C   UNL     1      -0.880   4.533  -3.652  0.00  0.00    -0.001 A 
ATOM      8  C   UNL     1      -1.186   3.250  -4.119  0.00  0.00    +0.013 A 
ATOM      9  C   UNL     1       0.391   4.811  -2.981  0.00  0.00    +0.017 A 
ATOM     10  C   UNL     1       0.630   6.073  -2.545  0.00  0.00    +0.011 A 
ATOM     11  C   UNL     1      -0.328   7.089  -2.749  0.00  0.00    +0.251 A 
ATOM     12  O   UNL     1      -0.091   8.218  -2.354  0.00  0.00    -0.268 OA
ATOM     13  N   UNL     1      -1.496   6.844  -3.369  0.00  0.00    -0.322 N 
ATOM     14  H   UNL     1      -2.132   7.565  -3.493  0.00  0.00    +0.169 HD
ENDBRANCH   1  10
BRANCH   1  20
ATOM     15  C   UNL     1       2.864   6.992  -3.996  0.00  0.00    -0.058 C 
ATOM     16  C   UNL     1       3.552   8.117  -4.773  0.00  0.00    +0.086 C 
ATOM     17  N   UNL     1       4.830   8.445  -4.126  0.00  0.00    -0.331 N 
ATOM     18  C   UNL     1       4.619   8.871  -2.735  0.00  0.00    +0.086 C 
ATOM     19  C   UNL     1       3.931   7.746  -1.958  0.00  0.00    -0.058 C 
ATOM     20  N   UNL     1       2.638   7.441  -2.606  0.00  0.00    +0.391 N 
ATOM     21  H   UNL     1       2.063   8.292  -2.620  0.00  0.00    -0.080 HD
BRANCH  17  22
ATOM     22  C   UNL     1       5.522   9.421  -4.849  0.00  0.00    +0.065 A 
ATOM     23  C   UNL     1       6.789   9.819  -4.445  0.00  0.00    +0.026 A 
ATOM     24  C   UNL     1       7.472  10.780  -5.165  0.00  0.00    +0.002 A 
ATOM     25  C   UNL     1       6.892  11.354  -6.281  0.00  0.00    +0.003 A 
ATOM     26  C   UNL     1       5.628  10.964  -6.685  0.00  0.00    +0.040 A 
ATOM     27  C   UNL     1       4.940   9.999  -5.973  0.00  0.00    +0.144 A 
ATOM     28  F   UNL     1       3.705   9.619  -6.366  0.00  0.00    -0.204 F 
ENDBRANCH  17  22
ENDBRANCH   1  20
BRANCH   1  29
ATOM     29  C   UNL     1       2.767   5.146  -1.752  0.00  0.00    +0.143 A 
ATOM     30  N   UNL     1       3.388   4.545  -2.737  0.00  0.00    -0.115 NA
ATOM     31  N   UNL     1       3.996   3.516  -2.256  0.00  0.00    -0.023 NA
ATOM     32  N   UNL     1       3.784   3.448  -0.988  0.00  0.00    -0.044 NA
ATOM     33  N   UNL     1       3.026   4.432  -0.640  0.00  0.00    -0.226 N 
BRANCH  33  34
ATOM     34  C   UNL     1       2.542   4.722   0.712  0.00  0.00    +0.182 C 
BRANCH  34  35
ATOM     35  C   UNL     1       1.291   3.926   0.980  0.00  0.00    -0.026 A 
ATOM     36  C   UNL     1       1.385   2.623   1.431  0.00  0.00    +0.005 A 
ATOM     37  C   UNL     1       0.237   1.892   1.676  0.00  0.00    +0.000 A 
ATOM     38  C   UNL     1      -1.004   2.463   1.466  0.00  0.00    +0.000 A 
ATOM     39  C   UNL     1      -1.098   3.768   1.021  0.00  0.00    +0.000 A 
ATOM     40  C   UNL     1       0.050   4.499   0.775  0.00  0.00    +0.005 A 
ENDBRANCH  34  35
ENDBRANCH  33  34
ENDBRANCH   1  29
TORSDOF 6
