REMARK  Name = ZINC66174031
REMARK  5 active torsions:
REMARK  status: ('A' for Active; 'I' for Inactive)
REMARK    1  A    between atoms: C_1  and  C_2
REMARK    2  A    between atoms: C_7  and  N_12
REMARK    3  A    between atoms: C_9  and  C_11
REMARK    4  A    between atoms: C_18  and  N_21
REMARK    5  A    between atoms: C_22  and  C_24
REMARK                            x       y       z     vdW  Elec       q    Type
REMARK                         _______ _______ _______ _____ _____    ______ ____
ROOT
ATOM      1  N   UNL     1       1.472  -2.526   2.420  0.00  0.00    -0.296 N 
ATOM      2  C   UNL     1       2.056  -3.740   2.406  0.00  0.00    +0.302 C 
ATOM      3  O   UNL     1       1.919  -4.470   1.444  0.00  0.00    -0.253 OA
ATOM      4  N   UNL     1       2.793  -4.145   3.459  0.00  0.00    -0.286 N 
ATOM      5  C   UNL     1       2.873  -3.326   4.676  0.00  0.00    +0.111 C 
ATOM      6  C   UNL     1       4.348  -3.080   5.009  0.00  0.00    +0.041 C 
ATOM      7  C   UNL     1       5.076  -4.423   5.106  0.00  0.00    +0.076 C 
ATOM      8  C   UNL     1       4.998  -5.146   3.760  0.00  0.00    +0.041 C 
ATOM      9  C   UNL     1       3.526  -5.418   3.415  0.00  0.00    +0.111 C 
ATOM     10  H   UNL     1       1.520  -1.973   3.216  0.00  0.00    +0.151 HD
ENDROOT
BRANCH   1  16
ATOM     11  C   UNL     1      -0.013   1.527   0.009  0.00  0.00    +0.008 C 
ATOM     12  C   UNL     1       0.006  -0.003   0.001  0.00  0.00    -0.009 C 
ATOM     13  C   UNL     1      -1.429  -0.531   0.010  0.00  0.00    +0.003 C 
ATOM     14  C   UNL     1      -1.410  -2.061   0.002  0.00  0.00    +0.002 C 
ATOM     15  C   UNL     1      -0.671  -2.568   1.242  0.00  0.00    +0.022 C 
ATOM     16  C   UNL     1       0.765  -2.040   1.232  0.00  0.00    +0.078 C 
ATOM     17  C   UNL     1       0.745  -0.510   1.241  0.00  0.00    +0.009 C 
ATOM     18  C   UNL     1       0.028  -0.016   2.499  0.00  0.00    +0.009 C 
ENDBRANCH   1  16
BRANCH   7  19
ATOM     19  N   UNL     1       6.480  -4.193   5.457  0.00  0.00    -0.312 N 
ATOM     20  C   UNL     1       7.186  -5.158   6.079  0.00  0.00    +0.216 C 
ATOM     21  O   UNL     1       6.659  -6.217   6.348  0.00  0.00    -0.276 OA
ATOM     22  H   UNL     1       6.901  -3.347   5.241  0.00  0.00    +0.149 HD
BRANCH  20  23
ATOM     23  C   UNL     1       8.630  -4.922   6.439  0.00  0.00    +0.075 C 
ATOM     24  C   UNL     1       9.604  -5.168   5.275  0.00  0.00    +0.013 C 
ATOM     25  C   UNL     1      10.545  -5.817   6.303  0.00  0.00    +0.001 C 
ATOM     26  C   UNL     1       9.293  -6.118   7.143  0.00  0.00    +0.013 C 
ENDBRANCH  20  23
ENDBRANCH   7  19
TORSDOF 3
