REMARK  Name = ZINC08646106
REMARK  11 active torsions:
REMARK  status: ('A' for Active; 'I' for Inactive)
REMARK    1  A    between atoms: C_1  and  C_2
REMARK    2  A    between atoms: C_5  and  N_9
REMARK    3  A    between atoms: C_7  and  C_8
REMARK    4  A    between atoms: C_10  and  C_35
REMARK    5  A    between atoms: C_12  and  C_15
REMARK    6  A    between atoms: C_13  and  C_14
REMARK    7  A    between atoms: C_15  and  C_17
REMARK    8  A    between atoms: C_17  and  N_18
REMARK    9  A    between atoms: C_21  and  C_25
REMARK   10  A    between atoms: C_21  and  C_26
REMARK   11  A    between atoms: C_29  and  N_32
REMARK                            x       y       z     vdW  Elec       q    Type
REMARK                         _______ _______ _______ _____ _____    ______ ____
ROOT
ATOM      1  C   UNL     1      -1.352  -1.976   2.844  0.00  0.00    +0.197 C 
ENDROOT
BRANCH   1   2
ATOM      2  N   UNL     1      -0.593  -1.264   1.812  0.00  0.00    -0.216 N 
ATOM      3  C   UNL     1      -1.154  -0.558   0.811  0.00  0.00    +0.251 C 
ATOM      4  O   UNL     1      -2.337  -0.398   0.602  0.00  0.00    -0.272 OA
ATOM      5  C   UNL     1       0.002  -0.004   0.002  0.00  0.00    +0.135 C 
ATOM      6  N   UNL     1       1.192  -0.510   0.708  0.00  0.00    -0.281 N 
ATOM      7  C   UNL     1       0.743  -1.234   1.749  0.00  0.00    +0.310 C 
ATOM      8  O   UNL     1       1.470  -1.797   2.544  0.00  0.00    -0.252 OA
ATOM      9  C   UNL     1      -0.039  -0.533  -1.433  0.00  0.00    +0.047 C 
ATOM     10  H   UNL     1       2.119  -0.353   0.468  0.00  0.00    +0.152 HD
BRANCH   5  11
ATOM     11  C   UNL     1      -0.018   1.503   0.010  0.00  0.00    -0.015 A 
ATOM     12  C   UNL     1      -1.225   2.178   0.020  0.00  0.00    +0.008 A 
ATOM     13  C   UNL     1      -1.244   3.560   0.032  0.00  0.00    +0.033 A 
ATOM     14  C   UNL     1      -0.056   4.267   0.025  0.00  0.00    +0.126 A 
ATOM     15  C   UNL     1       1.151   3.592   0.010  0.00  0.00    +0.033 A 
ATOM     16  C   UNL     1       1.169   2.210   0.003  0.00  0.00    +0.008 A 
BRANCH  14  17
ATOM     17  N   UNL     1      -0.076   5.747   0.033  0.00  0.00    +0.056 N 
ATOM     18  O   UNL     1       0.971   6.370   0.027  0.00  0.00    -0.126 OA
ATOM     19  O   UNL     1      -1.139   6.342   0.045  0.00  0.00    -0.126 OA
ENDBRANCH  14  17
ENDBRANCH   5  11
ENDBRANCH   1   2
BRANCH   1  20
ATOM     20  C   UNL     1      -1.599  -1.055   4.011  0.00  0.00    +0.183 C 
ATOM     21  O   UNL     1      -1.182   0.084   3.984  0.00  0.00    -0.290 OA
BRANCH  20  25
ATOM     22  N   UNL     1      -3.344  -1.630   7.145  0.00  0.00    -0.317 N 
ATOM     23  C   UNL     1      -3.504  -2.864   6.580  0.00  0.00    +0.022 A 
ATOM     24  C   UNL     1      -2.919  -2.873   5.370  0.00  0.00    +0.034 A 
ATOM     25  C   UNL     1      -2.343  -1.536   5.177  0.00  0.00    +0.040 A 
ATOM     26  C   UNL     1      -2.651  -0.821   6.320  0.00  0.00    +0.031 A 
ATOM     27  C   UNL     1      -2.277   0.612   6.595  0.00  0.00    +0.064 C 
ATOM     28  C   UNL     1      -4.226  -4.027   7.209  0.00  0.00    +0.064 C 
BRANCH  22  33
ATOM     29  C   UNL     1      -5.321  -0.125  12.248  0.00  0.00    +0.044 C 
ATOM     30  C   UNL     1      -4.796  -0.524  10.893  0.00  0.00    -0.047 A 
ATOM     31  C   UNL     1      -3.432  -0.574  10.668  0.00  0.00    +0.005 A 
ATOM     32  C   UNL     1      -2.948  -0.944   9.429  0.00  0.00    +0.026 A 
ATOM     33  C   UNL     1      -3.832  -1.258   8.405  0.00  0.00    +0.047 A 
ATOM     34  C   UNL     1      -5.201  -1.208   8.634  0.00  0.00    +0.029 A 
ATOM     35  C   UNL     1      -5.679  -0.842   9.877  0.00  0.00    -0.046 A 
ATOM     36  C   UNL     1      -7.164  -0.787  10.127  0.00  0.00    +0.044 C 
ENDBRANCH  22  33
ENDBRANCH  20  25
ENDBRANCH   1  20
TORSDOF 6
