REMARK  Name = ZINC13563798
REMARK  3 active torsions:
REMARK  status: ('A' for Active; 'I' for Inactive)
REMARK    1  A    between atoms: C_4  and  N_7
REMARK    2  A    between atoms: C_8  and  C_27
REMARK    3  A    between atoms: N_17  and  C_20
REMARK                            x       y       z     vdW  Elec       q    Type
REMARK                         _______ _______ _______ _____ _____    ______ ____
ROOT
ATOM      1  N   UNL     1       3.724  -0.640  -0.079  0.00  0.00    -0.244 N 
ATOM      2  C   UNL     1       3.798  -2.131  -0.052  0.00  0.00    +0.157 C 
ATOM      3  C   UNL     1       5.282  -2.407   0.146  0.00  0.00    +0.145 C 
ATOM      4  C   UNL     1       5.825  -1.131  -0.605  0.00  0.00    +0.249 C 
ATOM      5  O   UNL     1       5.078  -0.125  -0.062  0.00  0.00    -0.257 OA
ATOM      6  C   UNL     1       7.207  -1.507  -0.839  0.00  0.00    +0.259 C 
ATOM      7  O   UNL     1       8.175  -0.778  -0.852  0.00  0.00    -0.272 OA
ATOM      8  N   UNL     1       7.183  -2.862  -1.040  0.00  0.00    -0.208 N 
ATOM      9  C   UNL     1       5.989  -3.442  -0.671  0.00  0.00    +0.235 C 
ATOM     10  O   UNL     1       5.586  -4.551  -0.950  0.00  0.00    -0.274 OA
ENDROOT
BRANCH   8  11
ATOM     11  C   UNL     1       8.266  -3.590  -1.556  0.00  0.00    +0.044 A 
ATOM     12  C   UNL     1       8.159  -4.962  -1.736  0.00  0.00    +0.027 A 
ATOM     13  C   UNL     1       9.225  -5.677  -2.244  0.00  0.00    +0.040 A 
ATOM     14  C   UNL     1      10.401  -5.025  -2.576  0.00  0.00    +0.124 A 
ATOM     15  C   UNL     1      10.510  -3.656  -2.398  0.00  0.00    +0.040 A 
ATOM     16  C   UNL     1       9.443  -2.937  -1.895  0.00  0.00    +0.027 A 
ATOM     17  F   UNL     1      11.444  -5.726  -3.073  0.00  0.00    -0.205 F 
ENDBRANCH   8  11
BRANCH   2  18
ATOM     18  C   UNL     1       3.316  -2.709  -1.357  0.00  0.00    -0.022 A 
ATOM     19  C   UNL     1       2.705  -3.949  -1.380  0.00  0.00    +0.007 A 
ATOM     20  C   UNL     1       2.263  -4.481  -2.576  0.00  0.00    +0.015 A 
ATOM     21  C   UNL     1       2.431  -3.771  -3.752  0.00  0.00    +0.018 A 
ATOM     22  C   UNL     1       3.043  -2.531  -3.729  0.00  0.00    +0.015 A 
ATOM     23  C   UNL     1       3.480  -1.998  -2.531  0.00  0.00    +0.007 A 
ATOM     24 BR   UNL     1       1.827  -4.498  -5.390  0.00  0.00    -0.050 Br
ENDBRANCH   2  18
BRANCH   1  28
ATOM     25  C   UNL     1       0.239   1.635  -0.198  0.00  0.00    +0.000 A 
ATOM     26  C   UNL     1       1.472   2.261  -0.186  0.00  0.00    +0.002 A 
ATOM     27  C   UNL     1       2.629   1.510  -0.146  0.00  0.00    +0.028 A 
ATOM     28  C   UNL     1       2.554   0.123  -0.118  0.00  0.00    +0.065 A 
ATOM     29  C   UNL     1       1.315  -0.503  -0.131  0.00  0.00    +0.028 A 
ATOM     30  C   UNL     1       0.161   0.255  -0.171  0.00  0.00    +0.002 A 
ENDBRANCH   1  28
TORSDOF 3
