REMARK  Name = ZINC20698327
REMARK  9 active torsions:
REMARK  status: ('A' for Active; 'I' for Inactive)
REMARK    1  A    between atoms: C_1  and  C_2
REMARK    2  A    between atoms: C_2  and  C_3
REMARK    3  A    between atoms: C_3  and  C_5
REMARK    4  A    between atoms: C_3  and  O_6
REMARK    5  A    between atoms: O_6  and  C_7
REMARK    6  A    between atoms: C_20  and  C_23
REMARK    7  A    between atoms: C_26  and  C_29
REMARK    8  A    between atoms: C_29  and  C_30
REMARK    9  A    between atoms: C_29  and  C_31
REMARK                            x       y       z     vdW  Elec       q    Type
REMARK                         _______ _______ _______ _____ _____    ______ ____
ROOT
ATOM      1  C   UNL     1      -1.966  -0.607  -1.190  0.00  0.00    +0.121 A 
ATOM      2  C   UNL     1      -1.271  -0.337  -2.360  0.00  0.00    +0.047 A 
ATOM      3  C   UNL     1      -1.912  -0.453  -3.577  0.00  0.00    +0.027 A 
ATOM      4  C   UNL     1      -3.249  -0.826  -3.627  0.00  0.00    +0.032 A 
ATOM      5  C   UNL     1      -3.951  -1.093  -2.462  0.00  0.00    -0.016 A 
ATOM      6  C   UNL     1      -3.298  -0.980  -1.242  0.00  0.00    +0.051 A 
ATOM      7  C   UNL     1      -5.390  -1.500  -2.470  0.00  0.00    +0.049 C 
ATOM      8  C   UNL     1      -6.286  -0.366  -2.032  0.00  0.00    -0.023 C 
ATOM      9  C   UNL     1      -7.409  -0.384  -2.685  0.00  0.00    -0.030 C 
ATOM     10  C   UNL     1      -7.421  -1.528  -3.680  0.00  0.00    +0.033 C 
ATOM     11  C   UNL     1      -5.910  -1.850  -3.877  0.00  0.00    +0.029 C 
ATOM     12  C   UNL     1      -5.361  -0.851  -4.900  0.00  0.00    +0.105 C 
ATOM     13  N   UNL     1      -3.895  -0.897  -4.870  0.00  0.00    -0.336 N 
ATOM     14  H   UNL     1      -3.328  -0.984  -5.808  0.00  0.00    +0.147 HD
ENDROOT
BRANCH  12  15
ATOM     15  C   UNL     1      -5.848  -1.221  -6.278  0.00  0.00    -0.027 A 
ATOM     16  C   UNL     1      -5.221  -2.229  -6.986  0.00  0.00    +0.006 A 
ATOM     17  C   UNL     1      -5.671  -2.570  -8.248  0.00  0.00    +0.004 A 
ATOM     18  C   UNL     1      -6.743  -1.898  -8.805  0.00  0.00    -0.045 A 
ATOM     19  C   UNL     1      -7.367  -0.887  -8.099  0.00  0.00    +0.004 A 
ATOM     20  C   UNL     1      -6.920  -0.548  -6.835  0.00  0.00    +0.006 A 
BRANCH  18  21
ATOM     21  C   UNL     1      -7.230  -2.268 -10.182  0.00  0.00    +0.013 C 
ATOM     22  C   UNL     1      -6.101  -2.067 -11.194  0.00  0.00    +0.012 C 
ATOM     23  C   UNL     1      -7.668  -3.734 -10.191  0.00  0.00    +0.012 C 
ENDBRANCH  18  21
ENDBRANCH  12  15
BRANCH   1  24
ATOM     24  O   UNL     1      -1.339  -0.499   0.012  0.00  0.00    -0.489 OA
BRANCH  24  25
ATOM     25  C   UNL     1       0.064  -0.227  -0.010  0.00  0.00    +0.170 C 
ATOM     26  C   UNL     1       0.290   1.282  -0.126  0.00  0.00    +0.052 C 
BRANCH  25  28
ATOM     27  C   UNL     1       0.588  -2.265   1.336  0.00  0.00    +0.007 C 
ATOM     28  C   UNL     1       0.704  -0.741   1.281  0.00  0.00    +0.041 C 
ENDBRANCH  25  28
ENDBRANCH  24  25
ENDBRANCH   1  24
TORSDOF 5
