REMARK  Name = ZINC08837229
REMARK  16 active torsions:
REMARK  status: ('A' for Active; 'I' for Inactive)
REMARK    1  A    between atoms: C_1  and  C_2
REMARK    2  A    between atoms: C_2  and  N_67
REMARK    3  A    between atoms: C_3  and  C_4
REMARK    4  A    between atoms: C_3  and  N_67
REMARK    5  A    between atoms: C_5  and  C_6
REMARK    6  A    between atoms: C_5  and  N_67
REMARK    7  A    between atoms: C_6  and  C_7
REMARK    8  A    between atoms: C_7  and  N_8
REMARK    9  A    between atoms: C_9  and  C_30
REMARK   10  A    between atoms: C_12  and  C_13
REMARK   11  A    between atoms: C_12  and  O_25
REMARK   12  A    between atoms: C_14  and  C_24
REMARK   13  A    between atoms: C_15  and  C_20
REMARK   14  A    between atoms: C_18  and  C_19
REMARK   15  A    between atoms: C_20  and  O_22
REMARK   16  A    between atoms: O_22  and  C_23
REMARK                            x       y       z     vdW  Elec       q    Type
REMARK                         _______ _______ _______ _____ _____    ______ ____
ROOT
ATOM      1  N   UNL     1      -1.056  -6.002  -1.797  0.00  0.00    -0.284 N 
ATOM      2  C   UNL     1      -1.131  -5.727  -0.359  0.00  0.00    +0.144 C 
ATOM      3  C   UNL     1      -0.112  -4.649  -0.071  0.00  0.00    +0.071 C 
ATOM      4  C   UNL     1       0.165  -4.074   1.156  0.00  0.00    +0.135 C 
ATOM      5  C   UNL     1       0.500  -4.353  -1.296  0.00  0.00    +0.249 C 
ATOM      6  O   UNL     1       1.383  -3.533  -1.474  0.00  0.00    -0.282 OA
ATOM      7  C   UNL     1      -0.114  -5.214  -2.343  0.00  0.00    +0.288 C 
ATOM      8  O   UNL     1       0.192  -5.206  -3.518  0.00  0.00    -0.266 OA
ENDROOT
BRANCH   4   9
ATOM      9  C   UNL     1       1.198  -3.035   1.264  0.00  0.00    +0.041 A 
ATOM     10  C   UNL     1       0.985  -1.660   1.522  0.00  0.00    -0.008 A 
ATOM     11  C   UNL     1       2.211  -1.063   1.539  0.00  0.00    +0.128 A 
ATOM     12  N   UNL     1       3.167  -2.026   1.294  0.00  0.00    -0.352 N 
ATOM     13  H   UNL     1       4.123  -1.869   1.247  0.00  0.00    +0.166 HD
ATOM     14  C   UNL     1       2.567  -3.216   1.133  0.00  0.00    +0.024 A 
ATOM     15  C   UNL     1       3.260  -4.523   0.852  0.00  0.00    +0.064 C 
ATOM     16  C   UNL     1      -0.344  -0.984   1.736  0.00  0.00    +0.047 C 
BRANCH  11  17
ATOM     17  C   UNL     1       2.469   0.362   1.771  0.00  0.00    +0.356 C 
ATOM     18  O   UNL     1       1.541   1.123   1.968  0.00  0.00    -0.243 OA
BRANCH  17  19
ATOM     19  O   UNL     1       3.734   0.829   1.762  0.00  0.00    -0.463 OA
ATOM     20  C   UNL     1       3.913   2.250   2.000  0.00  0.00    +0.280 C 
ENDBRANCH  17  19
ENDBRANCH  11  17
ENDBRANCH   4   9
BRANCH   2  21
ATOM     21  C   UNL     1      -0.801  -6.971   0.425  0.00  0.00    -0.022 A 
ATOM     22  C   UNL     1       0.196  -7.822  -0.016  0.00  0.00    +0.008 A 
ATOM     23  C   UNL     1       0.503  -8.960   0.704  0.00  0.00    +0.038 A 
ATOM     24  C   UNL     1      -0.196  -9.255   1.863  0.00  0.00    +0.123 A 
ATOM     25  C   UNL     1      -1.198  -8.405   2.301  0.00  0.00    +0.038 A 
ATOM     26  C   UNL     1      -1.499  -7.265   1.581  0.00  0.00    +0.008 A 
ATOM     27  F   UNL     1       0.100 -10.370   2.566  0.00  0.00    -0.205 F 
ENDBRANCH   2  21
BRANCH   4  28
ATOM     28  O   UNL     1      -0.514  -4.468   2.255  0.00  0.00    -0.506 OA
ATOM     29  H   UNL     1      -0.190  -3.954   3.049  0.00  0.00    +0.292 HD
ENDBRANCH   4  28
BRANCH   1  30
ATOM     30  C   UNL     1      -1.871  -6.981  -2.521  0.00  0.00    +0.107 C 
BRANCH  30  31
ATOM     31  C   UNL     1      -1.160  -8.336  -2.521  0.00  0.00    +0.000 C 
BRANCH  31  32
ATOM     32  C   UNL     1      -2.012  -9.358  -3.277  0.00  0.00    -0.077 C 
BRANCH  32  33
ATOM     33  N   UNL     1      -1.323 -10.665  -3.250  0.00  0.00    +0.379 N 
ATOM     34  H   UNL     1      -1.079 -10.894  -2.279  0.00  0.00    -0.082 HD
BRANCH  33  36
ATOM     35  C   UNL     1      -3.235 -12.086  -2.704  0.00  0.00    -0.017 C 
ATOM     36  C   UNL     1      -2.214 -11.717  -3.782  0.00  0.00    -0.082 C 
ENDBRANCH  33  36
BRANCH  33  37
ATOM     37  C   UNL     1      -0.084 -10.600  -4.053  0.00  0.00    -0.082 C 
ATOM     38  C   UNL     1       0.786 -11.812  -3.715  0.00  0.00    -0.017 C 
ENDBRANCH  33  37
ENDBRANCH  32  33
ENDBRANCH  31  32
ENDBRANCH  30  31
ENDBRANCH   1  30
TORSDOF 11
