REMARK  Name = ZINC08442917
REMARK  9 active torsions:
REMARK  status: ('A' for Active; 'I' for Inactive)
REMARK    1  A    between atoms: C_1  and  C_2
REMARK    2  A    between atoms: C_2  and  C_3
REMARK    3  A    between atoms: C_2  and  C_4
REMARK    4  A    between atoms: C_7  and  C_10
REMARK    5  A    between atoms: C_13  and  C_26
REMARK    6  A    between atoms: N_15  and  C_16
REMARK    7  A    between atoms: C_19  and  S_22
REMARK    8  A    between atoms: S_22  and  N_25
REMARK    9  A    between atoms: C_29  and  C_32
REMARK                            x       y       z     vdW  Elec       q    Type
REMARK                         _______ _______ _______ _____ _____    ______ ____
ROOT
ATOM      1  C   UNL     1       2.471   5.354   0.001  0.00  0.00    +0.134 C 
ATOM      2  C   UNL     1       3.994   5.594  -0.006  0.00  0.00    +0.087 C 
ATOM      3  C   UNL     1       4.581   4.201  -0.019  0.00  0.00    +0.069 C 
ATOM      4  N   UNL     1       3.629   3.332  -0.014  0.00  0.00    -0.183 NA
ATOM      5  N   UNL     1       2.351   3.888   0.001  0.00  0.00    -0.216 N 
ENDROOT
BRANCH   1   9
ATOM      6  C   UNL     1       0.713   7.004   3.527  0.00  0.00    -0.045 A 
ATOM      7  C   UNL     1       0.569   7.652   2.315  0.00  0.00    +0.004 A 
ATOM      8  C   UNL     1       1.137   7.118   1.174  0.00  0.00    +0.006 A 
ATOM      9  C   UNL     1       1.851   5.937   1.245  0.00  0.00    -0.025 A 
ATOM     10  C   UNL     1       1.992   5.286   2.457  0.00  0.00    +0.006 A 
ATOM     11  C   UNL     1       1.426   5.822   3.599  0.00  0.00    +0.004 A 
BRANCH   6  13
ATOM     12  C   UNL     1      -0.905   6.587   5.359  0.00  0.00    +0.012 C 
ATOM     13  C   UNL     1       0.093   7.586   4.771  0.00  0.00    +0.013 C 
ATOM     14  C   UNL     1       1.188   7.877   5.799  0.00  0.00    +0.012 C 
ENDBRANCH   6  13
ENDBRANCH   1   9
BRANCH   5  15
ATOM     15  C   UNL     1       1.154   3.171   0.008  0.00  0.00    +0.052 A 
ATOM     16  C   UNL     1       1.174   1.782   0.000  0.00  0.00    +0.027 A 
ATOM     17  C   UNL     1      -0.013   1.076   0.008  0.00  0.00    +0.030 A 
ATOM     18  C   UNL     1      -1.220   1.750   0.017  0.00  0.00    +0.105 A 
ATOM     19  C   UNL     1      -1.244   3.133   0.030  0.00  0.00    +0.030 A 
ATOM     20  C   UNL     1      -0.061   3.845   0.022  0.00  0.00    +0.027 A 
BRANCH  18  21
ATOM     21  S   UNL     1      -2.732   0.845   0.020  0.00  0.00    +0.056 S 
ATOM     22  O   UNL     1      -3.723   1.708  -0.521  0.00  0.00    -0.153 OA
ATOM     23  O   UNL     1      -2.444  -0.429  -0.539  0.00  0.00    -0.153 OA
BRANCH  21  24
ATOM     24  N   UNL     1      -3.144   0.586   1.603  0.00  0.00    -0.204 NA
ATOM     25  H   UNL     1      -4.078   0.514   1.855  0.00  0.00    +0.144 HD
ATOM     26  H   UNL     1      -2.452   0.505   2.277  0.00  0.00    +0.144 HD
ENDBRANCH  21  24
ENDBRANCH  18  21
ENDBRANCH   5  15
BRANCH   3  27
ATOM     27  C   UNL     1       6.020   3.885  -0.034  0.00  0.00    -0.002 A 
ATOM     28  C   UNL     1       6.963   4.917  -0.044  0.00  0.00    +0.010 A 
ATOM     29  C   UNL     1       8.307   4.620  -0.053  0.00  0.00    +0.009 A 
ATOM     30  C   UNL     1       8.729   3.290  -0.063  0.00  0.00    -0.018 A 
ATOM     31  C   UNL     1       7.789   2.259  -0.059  0.00  0.00    +0.009 A 
ATOM     32  C   UNL     1       6.444   2.552  -0.045  0.00  0.00    +0.010 A 
BRANCH  30  33
ATOM     33  C   UNL     1      10.177   2.973  -0.078  0.00  0.00    -0.018 A 
ATOM     34  C   UNL     1      10.602   1.645  -0.083  0.00  0.00    +0.008 A 
ATOM     35  C   UNL     1      11.951   1.355  -0.102  0.00  0.00    +0.001 A 
ATOM     36  C   UNL     1      12.881   2.379  -0.105  0.00  0.00    +0.000 A 
ATOM     37  C   UNL     1      12.465   3.699  -0.095  0.00  0.00    +0.001 A 
ATOM     38  C   UNL     1      11.119   4.000  -0.081  0.00  0.00    +0.008 A 
ENDBRANCH  30  33
ENDBRANCH   3  27
TORSDOF 7
