REMARK  Name = ZINC20321893
REMARK  9 active torsions:
REMARK  status: ('A' for Active; 'I' for Inactive)
REMARK    1  A    between atoms: C_4  and  C_7
REMARK    2  A    between atoms: C_7  and  C_8
REMARK    3  A    between atoms: C_7  and  N_14
REMARK    4  A    between atoms: N_17  and  C_20
REMARK    5  A    between atoms: C_20  and  C_21
REMARK    6  A    between atoms: C_21  and  C_23
REMARK    7  A    between atoms: C_21  and  O_32
REMARK    8  A    between atoms: C_23  and  O_24
REMARK    9  A    between atoms: O_24  and  C_25
REMARK                            x       y       z     vdW  Elec       q    Type
REMARK                         _______ _______ _______ _____ _____    ______ ____
ROOT
ATOM      1  N   UNL     1      -0.472   3.040  -1.265  0.00  0.00    +0.389 N 
ATOM      2  C   UNL     1      -0.393   1.572  -1.284  0.00  0.00    -0.062 C 
ATOM      3  C   UNL     1       0.228   1.080   0.025  0.00  0.00    +0.066 C 
ATOM      4  N   UNL     1      -0.585   1.547   1.157  0.00  0.00    -0.303 NA
ATOM      5  C   UNL     1      -0.664   3.014   1.175  0.00  0.00    +0.066 C 
ATOM      6  C   UNL     1      -1.286   3.506  -0.134  0.00  0.00    -0.062 C 
ATOM      7  H   UNL     1       0.547   3.433  -1.135  0.00  0.00    -0.080 HD
ENDROOT
BRANCH   1   8
ATOM      8  C   UNL     1      -0.994   3.556  -2.538  0.00  0.00    -0.007 C 
BRANCH   8  12
ATOM      9  C   UNL     1      -1.181   7.820  -2.375  0.00  0.00    +0.000 A 
ATOM     10  C   UNL     1      -2.199   7.106  -2.979  0.00  0.00    +0.000 A 
ATOM     11  C   UNL     1      -2.138   5.726  -3.032  0.00  0.00    +0.002 A 
ATOM     12  C   UNL     1      -1.060   5.060  -2.480  0.00  0.00    -0.057 A 
ATOM     13  C   UNL     1      -0.044   5.774  -1.872  0.00  0.00    +0.002 A 
ATOM     14  C   UNL     1      -0.102   7.154  -1.823  0.00  0.00    +0.000 A 
ENDBRANCH   8  12
BRANCH   8  15
ATOM     15  C   UNL     1      -0.083   3.135  -3.662  0.00  0.00    -0.057 A 
ATOM     16  C   UNL     1       1.288   3.159  -3.487  0.00  0.00    +0.002 A 
ATOM     17  C   UNL     1       2.123   2.769  -4.517  0.00  0.00    +0.000 A 
ATOM     18  C   UNL     1       1.588   2.364  -5.725  0.00  0.00    +0.000 A 
ATOM     19  C   UNL     1       0.217   2.345  -5.902  0.00  0.00    +0.000 A 
ATOM     20  C   UNL     1      -0.619   2.731  -4.871  0.00  0.00    +0.002 A 
ENDBRANCH   8  15
ENDBRANCH   1   8
BRANCH   4  21
ATOM     21  C   UNL     1      -0.062   1.031   2.429  0.00  0.00    +0.119 C 
BRANCH  21  22
ATOM     22  C   UNL     1      -0.221  -0.491   2.466  0.00  0.00    +0.166 C 
BRANCH  22  23
ATOM     23  O   UNL     1      -1.605  -0.828   2.357  0.00  0.00    -0.387 OA
ATOM     24  H   UNL     1      -1.917  -1.883   2.366  0.00  0.00    +0.210 HD
ENDBRANCH  22  23
BRANCH  22  25
ATOM     25  C   UNL     1       0.334  -1.029   3.786  0.00  0.00    +0.261 C 
BRANCH  25  26
ATOM     26  O   UNL     1       0.293  -2.458   3.773  0.00  0.00    -0.488 OA
BRANCH  26  27
ATOM     27  C   UNL     1       0.753  -3.099   4.879  0.00  0.00    +0.135 A 
ATOM     28  C   UNL     1       1.239  -2.368   5.954  0.00  0.00    +0.047 A 
ATOM     29  C   UNL     1       1.701  -3.021   7.080  0.00  0.00    +0.004 A 
ATOM     30  C   UNL     1       1.689  -4.403   7.133  0.00  0.00    +0.001 A 
ATOM     31  C   UNL     1       1.211  -5.134   6.061  0.00  0.00    +0.019 A 
ATOM     32  C   UNL     1       0.742  -4.485   4.934  0.00  0.00    +0.059 A 
ATOM     33 BR   UNL     1       0.088  -5.486   3.469  0.00  0.00    -0.047 Br
ENDBRANCH  26  27
ENDBRANCH  25  26
ENDBRANCH  22  25
ENDBRANCH  21  22
ENDBRANCH   4  21
TORSDOF 9
