REMARK  Name = ZINC35645087
REMARK  12 active torsions:
REMARK  status: ('A' for Active; 'I' for Inactive)
REMARK    1  A    between atoms: C_1  and  C_2
REMARK    2  A    between atoms: C_2  and  N_3
REMARK    3  A    between atoms: C_4  and  C_23
REMARK    4  A    between atoms: C_5  and  C_18
REMARK    5  A    between atoms: C_6  and  C_11
REMARK    6  A    between atoms: C_16  and  C_17
REMARK    7  A    between atoms: C_18  and  O_20
REMARK    8  A    between atoms: O_20  and  C_21
REMARK    9  A    between atoms: C_21  and  C_22
REMARK   10  A    between atoms: C_23  and  N_24
REMARK   11  A    between atoms: N_27  and  S_30
REMARK   12  A    between atoms: S_30  and  C_33
REMARK                            x       y       z     vdW  Elec       q    Type
REMARK                         _______ _______ _______ _____ _____    ______ ____
ROOT
ATOM      1  N   UNL     1       1.496  -0.608  -0.896  0.00  0.00    -0.258 N 
ATOM      2  C   UNL     1       0.463  -0.465  -1.778  0.00  0.00    +0.041 C 
ATOM      3  C   UNL     1       0.619  -0.758  -3.087  0.00  0.00    +0.080 C 
ATOM      4  C   UNL     1       1.978  -1.249  -3.543  0.00  0.00    +0.144 C 
ATOM      5  N   UNL     1       3.024  -1.367  -2.513  0.00  0.00    -0.288 N 
ATOM      6  C   UNL     1       2.717  -1.032  -1.244  0.00  0.00    +0.307 C 
ATOM      7  O   UNL     1       3.575  -1.123  -0.388  0.00  0.00    -0.252 OA
ATOM      8  H   UNL     1       3.915  -1.676  -2.743  0.00  0.00    +0.151 HD
ENDROOT
BRANCH   4   9
ATOM      9  C   UNL     1       2.479  -0.307  -4.607  0.00  0.00    -0.020 A 
ATOM     10  C   UNL     1       3.265   0.775  -4.258  0.00  0.00    +0.006 A 
ATOM     11  C   UNL     1       3.725   1.639  -5.234  0.00  0.00    +0.000 A 
ATOM     12  C   UNL     1       3.399   1.420  -6.560  0.00  0.00    +0.000 A 
ATOM     13  C   UNL     1       2.615   0.337  -6.909  0.00  0.00    +0.004 A 
ATOM     14  C   UNL     1       2.159  -0.529  -5.933  0.00  0.00    -0.045 A 
ATOM     15  C   UNL     1       1.307  -1.713  -6.314  0.00  0.00    +0.044 C 
ENDBRANCH   4   9
BRANCH   1  17
ATOM     16  C   UNL     1       1.572   1.207   0.742  0.00  0.00    +0.025 C 
ATOM     17  C   UNL     1       1.256  -0.272   0.510  0.00  0.00    +0.111 C 
ENDBRANCH   1  17
BRANCH   3  18
ATOM     18  C   UNL     1      -0.450  -0.612  -4.002  0.00  0.00    +0.339 C 
ATOM     19  O   UNL     1      -1.131  -1.575  -4.300  0.00  0.00    -0.245 OA
BRANCH  18  20
ATOM     20  O   UNL     1      -0.714   0.596  -4.543  0.00  0.00    -0.462 OA
BRANCH  20  21
ATOM     21  C   UNL     1      -1.872   0.694  -5.376  0.00  0.00    +0.229 C 
ATOM     22  C   UNL     1      -1.939   2.093  -5.992  0.00  0.00    +0.048 C 
ENDBRANCH  20  21
ENDBRANCH  18  20
ENDBRANCH   3  18
BRANCH   2  23
ATOM     23  C   UNL     1      -0.873   0.026  -1.282  0.00  0.00    +0.136 C 
BRANCH  23  24
ATOM     24  N   UNL     1      -1.458  -0.974  -0.380  0.00  0.00    -0.294 NA
ATOM     25  C   UNL     1      -1.780  -2.211  -1.103  0.00  0.00    +0.102 C 
ATOM     26  C   UNL     1      -2.216  -3.286  -0.102  0.00  0.00    +0.125 C 
ATOM     27  N   UNL     1      -3.310  -2.743   0.719  0.00  0.00    -0.174 NA
ATOM     28  C   UNL     1      -3.112  -1.437   1.366  0.00  0.00    +0.125 C 
ATOM     29  C   UNL     1      -2.640  -0.435   0.306  0.00  0.00    +0.102 C 
BRANCH  27  30
ATOM     30  S   UNL     1      -4.726  -3.580   0.909  0.00  0.00    +0.061 S 
ATOM     31  O   UNL     1      -5.723  -2.623   1.236  0.00  0.00    -0.153 OA
ATOM     32  O   UNL     1      -4.839  -4.447  -0.211  0.00  0.00    -0.153 OA
BRANCH  30  33
ATOM     33  C   UNL     1      -4.535  -4.612   2.325  0.00  0.00    +0.105 A 
ATOM     34  C   UNL     1      -4.029  -5.891   2.186  0.00  0.00    +0.028 A 
ATOM     35  C   UNL     1      -3.880  -6.700   3.297  0.00  0.00    +0.002 A 
ATOM     36  C   UNL     1      -4.234  -6.229   4.547  0.00  0.00    +0.000 A 
ATOM     37  C   UNL     1      -4.739  -4.950   4.687  0.00  0.00    +0.002 A 
ATOM     38  C   UNL     1      -4.885  -4.139   3.576  0.00  0.00    +0.028 A 
ENDBRANCH  30  33
ENDBRANCH  27  30
ENDBRANCH  23  24
ENDBRANCH   2  23
TORSDOF 9
