REMARK  Name = ZINC63271455
REMARK  5 active torsions:
REMARK  status: ('A' for Active; 'I' for Inactive)
REMARK    1  A    between atoms: C_6  and  C_11
REMARK    2  A    between atoms: C_11  and  C_12
REMARK    3  A    between atoms: C_12  and  N_13
REMARK    4  A    between atoms: C_14  and  C_16
REMARK    5  A    between atoms: C_16  and  N_17
REMARK                            x       y       z     vdW  Elec       q    Type
REMARK                         _______ _______ _______ _____ _____    ______ ____
ROOT
ATOM      1  C   UNL     1       5.818  -5.606  -2.688  0.00  0.00    +0.201 C 
ENDROOT
BRANCH   1   2
ATOM      2  N   UNL     1       6.084  -6.017  -4.069  0.00  0.00    -0.291 N 
ATOM      3  C   UNL     1       6.546  -7.256  -4.326  0.00  0.00    +0.303 C 
ATOM      4  O   UNL     1       6.830  -8.002  -3.408  0.00  0.00    -0.253 OA
ATOM      5  N   UNL     1       6.693  -7.670  -5.600  0.00  0.00    -0.284 N 
ATOM      6  C   UNL     1       6.458  -6.729  -6.698  0.00  0.00    +0.110 C 
ATOM      7  C   UNL     1       5.576  -7.367  -7.790  0.00  0.00    +0.025 C 
ATOM      8  C   UNL     1       6.232  -8.688  -8.157  0.00  0.00    +0.029 C 
ATOM      9  C   UNL     1       6.104  -9.593  -6.893  0.00  0.00    +0.127 C 
ATOM     10  C   UNL     1       7.097  -9.067  -5.873  0.00  0.00    +0.136 C 
ATOM     11  N   UNL     1       6.262 -10.937  -7.409  0.00  0.00    -0.282 NA
ATOM     12  C   UNL     1       5.893 -10.978  -8.659  0.00  0.00    +0.043 C 
ATOM     13  C   UNL     1       5.485  -9.573  -9.149  0.00  0.00    +0.065 C 
ATOM     14  C   UNL     1       5.945  -9.390 -10.563  0.00  0.00    -0.017 C 
ATOM     15  C   UNL     1       6.199 -10.433 -11.347  0.00  0.00    -0.004 C 
ATOM     16  C   UNL     1       6.057 -11.814 -10.890  0.00  0.00    +0.001 C 
ATOM     17  C   UNL     1       5.897 -12.097  -9.533  0.00  0.00    +0.023 C 
ATOM     18  H   UNL     1       5.928  -5.396  -4.798  0.00  0.00    +0.151 HD
ENDBRANCH   1   2
BRANCH   1  20
ATOM     19  N   UNL     1       5.000  -3.593  -1.506  0.00  0.00    -0.314 N 
ATOM     20  C   UNL     1       5.313  -4.186  -2.675  0.00  0.00    +0.230 C 
ATOM     21  O   UNL     1       5.189  -3.577  -3.716  0.00  0.00    -0.274 OA
ATOM     22  H   UNL     1       5.100  -4.080  -0.673  0.00  0.00    +0.149 HD
BRANCH  19  23
ATOM     23  C   UNL     1       4.510  -2.212  -1.493  0.00  0.00    +0.108 C 
BRANCH  23  24
ATOM     24  C   UNL     1       4.231  -1.784  -0.051  0.00  0.00    +0.052 C 
BRANCH  24  30
ATOM     25  C   UNL     1      -0.011   1.409   0.001  0.00  0.00    +0.040 A 
ATOM     26  C   UNL     1       1.116   2.150  -0.002  0.00  0.00    +0.029 A 
ATOM     27  C   UNL     1       2.391   1.520  -0.015  0.00  0.00    +0.043 A 
ATOM     28  N   UNL     1       3.607   2.012  -0.021  0.00  0.00    -0.380 N 
ATOM     29  C   UNL     1       4.561   0.898  -0.036  0.00  0.00    +0.144 C 
ATOM     30  C   UNL     1       3.727  -0.364  -0.037  0.00  0.00    -0.040 C 
ATOM     31  C   UNL     1       2.437   0.041  -0.025  0.00  0.00    +0.002 A 
ATOM     32  C   UNL     1       1.165  -0.693  -0.021  0.00  0.00    +0.048 A 
ATOM     33  C   UNL     1       0.005   0.005  -0.009  0.00  0.00    +0.124 A 
ATOM     34  F   UNL     1      -1.167  -0.667  -0.005  0.00  0.00    -0.205 F 
ATOM     35  H   UNL     1       3.837   2.954  -0.018  0.00  0.00    +0.160 HD
ENDBRANCH  24  30
ENDBRANCH  23  24
ENDBRANCH  19  23
ENDBRANCH   1  20
TORSDOF 5
