REMARK  Name = ZINC08845473
REMARK  5 active torsions:
REMARK  status: ('A' for Active; 'I' for Inactive)
REMARK    1  A    between atoms: C_4  and  O_30
REMARK    2  A    between atoms: C_5  and  C_7
REMARK    3  A    between atoms: N_15  and  C_23
REMARK    4  A    between atoms: C_16  and  C_18
REMARK    5  A    between atoms: C_23  and  C_24
REMARK                            x       y       z     vdW  Elec       q    Type
REMARK                         _______ _______ _______ _____ _____    ______ ____
ROOT
ATOM      1  C   UNL     1       1.244  -2.166  -0.023  0.00  0.00    +0.102 A 
ATOM      2  C   UNL     1       0.131  -3.014  -0.022  0.00  0.00    +0.035 A 
ATOM      3  C   UNL     1       0.636  -4.300  -0.034  0.00  0.00    +0.126 A 
ATOM      4  N   UNL     1       1.996  -4.173  -0.040  0.00  0.00    -0.272 N 
ATOM      5  H   UNL     1       2.625  -4.911  -0.048  0.00  0.00    +0.189 HD
ATOM      6  N   UNL     1       2.320  -2.928  -0.038  0.00  0.00    -0.173 NA
ATOM      7  C   UNL     1      -0.487  -5.243  -0.034  0.00  0.00    +0.266 C 
ATOM      8  O   UNL     1      -0.377  -6.454  -0.042  0.00  0.00    -0.268 OA
ATOM      9  N   UNL     1      -1.657  -4.578  -0.023  0.00  0.00    -0.280 N 
ATOM     10  C   UNL     1      -1.368  -3.138  -0.016  0.00  0.00    +0.148 C 
ENDROOT
BRANCH   1  15
ATOM     11  C   UNL     1      -0.017   1.376   0.010  0.00  0.00    +0.001 A 
ATOM     12  C   UNL     1       1.169   2.089   0.002  0.00  0.00    +0.004 A 
ATOM     13  C   UNL     1       2.381   1.425  -0.013  0.00  0.00    +0.046 A 
ATOM     14  C   UNL     1       2.414   0.040  -0.021  0.00  0.00    +0.126 A 
ATOM     15  C   UNL     1       1.218  -0.682  -0.014  0.00  0.00    +0.044 A 
ATOM     16  C   UNL     1       0.002  -0.004   0.002  0.00  0.00    +0.014 A 
BRANCH  14  17
ATOM     17  O   UNL     1       3.605  -0.613  -0.037  0.00  0.00    -0.506 OA
ATOM     18  H   UNL     1       3.959  -0.807   0.842  0.00  0.00    +0.292 HD
ENDBRANCH  14  17
ENDBRANCH   1  15
BRANCH  10  19
ATOM     19  C   UNL     1      -1.936  -2.503   1.227  0.00  0.00    +0.015 A 
ATOM     20  C   UNL     1      -2.509  -1.283   1.377  0.00  0.00    +0.013 A 
ATOM     21  C   UNL     1      -2.965  -0.906   2.626  0.00  0.00    +0.008 A 
ATOM     22  C   UNL     1      -2.826  -1.766   3.664  0.00  0.00    +0.045 A 
ATOM     23  S   UNL     1      -2.036  -3.163   2.883  0.00  0.00    -0.099 S 
ENDBRANCH  10  19
BRANCH   9  24
ATOM     24  C   UNL     1      -2.990  -5.187  -0.020  0.00  0.00    +0.145 C 
BRANCH  24  25
ATOM     25  C   UNL     1      -3.439  -5.404   1.402  0.00  0.00    -0.012 A 
ATOM     26  C   UNL     1      -3.147  -6.590   2.057  0.00  0.00    +0.008 A 
ATOM     27  C   UNL     1      -3.581  -6.746   3.365  0.00  0.00    +0.020 A 
ATOM     28  C   UNL     1      -4.285  -5.721   3.968  0.00  0.00    +0.111 A 
ATOM     29  N   UNL     1      -4.545  -4.606   3.314  0.00  0.00    -0.263 NA
ATOM     30  C   UNL     1      -4.143  -4.420   2.071  0.00  0.00    +0.115 A 
ENDBRANCH  24  25
ENDBRANCH   9  24
TORSDOF 5
