REMARK  Name = ZINC19859475
REMARK  5 active torsions:
REMARK  status: ('A' for Active; 'I' for Inactive)
REMARK    1  A    between atoms: C_1  and  C_2
REMARK    2  A    between atoms: C_4  and  N_9
REMARK    3  A    between atoms: C_13  and  C_14
REMARK    4  A    between atoms: N_16  and  C_23
REMARK    5  A    between atoms: C_23  and  C_24
REMARK                            x       y       z     vdW  Elec       q    Type
REMARK                         _______ _______ _______ _____ _____    ______ ____
ROOT
ATOM      1  N   UNL     1      -1.420  -3.110  -2.639  0.00  0.00    -0.188 N 
ATOM      2  C   UNL     1      -0.957  -4.377  -2.587  0.00  0.00    +0.264 C 
ATOM      3  O   UNL     1      -1.116  -5.065  -1.595  0.00  0.00    -0.269 OA
ATOM      4  C   UNL     1      -0.253  -4.901  -3.771  0.00  0.00    +0.102 C 
ATOM      5  C   UNL     1       0.256  -6.197  -3.800  0.00  0.00    +0.028 C 
ATOM      6  C   UNL     1      -0.111  -3.995  -4.918  0.00  0.00    +0.276 C 
ATOM      7  O   UNL     1       0.520  -4.397  -6.041  0.00  0.00    -0.268 OA
ATOM      8  N   UNL     1      -0.618  -2.776  -4.826  0.00  0.00    -0.123 NA
ATOM      9  C   UNL     1      -1.249  -2.355  -3.734  0.00  0.00    +0.340 C 
ATOM     10  O   UNL     1      -1.693  -1.220  -3.726  0.00  0.00    -0.250 OA
ENDROOT
BRANCH   5  11
ATOM     11  C   UNL     1       0.270  -6.975  -2.627  0.00  0.00    +0.001 A 
ATOM     12  C   UNL     1       0.655  -6.565  -1.360  0.00  0.00    +0.095 A 
ATOM     13  N   UNL     1       0.530  -7.590  -0.499  0.00  0.00    -0.335 N 
ATOM     14  C   UNL     1       0.062  -8.718  -1.144  0.00  0.00    +0.050 A 
ATOM     15  C   UNL     1      -0.129  -8.391  -2.495  0.00  0.00    +0.007 A 
ATOM     16  C   UNL     1      -0.606  -9.347  -3.386  0.00  0.00    +0.010 A 
ATOM     17  C   UNL     1      -0.893 -10.618  -2.934  0.00  0.00    +0.001 A 
ATOM     18  C   UNL     1      -0.709 -10.943  -1.599  0.00  0.00    +0.002 A 
ATOM     19  C   UNL     1      -0.229 -10.007  -0.708  0.00  0.00    +0.026 A 
BRANCH  13  20
ATOM     20  C   UNL     1       0.849  -7.520   0.929  0.00  0.00    +0.246 C 
BRANCH  20  21
ATOM     21  C   UNL     1       2.256  -8.008   1.154  0.00  0.00    +0.375 C 
ATOM     22  O   UNL     1       2.931  -8.381   0.210  0.00  0.00    -0.244 OA
ATOM     23  O   UNL     1       2.720  -8.031   2.282  0.00  0.00    -0.244 OA
ENDBRANCH  20  21
ENDBRANCH  13  20
ENDBRANCH   5  11
BRANCH   1  27
ATOM     24  C   UNL     1      -5.311  -3.153   0.369  0.00  0.00    +0.045 C 
ATOM     25  C   UNL     1      -3.982  -2.579  -0.053  0.00  0.00    -0.035 A 
ATOM     26  C   UNL     1      -3.319  -3.106  -1.144  0.00  0.00    +0.028 A 
ATOM     27  C   UNL     1      -2.096  -2.577  -1.533  0.00  0.00    +0.046 A 
ATOM     28  C   UNL     1      -1.542  -1.520  -0.823  0.00  0.00    +0.025 A 
ATOM     29  C   UNL     1      -2.209  -0.997   0.267  0.00  0.00    +0.017 A 
ATOM     30  C   UNL     1      -3.431  -1.522   0.649  0.00  0.00    +0.021 A 
ATOM     31 BR   UNL     1      -4.346  -0.799   2.138  0.00  0.00    -0.050 Br
ENDBRANCH   1  27
TORSDOF 4
