REMARK  Name = ZINC40981667
REMARK  11 active torsions:
REMARK  status: ('A' for Active; 'I' for Inactive)
REMARK    1  A    between atoms: C_1  and  C_2
REMARK    2  A    between atoms: C_2  and  C_3
REMARK    3  A    between atoms: C_3  and  S_4
REMARK    4  A    between atoms: S_4  and  C_5
REMARK    5  A    between atoms: C_10  and  C_22
REMARK    6  A    between atoms: C_16  and  C_20
REMARK    7  A    between atoms: C_16  and  C_21
REMARK    8  A    between atoms: C_25  and  O_28
REMARK    9  A    between atoms: O_28  and  C_29
REMARK   10  A    between atoms: C_29  and  C_30
REMARK   11  A    between atoms: C_33  and  C_36
REMARK                            x       y       z     vdW  Elec       q    Type
REMARK                         _______ _______ _______ _____ _____    ______ ____
ROOT
ATOM      1  C   UNL     1       1.641  -2.747   2.702  0.00  0.00    +0.210 A 
ATOM      2  N   UNL     1       2.143  -1.874   3.588  0.00  0.00    -0.187 NA
ATOM      3  C   UNL     1       2.730  -2.524   4.555  0.00  0.00    +0.219 A 
ATOM      4  N   UNL     1       2.608  -3.851   4.307  0.00  0.00    -0.220 N 
ATOM      5  N   UNL     1       1.903  -3.970   3.110  0.00  0.00    -0.141 NA
ATOM      6  C   UNL     1       3.138  -4.884   5.188  0.00  0.00    +0.175 C 
ATOM      7  C   UNL     1       4.100  -4.273   6.183  0.00  0.00    +0.041 C 
ATOM      8  C   UNL     1       4.181  -2.939   6.377  0.00  0.00    +0.020 C 
ATOM      9  N   UNL     1       3.390  -2.057   5.679  0.00  0.00    -0.287 N 
ATOM     10  C   UNL     1       5.156  -2.357   7.373  0.00  0.00    +0.058 C 
ATOM     11  C   UNL     1       5.369  -3.343   8.523  0.00  0.00    -0.023 C 
ATOM     12  C   UNL     1       5.893  -4.659   7.939  0.00  0.00    +0.086 C 
ATOM     13  C   UNL     1       4.918  -5.158   6.909  0.00  0.00    +0.164 C 
ATOM     14  O   UNL     1       4.835  -6.352   6.698  0.00  0.00    -0.292 OA
ATOM     15  C   UNL     1       6.391  -2.773   9.508  0.00  0.00    +0.011 C 
ATOM     16  C   UNL     1       4.041  -3.591   9.242  0.00  0.00    +0.011 C 
ATOM     17  H   UNL     1       3.299  -1.135   5.966  0.00  0.00    +0.155 HD
ENDROOT
BRANCH   6  18
ATOM     18  C   UNL     1       2.002  -5.538   5.932  0.00  0.00    -0.018 A 
ATOM     19  C   UNL     1       1.185  -4.779   6.749  0.00  0.00    +0.009 A 
ATOM     20  C   UNL     1       0.143  -5.376   7.432  0.00  0.00    +0.046 A 
ATOM     21  C   UNL     1      -0.083  -6.738   7.297  0.00  0.00    +0.121 A 
ATOM     22  C   UNL     1       0.739  -7.497   6.476  0.00  0.00    +0.046 A 
ATOM     23  C   UNL     1       1.776  -6.895   5.792  0.00  0.00    +0.009 A 
BRANCH  21  24
ATOM     24  O   UNL     1      -1.107  -7.328   7.969  0.00  0.00    -0.487 OA
BRANCH  24  25
ATOM     25  C   UNL     1      -1.280  -8.734   7.782  0.00  0.00    +0.264 C 
BRANCH  25  26
ATOM     26  C   UNL     1      -2.454  -9.208   8.599  0.00  0.00    -0.010 A 
ATOM     27  C   UNL     1      -2.265  -9.633   9.901  0.00  0.00    +0.007 A 
ATOM     28  C   UNL     1      -3.342 -10.068  10.650  0.00  0.00    +0.004 A 
ATOM     29  C   UNL     1      -4.609 -10.078  10.097  0.00  0.00    -0.050 A 
ATOM     30  C   UNL     1      -4.799  -9.652   8.796  0.00  0.00    +0.004 A 
ATOM     31  C   UNL     1      -3.722  -9.213   8.048  0.00  0.00    +0.007 A 
ATOM     32  C   UNL     1      -5.784 -10.552  10.914  0.00  0.00    +0.044 C 
ENDBRANCH  25  26
ENDBRANCH  24  25
ENDBRANCH  21  24
ENDBRANCH   6  18
BRANCH   1  33
ATOM     33  S   UNL     1       0.767  -2.325   1.232  0.00  0.00    -0.084 S 
BRANCH  33  34
ATOM     34  C   UNL     1       0.742  -0.511   1.242  0.00  0.00    +0.077 C 
BRANCH  34  36
ATOM     35  C   UNL     1      -0.019   1.526   0.010  0.00  0.00    +0.004 C 
ATOM     36  C   UNL     1       0.002  -0.004   0.002  0.00  0.00    +0.008 C 
ENDBRANCH  34  36
ENDBRANCH  33  34
ENDBRANCH   1  33
TORSDOF 7
