REMARK  Name = ZINC28582028
REMARK  6 active torsions:
REMARK  status: ('A' for Active; 'I' for Inactive)
REMARK    1  A    between atoms: C_1  and  C_2
REMARK    2  A    between atoms: C_10  and  C_11
REMARK    3  A    between atoms: N_13  and  C_14
REMARK    4  A    between atoms: C_14  and  C_15
REMARK    5  A    between atoms: C_15  and  N_16
REMARK    6  A    between atoms: C_20  and  C_21
REMARK                            x       y       z     vdW  Elec       q    Type
REMARK                         _______ _______ _______ _____ _____    ______ ____
ROOT
ATOM      1  C   UNL     1       2.950   1.970  -2.374  0.00  0.00    +0.124 C 
ENDROOT
BRANCH   1   4
ATOM      2  C   UNL     1       4.949   1.579  -3.712  0.00  0.00    +0.280 C 
ATOM      3  O   UNL     1       4.370   2.064  -4.665  0.00  0.00    -0.267 OA
ATOM      4  N   UNL     1       4.326   1.487  -2.520  0.00  0.00    -0.307 N 
ATOM      5  H   UNL     1       4.850   1.049  -1.658  0.00  0.00    +0.149 HD
BRANCH   2  15
ATOM      6  C   UNL     1       6.608   1.676  -6.341  0.00  0.00    +0.048 C 
ATOM      7  C   UNL     1       7.054   1.137  -5.006  0.00  0.00    +0.008 A 
ATOM      8  C   UNL     1       8.355   0.552  -4.685  0.00  0.00    +0.027 A 
ATOM      9  C   UNL     1       9.522   0.311  -5.416  0.00  0.00    +0.012 A 
ATOM     10  C   UNL     1      10.598  -0.268  -4.805  0.00  0.00    +0.004 A 
ATOM     11  C   UNL     1      10.540  -0.618  -3.463  0.00  0.00    +0.042 A 
ATOM     12  C   UNL     1       9.399  -0.389  -2.723  0.00  0.00    +0.166 A 
ATOM     13  C   UNL     1       8.290   0.200  -3.325  0.00  0.00    +0.171 A 
ATOM     14  O   UNL     1       7.069   0.546  -2.873  0.00  0.00    -0.447 OA
ATOM     15  C   UNL     1       6.329   1.095  -3.859  0.00  0.00    +0.193 A 
ATOM     16  F   UNL     1       9.357  -0.734  -1.417  0.00  0.00    -0.202 F 
ENDBRANCH   2  15
ENDBRANCH   1   4
BRANCH   1  17
ATOM     17  C   UNL     1       2.483   1.749  -0.934  0.00  0.00    +0.136 C 
BRANCH  17  18
ATOM     18  N   UNL     1       1.108   2.232  -0.787  0.00  0.00    -0.227 N 
ATOM     19  C   UNL     1       0.899   3.489  -0.433  0.00  0.00    +0.260 C 
ATOM     20  O   UNL     1       1.820   4.257  -0.226  0.00  0.00    -0.269 OA
ATOM     21  C   UNL     1      -0.511   3.914  -0.303  0.00  0.00    +0.080 C 
ATOM     22  C   UNL     1      -1.021   5.122   0.040  0.00  0.00    +0.028 C 
ATOM     23  S   UNL     1      -1.358   2.398  -0.728  0.00  0.00    -0.026 S 
ATOM     24  C   UNL     1       0.084   1.385  -1.016  0.00  0.00    +0.286 C 
ATOM     25  O   UNL     1       0.131   0.215  -1.343  0.00  0.00    -0.262 OA
BRANCH  22  26
ATOM     26  C   UNL     1      -2.469   5.363  -0.056  0.00  0.00    -0.024 A 
ATOM     27  C   UNL     1      -3.300   4.418  -0.669  0.00  0.00    +0.008 A 
ATOM     28  C   UNL     1      -4.656   4.649  -0.749  0.00  0.00    +0.001 A 
ATOM     29  C   UNL     1      -5.196   5.816  -0.237  0.00  0.00    +0.000 A 
ATOM     30  C   UNL     1      -4.380   6.758   0.366  0.00  0.00    +0.001 A 
ATOM     31  C   UNL     1      -3.022   6.540   0.460  0.00  0.00    +0.008 A 
ENDBRANCH  22  26
ENDBRANCH  17  18
ENDBRANCH   1  17
TORSDOF 5
