REMARK  Name = ZINC37601891
REMARK  10 active torsions:
REMARK  status: ('A' for Active; 'I' for Inactive)
REMARK    1  A    between atoms: C_1  and  C_2
REMARK    2  A    between atoms: C_2  and  C_3
REMARK    3  A    between atoms: C_2  and  C_4
REMARK    4  A    between atoms: C_12  and  O_23
REMARK    5  A    between atoms: C_15  and  C_17
REMARK    6  A    between atoms: O_23  and  C_24
REMARK    7  A    between atoms: C_24  and  C_25
REMARK    8  A    between atoms: C_27  and  C_30
REMARK    9  A    between atoms: N_32  and  C_33
REMARK   10  A    between atoms: C_33  and  C_34
REMARK                            x       y       z     vdW  Elec       q    Type
REMARK                         _______ _______ _______ _____ _____    ______ ____
ROOT
ATOM      1  C   UNL     1      -1.520  -0.768   0.446  0.00  0.00    +0.219 C 
ATOM      2  O   UNL     1      -1.978  -1.499   1.298  0.00  0.00    -0.275 OA
ATOM      3  N   UNL     1      -2.268  -0.428  -0.623  0.00  0.00    -0.290 N 
ATOM      4  C   UNL     1      -1.706   0.364  -1.730  0.00  0.00    +0.113 C 
ATOM      5  C   UNL     1      -1.719  -0.507  -2.985  0.00  0.00    +0.054 C 
ATOM      6  C   UNL     1      -3.058  -1.176  -3.159  0.00  0.00    -0.040 A 
ATOM      7  C   UNL     1      -3.384  -1.641  -4.428  0.00  0.00    +0.007 A 
ATOM      8  C   UNL     1      -4.588  -2.271  -4.658  0.00  0.00    +0.046 A 
ATOM      9  C   UNL     1      -5.484  -2.445  -3.613  0.00  0.00    +0.121 A 
ATOM     10  C   UNL     1      -5.161  -1.980  -2.350  0.00  0.00    +0.051 A 
ATOM     11  C   UNL     1      -3.951  -1.340  -2.124  0.00  0.00    -0.016 A 
ATOM     12  C   UNL     1      -3.672  -0.839  -0.734  0.00  0.00    +0.137 C 
ENDROOT
BRANCH  12  13
ATOM     13  C   UNL     1      -4.563   0.341  -0.443  0.00  0.00    -0.023 A 
ATOM     14  C   UNL     1      -5.378   0.333   0.673  0.00  0.00    +0.006 A 
ATOM     15  C   UNL     1      -6.196   1.415   0.940  0.00  0.00    +0.000 A 
ATOM     16  C   UNL     1      -6.198   2.506   0.091  0.00  0.00    +0.000 A 
ATOM     17  C   UNL     1      -5.382   2.514  -1.025  0.00  0.00    +0.000 A 
ATOM     18  C   UNL     1      -4.561   1.434  -1.290  0.00  0.00    +0.006 A 
ENDBRANCH  12  13
BRANCH   1  20
ATOM     19  C   UNL     1      -0.157   1.169   1.180  0.00  0.00    +0.017 C 
ATOM     20  C   UNL     1      -0.116  -0.239   0.582  0.00  0.00    +0.069 C 
ATOM     21  C   UNL     1       0.689  -1.160   1.501  0.00  0.00    +0.017 C 
ENDBRANCH   1  20
BRANCH   9  22
ATOM     22  O   UNL     1      -6.672  -3.069  -3.829  0.00  0.00    -0.485 OA
BRANCH  22  23
ATOM     23  C   UNL     1      -6.936  -3.522  -5.158  0.00  0.00    +0.291 C 
BRANCH  23  24
ATOM     24  C   UNL     1      -8.289  -4.183  -5.205  0.00  0.00    +0.116 A 
ATOM     25  N   UNL     1      -9.445  -3.634  -5.457  0.00  0.00    -0.236 NA
ATOM     26  C   UNL     1     -10.533  -4.411  -5.448  0.00  0.00    +0.133 A 
ATOM     27  C   UNL     1     -10.324  -5.735  -5.170  0.00  0.00    +0.080 A 
ATOM     28  S   UNL     1      -8.660  -5.801  -4.952  0.00  0.00    -0.076 S 
BRANCH  26  29
ATOM     29  C   UNL     1     -11.877  -3.874  -5.721  0.00  0.00    +0.263 C 
ATOM     30  O   UNL     1     -12.842  -4.614  -5.704  0.00  0.00    -0.269 OA
ATOM     31  N   UNL     1     -12.037  -2.563  -5.991  0.00  0.00    -0.303 N 
ATOM     32  H   UNL     1     -11.267  -1.973  -6.005  0.00  0.00    +0.150 HD
BRANCH  31  33
ATOM     33  C   UNL     1     -13.374  -2.029  -6.262  0.00  0.00    +0.179 C 
BRANCH  33  34
ATOM     34  C   UNL     1     -13.279  -0.549  -6.531  0.00  0.00    +0.122 A 
ATOM     35  C   UNL     1     -13.099   0.021  -7.736  0.00  0.00    +0.046 A 
ATOM     36  C   UNL     1     -13.069   1.419  -7.527  0.00  0.00    +0.041 A 
ATOM     37  C   UNL     1     -13.232   1.619  -6.207  0.00  0.00    +0.195 A 
ATOM     38  O   UNL     1     -13.365   0.424  -5.609  0.00  0.00    -0.466 OA
ENDBRANCH  33  34
ENDBRANCH  31  33
ENDBRANCH  26  29
ENDBRANCH  23  24
ENDBRANCH  22  23
ENDBRANCH   9  22
TORSDOF 8
