REMARK  Name = ZINC28053133
REMARK  3 active torsions:
REMARK  status: ('A' for Active; 'I' for Inactive)
REMARK    1  A    between atoms: C_1  and  C_2
REMARK    2  A    between atoms: C_6  and  C_8
REMARK    3  A    between atoms: C_25  and  C_27
REMARK                            x       y       z     vdW  Elec       q    Type
REMARK                         _______ _______ _______ _____ _____    ______ ____
ROOT
ATOM      1  C   UNL     1       1.055  -2.211  -0.231  0.00  0.00    +0.234 C 
ATOM      2  C   UNL     1       1.007  -0.700  -0.242  0.00  0.00    +0.025 C 
ATOM      3  C   UNL     1      -0.151  -0.084   0.004  0.00  0.00    +0.050 C 
ATOM      4  C   UNL     1      -1.354  -0.915   0.248  0.00  0.00    +0.038 A 
ATOM      5  C   UNL     1      -2.499  -0.382   0.827  0.00  0.00    +0.013 A 
ATOM      6  C   UNL     1      -3.598  -1.194   1.036  0.00  0.00    +0.001 A 
ATOM      7  C   UNL     1      -3.560  -2.528   0.670  0.00  0.00    +0.004 A 
ATOM      8  C   UNL     1      -2.424  -3.066   0.093  0.00  0.00    +0.046 A 
ATOM      9  C   UNL     1      -1.317  -2.266  -0.121  0.00  0.00    +0.131 A 
ATOM     10  O   UNL     1      -0.183  -2.756  -0.684  0.00  0.00    -0.479 OA
ATOM     11  N   UNL     1      -0.265   1.311   0.029  0.00  0.00    -0.282 N 
ATOM     12  C   UNL     1       0.909   2.045   0.057  0.00  0.00    +0.240 A 
ATOM     13  N   UNL     1       1.131   3.303   0.308  0.00  0.00    -0.092 NA
ATOM     14  N   UNL     1       2.392   3.558   0.232  0.00  0.00    -0.021 NA
ATOM     15  N   UNL     1       3.051   2.486  -0.072  0.00  0.00    -0.042 NA
ATOM     16  N   UNL     1       2.111   1.465  -0.201  0.00  0.00    -0.201 N 
ATOM     17  C   UNL     1       2.278   0.058  -0.537  0.00  0.00    +0.174 C 
ATOM     18  H   UNL     1      -1.260   1.782   0.025  0.00  0.00    +0.155 HD
ENDROOT
BRANCH   1  24
ATOM     19  C   UNL     1       4.197  -4.095   3.179  0.00  0.00    +0.044 C 
ATOM     20  C   UNL     1       2.827  -3.590   2.804  0.00  0.00    -0.050 A 
ATOM     21  C   UNL     1       1.818  -3.566   3.748  0.00  0.00    +0.003 A 
ATOM     22  C   UNL     1       0.561  -3.103   3.405  0.00  0.00    +0.001 A 
ATOM     23  C   UNL     1       0.315  -2.664   2.117  0.00  0.00    +0.007 A 
ATOM     24  C   UNL     1       1.324  -2.689   1.173  0.00  0.00    -0.003 A 
ATOM     25  C   UNL     1       2.579  -3.157   1.516  0.00  0.00    +0.011 A 
ENDBRANCH   1  24
BRANCH  17  26
ATOM     26  C   UNL     1       2.608  -0.070  -2.002  0.00  0.00    -0.019 A 
ATOM     27  C   UNL     1       1.714   0.382  -2.954  0.00  0.00    +0.006 A 
ATOM     28  C   UNL     1       2.019   0.268  -4.297  0.00  0.00    +0.000 A 
ATOM     29  C   UNL     1       3.214  -0.306  -4.689  0.00  0.00    +0.000 A 
ATOM     30  C   UNL     1       4.106  -0.762  -3.736  0.00  0.00    +0.000 A 
ATOM     31  C   UNL     1       3.803  -0.645  -2.393  0.00  0.00    +0.006 A 
ENDBRANCH  17  26
TORSDOF 2
