REMARK  Name = ZINC57791012
REMARK  7 active torsions:
REMARK  status: ('A' for Active; 'I' for Inactive)
REMARK    1  A    between atoms: C_1  and  C_2
REMARK    2  A    between atoms: C_9  and  C_19
REMARK    3  A    between atoms: N_13  and  C_14
REMARK    4  A    between atoms: C_14  and  C_15
REMARK    5  A    between atoms: C_15  and  C_16
REMARK    6  A    between atoms: C_15  and  C_17
REMARK    7  A    between atoms: C_15  and  N_18
REMARK                            x       y       z     vdW  Elec       q    Type
REMARK                         _______ _______ _______ _____ _____    ______ ____
ROOT
ATOM      1  C   UNL     1      -0.018   1.503   0.010  0.00  0.00    +0.044 C 
ATOM      2  C   UNL     1       0.002  -0.004   0.002  0.00  0.00    -0.047 A 
ATOM      3  C   UNL     1       0.006  -0.686  -1.201  0.00  0.00    +0.005 A 
ATOM      4  C   UNL     1       0.025  -2.069  -1.216  0.00  0.00    +0.027 A 
ATOM      5  C   UNL     1       0.041  -2.771  -0.022  0.00  0.00    +0.078 A 
ATOM      6  C   UNL     1       0.037  -2.083   1.190  0.00  0.00    +0.144 A 
ATOM      7  C   UNL     1       0.023  -0.699   1.198  0.00  0.00    +0.051 A 
ATOM      8  O   UNL     1       0.050  -2.783   2.356  0.00  0.00    -0.473 OA
ATOM      9  C   UNL     1      -0.626  -4.043   2.357  0.00  0.00    +0.289 C 
ATOM     10  C   UNL     1      -0.239  -4.826   1.128  0.00  0.00    +0.265 C 
ATOM     11  O   UNL     1      -0.198  -6.038   1.165  0.00  0.00    -0.271 OA
ATOM     12  N   UNL     1       0.062  -4.173  -0.016  0.00  0.00    -0.266 N 
ENDROOT
BRANCH   9  13
ATOM     13  C   UNL     1      -2.116  -3.814   2.356  0.00  0.00    +0.002 A 
ATOM     14  C   UNL     1      -2.660  -2.807   1.581  0.00  0.00    +0.008 A 
ATOM     15  C   UNL     1      -4.026  -2.597   1.581  0.00  0.00    +0.000 A 
ATOM     16  C   UNL     1      -4.848  -3.394   2.355  0.00  0.00    +0.000 A 
ATOM     17  C   UNL     1      -4.304  -4.402   3.129  0.00  0.00    +0.000 A 
ATOM     18  C   UNL     1      -2.938  -4.615   3.126  0.00  0.00    +0.008 A 
ENDBRANCH   9  13
BRANCH  12  19
ATOM     19  C   UNL     1       0.404  -4.917  -1.230  0.00  0.00    +0.100 C 
BRANCH  19  20
ATOM     20  C   UNL     1       1.915  -5.154  -1.274  0.00  0.00    -0.060 C 
ATOM     21  C   UNL     1       2.323  -6.063  -0.113  0.00  0.00    -0.009 C 
ATOM     22  C   UNL     1       2.288  -5.821  -2.599  0.00  0.00    -0.009 C 
BRANCH  20  23
ATOM     23  N   UNL     1       2.616  -3.868  -1.159  0.00  0.00    +0.382 N 
ATOM     24  H   UNL     1       2.370  -3.428  -0.284  0.00  0.00    -0.089 HD
ATOM     25  H   UNL     1       3.612  -4.024  -1.188  0.00  0.00    -0.089 HD
ATOM     26  H   UNL     1       2.347  -3.269  -1.924  0.00  0.00    -0.089 HD
ENDBRANCH  20  23
ENDBRANCH  19  20
ENDBRANCH  12  19
TORSDOF 4
