REMARK  Name = ZINC33403669
REMARK  7 active torsions:
REMARK  status: ('A' for Active; 'I' for Inactive)
REMARK    1  A    between atoms: C_1  and  C_2
REMARK    2  A    between atoms: C_2  and  C_3
REMARK    3  A    between atoms: C_3  and  C_4
REMARK    4  A    between atoms: C_4  and  N_5
REMARK    5  A    between atoms: C_10  and  C_22
REMARK    6  A    between atoms: C_13  and  C_18
REMARK    7  A    between atoms: C_13  and  C_19
REMARK                            x       y       z     vdW  Elec       q    Type
REMARK                         _______ _______ _______ _____ _____    ______ ____
ROOT
ATOM      1  N   UNL     1       3.667  -0.621  -3.652  0.00  0.00    -0.242 N 
ATOM      2  C   UNL     1       3.779   0.150  -2.528  0.00  0.00    +0.224 C 
ATOM      3  O   UNL     1       3.537   1.333  -2.425  0.00  0.00    -0.275 OA
ATOM      4  C   UNL     1       4.263  -0.769  -1.452  0.00  0.00    +0.077 C 
ATOM      5  C   UNL     1       3.712  -0.710  -0.038  0.00  0.00    -0.025 C 
ATOM      6  N   UNL     1       3.513  -2.132   0.374  0.00  0.00    +0.395 N 
ATOM      7  C   UNL     1       3.745  -2.995  -0.838  0.00  0.00    +0.045 C 
ATOM      8  C   UNL     1       3.494  -2.056  -1.947  0.00  0.00    +0.086 C 
ATOM      9  C   UNL     1       3.681  -1.966  -3.376  0.00  0.00    +0.225 C 
ATOM     10  O   UNL     1       3.820  -2.879  -4.161  0.00  0.00    -0.275 OA
ATOM     11  C   UNL     1       5.187  -3.506  -0.873  0.00  0.00    +0.002 C 
ATOM     12  H   UNL     1       4.229  -2.388   1.169  0.00  0.00    -0.083 HD
ATOM     13  H   UNL     1       2.487  -2.266   0.748  0.00  0.00    -0.083 HD
ENDROOT
BRANCH   5  14
ATOM     14  C   UNL     1       2.397   0.027  -0.021  0.00  0.00    -0.039 A 
ATOM     15  C   UNL     1       1.209  -0.680  -0.014  0.00  0.00    +0.023 A 
ATOM     16  C   UNL     1       0.002  -0.004   0.002  0.00  0.00    +0.043 A 
ATOM     17  C   UNL     1      -0.017   1.379   0.010  0.00  0.00    +0.041 A 
ATOM     18  C   UNL     1       1.171   2.087   0.002  0.00  0.00    +0.061 A 
ATOM     19  C   UNL     1       2.380   1.410  -0.014  0.00  0.00    +0.061 A 
ATOM     20 CL   UNL     1       3.872   2.297  -0.024  0.00  0.00    -0.082 Cl
ATOM     21 CL   UNL     1       1.149   3.823   0.011  0.00  0.00    -0.082 Cl
ATOM     22 CL   UNL     1      -1.490  -0.892   0.011  0.00  0.00    -0.083 Cl
ENDBRANCH   5  14
BRANCH   7  23
ATOM     23  C   UNL     1       2.771  -4.144  -0.878  0.00  0.00    +0.346 C 
ATOM     24  O   UNL     1       2.253  -4.461  -1.923  0.00  0.00    -0.248 OA
ATOM     25  O   UNL     1       2.478  -4.815   0.247  0.00  0.00    -0.248 OA
ENDBRANCH   7  23
BRANCH   1  26
ATOM     26  C   UNL     1       3.544  -0.071  -5.005  0.00  0.00    +0.116 C 
BRANCH  26  27
ATOM     27  C   UNL     1       4.938   0.108  -5.611  0.00  0.00    +0.019 C 
BRANCH  27  29
ATOM     28  C   UNL     1       6.203   0.862  -7.629  0.00  0.00    +0.004 C 
ATOM     29  C   UNL     1       4.810   0.682  -7.023  0.00  0.00    -0.002 C 
ENDBRANCH  27  29
ENDBRANCH  26  27
ENDBRANCH   1  26
TORSDOF 5
