REMARK  Name = ZINC03995608
REMARK  11 active torsions:
REMARK  status: ('A' for Active; 'I' for Inactive)
REMARK    1  A    between atoms: C_1  and  C_2
REMARK    2  A    between atoms: C_2  and  C_3
REMARK    3  A    between atoms: C_2  and  C_4
REMARK    4  A    between atoms: C_4  and  C_5
REMARK    5  A    between atoms: C_15  and  O_48
REMARK    6  A    between atoms: C_19  and  C_21
REMARK    7  A    between atoms: C_19  and  N_25
REMARK    8  A    between atoms: C_21  and  C_23
REMARK    9  A    between atoms: C_21  and  C_24
REMARK   10  A    between atoms: C_26  and  C_28
REMARK   11  A    between atoms: C_47  and  N_83
REMARK                            x       y       z     vdW  Elec       q    Type
REMARK                         _______ _______ _______ _____ _____    ______ ____
ROOT
ATOM      1  N   UNL     1      -5.629   3.819  -3.239  0.00  0.00    -0.279 N 
ATOM      2  C   UNL     1      -5.406   3.654  -4.558  0.00  0.00    +0.220 C 
ATOM      3  O   UNL     1      -4.473   4.218  -5.090  0.00  0.00    -0.275 OA
ATOM      4  H   UNL     1      -6.319   3.300  -2.796  0.00  0.00    +0.152 HD
ENDROOT
BRANCH   2   5
ATOM      5  C   UNL     1      -6.314   2.767  -5.371  0.00  0.00    +0.081 C 
ATOM      6  C   UNL     1      -5.830   2.728  -6.825  0.00  0.00    -0.061 C 
ATOM      7  C   UNL     1      -6.534   0.410  -7.103  0.00  0.00    -0.033 C 
ATOM      8  C   UNL     1      -7.688  -0.438  -7.657  0.00  0.00    +0.028 C 
ATOM      9  C   UNL     1      -7.611  -1.826  -7.076  0.00  0.00    -0.009 A 
ATOM     10  C   UNL     1      -6.954  -2.038  -5.793  0.00  0.00    +0.011 A 
ATOM     11  C   UNL     1      -6.337  -1.039  -5.011  0.00  0.00    -0.014 A 
ATOM     12  C   UNL     1      -5.790  -1.466  -3.823  0.00  0.00    +0.009 A 
ATOM     13  C   UNL     1      -5.866  -2.812  -3.472  0.00  0.00    +0.003 A 
ATOM     14  C   UNL     1      -6.469  -3.792  -4.251  0.00  0.00    +0.026 A 
ATOM     15  C   UNL     1      -7.036  -3.393  -5.461  0.00  0.00    +0.048 A 
ATOM     16  N   UNL     1      -7.700  -3.977  -6.498  0.00  0.00    -0.349 N 
ATOM     17  H   UNL     1      -7.908  -4.922  -6.560  0.00  0.00    +0.166 HD
ATOM     18  C   UNL     1      -8.036  -3.029  -7.453  0.00  0.00    +0.087 A 
ATOM     19 BR   UNL     1      -8.964  -3.394  -9.059  0.00  0.00    -0.031 Br
ATOM     20  C   UNL     1      -6.380   0.310  -5.609  0.00  0.00    -0.056 C 
ATOM     21  C   UNL     1      -6.280   1.367  -4.822  0.00  0.00    -0.014 C 
ATOM     22  C   UNL     1      -6.420   1.879  -9.012  0.00  0.00    -0.095 C 
ATOM     23  N   UNL     1      -6.712   1.799  -7.574  0.00  0.00    +0.383 N 
ATOM     24  H   UNL     1      -7.689   2.076  -7.418  0.00  0.00    -0.081 HD
ENDBRANCH   2   5
BRANCH   1  37
ATOM     25  C   UNL     1      -3.587   3.410   0.776  0.00  0.00    +0.167 C 
ATOM     26  C   UNL     1      -2.100   3.416   1.015  0.00  0.00    +0.237 C 
ATOM     27  O   UNL     1      -1.677   3.262   2.141  0.00  0.00    -0.274 OA
ATOM     28  N   UNL     1      -1.237   3.588   0.005  0.00  0.00    -0.290 N 
ATOM     29  C   UNL     1       0.225   3.389   0.074  0.00  0.00    +0.108 C 
ATOM     30  C   UNL     1       0.695   3.031  -1.349  0.00  0.00    +0.021 C 
ATOM     31  C   UNL     1      -0.584   3.075  -2.220  0.00  0.00    +0.031 C 
ATOM     32  C   UNL     1      -1.533   3.964  -1.384  0.00  0.00    +0.156 C 
ATOM     33  C   UNL     1      -2.979   3.690  -1.747  0.00  0.00    +0.269 C 
ATOM     34  N   UNL     1      -3.860   3.860  -0.591  0.00  0.00    -0.233 N 
ATOM     35  C   UNL     1      -4.970   4.519  -0.992  0.00  0.00    +0.271 C 
ATOM     36  O   UNL     1      -5.905   4.843  -0.290  0.00  0.00    -0.270 OA
ATOM     37  C   UNL     1      -4.831   4.781  -2.476  0.00  0.00    +0.220 C 
ATOM     38  O   UNL     1      -3.429   4.604  -2.759  0.00  0.00    -0.298 OA
BRANCH  37  39
ATOM     39  C   UNL     1      -5.264   6.211  -2.808  0.00  0.00    +0.043 C 
ATOM     40  C   UNL     1      -4.880   6.537  -4.253  0.00  0.00    +0.012 C 
ATOM     41  C   UNL     1      -6.779   6.336  -2.642  0.00  0.00    +0.012 C 
ENDBRANCH  37  39
BRANCH  33  42
ATOM     42  O   UNL     1      -3.104   2.349  -2.226  0.00  0.00    -0.348 OA
ATOM     43  H   UNL     1      -4.005   2.104  -2.478  0.00  0.00    +0.214 HD
ENDBRANCH  33  42
BRANCH  25  44
ATOM     44  C   UNL     1      -4.129   1.992   0.965  0.00  0.00    +0.035 C 
BRANCH  44  46
ATOM     45  C   UNL     1      -6.178   0.568   0.851  0.00  0.00    +0.007 C 
ATOM     46  C   UNL     1      -5.651   2.004   0.817  0.00  0.00    -0.015 C 
ATOM     47  C   UNL     1      -6.270   2.801   1.967  0.00  0.00    +0.007 C 
ENDBRANCH  44  46
ENDBRANCH  25  44
ENDBRANCH   1  37
TORSDOF 6
