REMARK  Name = ZINC09808537
REMARK  9 active torsions:
REMARK  status: ('A' for Active; 'I' for Inactive)
REMARK    1  A    between atoms: C_1  and  C_2
REMARK    2  A    between atoms: C_2  and  O_3
REMARK    3  A    between atoms: O_3  and  C_4
REMARK    4  A    between atoms: C_4  and  C_6
REMARK    5  A    between atoms: C_11  and  C_13
REMARK    6  A    between atoms: C_11  and  C_21
REMARK    7  A    between atoms: C_11  and  N_56
REMARK    8  A    between atoms: C_22  and  O_34
REMARK    9  A    between atoms: C_27  and  C_29
REMARK                            x       y       z     vdW  Elec       q    Type
REMARK                         _______ _______ _______ _____ _____    ______ ____
ROOT
ATOM      1  C   UNL     1      -8.386   0.319   0.037  0.00  0.00    +0.007 C 
ENDROOT
BRANCH   1   2
ATOM      2  C   UNL     1      -8.848  -0.182   1.381  0.00  0.00    -0.038 A 
ATOM      3  C   UNL     1      -9.012  -1.538   1.594  0.00  0.00    +0.005 A 
ATOM      4  C   UNL     1      -9.430  -1.998   2.828  0.00  0.00    +0.020 A 
ATOM      5  C   UNL     1      -9.696  -1.101   3.848  0.00  0.00    +0.042 A 
ATOM      6  C   UNL     1      -9.537   0.256   3.633  0.00  0.00    +0.040 A 
ATOM      7  C   UNL     1      -9.113   0.716   2.400  0.00  0.00    +0.044 A 
ATOM      8 CL   UNL     1      -8.913   2.419   2.130  0.00  0.00    -0.083 Cl
ATOM      9 CL   UNL     1     -10.228  -1.679   5.396  0.00  0.00    -0.083 Cl
ENDBRANCH   1   2
BRANCH   1  10
ATOM     10  C   UNL     1      -6.885   0.455   0.040  0.00  0.00    +0.045 A 
ATOM     11  C   UNL     1      -6.138   1.564   0.018  0.00  0.00    +0.225 A 
ATOM     12  N   UNL     1      -4.766   1.487   0.027  0.00  0.00    -0.173 N 
ATOM     13  C   UNL     1      -4.213   0.236   0.056  0.00  0.00    +0.199 A 
ATOM     14  S   UNL     1      -5.638  -0.825   0.073  0.00  0.00    -0.050 S 
ATOM     15  N   UNL     1      -2.913   0.330   0.055  0.00  0.00    -0.197 NA
ATOM     16  C   UNL     1      -2.562   1.623   0.033  0.00  0.00    +0.218 A 
ATOM     17  N   UNL     1      -3.650   2.362   0.012  0.00  0.00    -0.138 NA
BRANCH  16  18
ATOM     18  C   UNL     1      -1.176   2.136   0.028  0.00  0.00    +0.173 A 
ATOM     19  C   UNL     1      -0.046   1.380   0.049  0.00  0.00    +0.053 A 
ATOM     20  C   UNL     1       1.042   2.276   0.027  0.00  0.00    +0.042 A 
ATOM     21  C   UNL     1       0.527   3.521   0.000  0.00  0.00    +0.196 A 
ATOM     22  O   UNL     1      -0.813   3.433   0.004  0.00  0.00    -0.460 OA
ENDBRANCH  16  18
BRANCH  11  23
ATOM     23  O   UNL     1      -6.742   2.783  -0.010  0.00  0.00    -0.492 OA
ATOM     24  H   UNL     1      -6.913   3.116  -0.902  0.00  0.00    +0.294 HD
ENDBRANCH  11  23
ENDBRANCH   1  10
BRANCH   1  30
ATOM     25  C   UNL     1     -10.016  -1.501  -3.472  0.00  0.00    +0.094 C 
ATOM     26  C   UNL     1     -10.637  -1.807  -2.106  0.00  0.00    -0.004 C 
ATOM     27  C   UNL     1     -10.252  -0.704  -1.117  0.00  0.00    -0.077 C 
ATOM     28  C   UNL     1      -8.174  -0.294  -2.296  0.00  0.00    -0.077 C 
ATOM     29  C   UNL     1      -8.497  -1.385  -3.319  0.00  0.00    -0.004 C 
ATOM     30  N   UNL     1      -8.778  -0.660  -0.997  0.00  0.00    +0.388 N 
ATOM     31  H   UNL     1      -8.439  -1.590  -0.722  0.00  0.00    -0.080 HD
BRANCH  25  32
ATOM     32  C   UNL     1     -10.344  -2.613  -4.434  0.00  0.00    +0.310 C 
ATOM     33  O   UNL     1     -11.005  -3.555  -4.067  0.00  0.00    -0.251 OA
BRANCH  32  34
ATOM     34  O   UNL     1      -9.900  -2.557  -5.700  0.00  0.00    -0.465 OA
BRANCH  34  36
ATOM     35  C   UNL     1      -9.664  -3.425  -7.963  0.00  0.00    +0.048 C 
ATOM     36  C   UNL     1     -10.254  -3.664  -6.572  0.00  0.00    +0.229 C 
ENDBRANCH  34  36
ENDBRANCH  32  34
ENDBRANCH  25  32
ENDBRANCH   1  30
TORSDOF 8
