REMARK  Name = ZINC22112911
REMARK  12 active torsions:
REMARK  status: ('A' for Active; 'I' for Inactive)
REMARK    1  A    between atoms: C_1  and  C_2
REMARK    2  A    between atoms: C_3  and  C_33
REMARK    3  A    between atoms: C_4  and  C_32
REMARK    4  A    between atoms: C_7  and  C_8
REMARK    5  A    between atoms: C_8  and  C_10
REMARK    6  A    between atoms: C_10  and  O_11
REMARK    7  A    between atoms: O_11  and  C_12
REMARK    8  A    between atoms: C_12  and  C_14
REMARK    9  A    between atoms: C_18  and  S_20
REMARK   10  A    between atoms: S_20  and  N_23
REMARK   11  A    between atoms: C_33  and  O_35
REMARK   12  A    between atoms: O_35  and  C_36
REMARK                            x       y       z     vdW  Elec       q    Type
REMARK                         _______ _______ _______ _____ _____    ______ ____
ROOT
ATOM      1  C   UNL     1      -0.164   1.193   2.388  0.00  0.00    +0.340 C 
ATOM      2  O   UNL     1       0.837   0.505   2.423  0.00  0.00    -0.245 OA
ENDROOT
BRANCH   1   3
ATOM      3  C   UNL     1      -0.802   1.633   3.646  0.00  0.00    +0.061 A 
ATOM      4  C   UNL     1      -1.950   2.428   3.609  0.00  0.00    +0.015 A 
ATOM      5  C   UNL     1      -2.543   2.830   4.787  0.00  0.00    +0.003 A 
ATOM      6  C   UNL     1      -1.998   2.457   6.003  0.00  0.00    +0.029 A 
ATOM      7  C   UNL     1      -0.859   1.674   6.047  0.00  0.00    +0.109 A 
ATOM      8  C   UNL     1      -0.258   1.260   4.876  0.00  0.00    +0.043 A 
BRANCH   7   9
ATOM      9  S   UNL     1      -0.173   1.205   7.601  0.00  0.00    +0.075 S 
ATOM     10  O   UNL     1      -1.232   1.265   8.546  0.00  0.00    -0.150 OA
ATOM     11  O   UNL     1       0.578   0.020   7.372  0.00  0.00    -0.150 OA
BRANCH   9  12
ATOM     12  N   UNL     1       0.913   2.378   8.031  0.00  0.00    -0.202 N 
ATOM     13  C   UNL     1       0.591   3.574   8.815  0.00  0.00    +0.136 C 
ATOM     14  C   UNL     1       1.918   4.339   8.947  0.00  0.00    +0.058 C 
ATOM     15  C   UNL     1       2.922   3.489   8.201  0.00  0.00    -0.023 A 
ATOM     16  C   UNL     1       2.270   2.371   7.704  0.00  0.00    +0.054 A 
ATOM     17  C   UNL     1       3.000   1.427   6.978  0.00  0.00    +0.025 A 
ATOM     18  C   UNL     1       4.350   1.608   6.764  0.00  0.00    +0.002 A 
ATOM     19  C   UNL     1       4.992   2.725   7.266  0.00  0.00    +0.000 A 
ATOM     20  C   UNL     1       4.274   3.668   7.979  0.00  0.00    +0.005 A 
ENDBRANCH   9  12
ENDBRANCH   7   9
ENDBRANCH   1   3
BRANCH   1  21
ATOM     21  O   UNL     1      -0.692   1.554   1.203  0.00  0.00    -0.453 OA
BRANCH  21  22
ATOM     22  C   UNL     1      -0.013   1.086   0.008  0.00  0.00    +0.313 C 
BRANCH  22  23
ATOM     23  C   UNL     1      -0.742   1.585  -1.213  0.00  0.00    +0.217 C 
ATOM     24  O   UNL     1      -1.737   2.269  -1.088  0.00  0.00    -0.287 OA
BRANCH  23  31
ATOM     25  C   UNL     1      -2.074   2.482  -3.875  0.00  0.00    +0.047 C 
ATOM     26  C   UNL     1      -0.836   1.640  -3.700  0.00  0.00    -0.008 A 
ATOM     27  C   UNL     1      -0.036   1.096  -4.727  0.00  0.00    +0.083 A 
ATOM     28  C   UNL     1       0.989   0.393  -4.119  0.00  0.00    +0.028 A 
ATOM     29  N   UNL     1       0.847   0.491  -2.789  0.00  0.00    -0.355 N 
ATOM     30  H   UNL     1       1.568  -0.003  -2.121  0.00  0.00    +0.166 HD
ATOM     31  C   UNL     1      -0.266   1.257  -2.505  0.00  0.00    +0.090 A 
ATOM     32  C   UNL     1       2.082  -0.360  -4.832  0.00  0.00    +0.064 C 
BRANCH  27  33
ATOM     33  C   UNL     1      -0.254   1.245  -6.176  0.00  0.00    +0.341 C 
ATOM     34  O   UNL     1      -0.940   0.438  -6.773  0.00  0.00    -0.245 OA
BRANCH  33  35
ATOM     35  O   UNL     1       0.307   2.274  -6.840  0.00  0.00    -0.464 OA
ATOM     36  C   UNL     1       0.049   2.358  -8.267  0.00  0.00    +0.280 C 
ENDBRANCH  33  35
ENDBRANCH  27  33
ENDBRANCH  23  31
ENDBRANCH  22  23
ENDBRANCH  21  22
ENDBRANCH   1  21
TORSDOF 9
