REMARK  Name = ZINC06149471
REMARK  14 active torsions:
REMARK  status: ('A' for Active; 'I' for Inactive)
REMARK    1  A    between atoms: C_1  and  C_2
REMARK    2  A    between atoms: C_2  and  C_3
REMARK    3  A    between atoms: C_3  and  C_4
REMARK    4  A    between atoms: C_3  and  C_5
REMARK    5  A    between atoms: C_3  and  N_6
REMARK    6  A    between atoms: C_7  and  C_11
REMARK    7  A    between atoms: C_11  and  C_13
REMARK    8  A    between atoms: C_11  and  N_71
REMARK    9  A    between atoms: C_17  and  O_25
REMARK   10  A    between atoms: O_25  and  C_26
REMARK   11  A    between atoms: C_27  and  C_28
REMARK   12  A    between atoms: C_27  and  N_71
REMARK   13  A    between atoms: C_33  and  C_34
REMARK   14  A    between atoms: C_33  and  N_71
REMARK                            x       y       z     vdW  Elec       q    Type
REMARK                         _______ _______ _______ _____ _____    ______ ____
ROOT
ATOM      1  C   UNL     1       4.840  -2.781  -0.187  0.00  0.00    +0.039 C 
ENDROOT
BRANCH   1   2
ATOM      2  C   UNL     1       3.420  -2.287  -0.296  0.00  0.00    +0.011 A 
ATOM      3  C   UNL     1       3.129  -0.997   0.004  0.00  0.00    +0.017 A 
ATOM      4  C   UNL     1       1.740  -0.548  -0.112  0.00  0.00    +0.002 A 
ATOM      5  C   UNL     1       1.381   0.771   0.184  0.00  0.00    +0.055 A 
ATOM      6  C   UNL     1       0.063   1.162   0.064  0.00  0.00    +0.121 A 
ATOM      7  C   UNL     1      -0.906   0.250  -0.350  0.00  0.00    +0.047 A 
ATOM      8  C   UNL     1      -0.565  -1.052  -0.644  0.00  0.00    +0.030 A 
ATOM      9  C   UNL     1       0.758  -1.466  -0.530  0.00  0.00    +0.049 A 
ATOM     10  N   UNL     1       1.121  -2.765  -0.821  0.00  0.00    -0.322 N 
ATOM     11  H   UNL     1       0.423  -3.417  -1.117  0.00  0.00    +0.169 HD
ATOM     12  C   UNL     1       2.399  -3.168  -0.711  0.00  0.00    +0.251 A 
ATOM     13  O   UNL     1       2.683  -4.324  -0.976  0.00  0.00    -0.268 OA
BRANCH   6  14
ATOM     14  O   UNL     1      -0.293   2.442   0.350  0.00  0.00    -0.495 OA
ATOM     15  C   UNL     1      -1.673   2.781   0.205  0.00  0.00    +0.277 C 
ENDBRANCH   6  14
ENDBRANCH   1   2
BRANCH   1  17
ATOM     16  N   UNL     1       5.545  -3.698   2.086  0.00  0.00    -0.225 N 
ATOM     17  C   UNL     1       4.927  -3.824   0.897  0.00  0.00    +0.143 A 
ATOM     18  N   UNL     1       4.421  -5.032   0.863  0.00  0.00    -0.115 NA
ATOM     19  N   UNL     1       4.708  -5.616   1.975  0.00  0.00    -0.023 NA
ATOM     20  N   UNL     1       5.384  -4.811   2.718  0.00  0.00    -0.043 NA
BRANCH  16  21
ATOM     21  C   UNL     1       6.261  -2.517   2.573  0.00  0.00    +0.061 C 
ATOM     22  C   UNL     1       7.474  -2.251   1.679  0.00  0.00    +0.036 C 
ATOM     23  C   UNL     1       5.328  -1.304   2.541  0.00  0.00    +0.036 C 
BRANCH  21  25
ATOM     24  C   UNL     1       7.479  -1.527   4.518  0.00  0.00    +0.006 C 
ATOM     25  C   UNL     1       6.731  -2.761   4.009  0.00  0.00    +0.026 C 
ENDBRANCH  21  25
ENDBRANCH  16  21
ENDBRANCH   1  17
BRANCH   1  26
ATOM     26  N   UNL     1       5.239  -3.395  -1.471  0.00  0.00    +0.396 N 
ATOM     27  H   UNL     1       4.741  -4.285  -1.584  0.00  0.00    -0.080 HD
BRANCH  26  28
ATOM     28  C   UNL     1       4.882  -2.499  -2.591  0.00  0.00    -0.002 C 
BRANCH  28  29
ATOM     29  C   UNL     1       4.971  -3.276  -3.880  0.00  0.00    +0.089 A 
ATOM     30  C   UNL     1       3.954  -3.919  -4.482  0.00  0.00    +0.042 A 
ATOM     31  C   UNL     1       4.479  -4.509  -5.654  0.00  0.00    +0.041 A 
ATOM     32  C   UNL     1       5.786  -4.192  -5.698  0.00  0.00    +0.195 A 
ATOM     33  O   UNL     1       6.077  -3.441  -4.624  0.00  0.00    -0.470 OA
ENDBRANCH  28  29
ENDBRANCH  26  28
BRANCH  26  34
ATOM     34  C   UNL     1       6.694  -3.655  -1.476  0.00  0.00    -0.045 C 
BRANCH  34  35
ATOM     35  C   UNL     1       6.964  -4.941  -0.693  0.00  0.00    +0.102 C 
ATOM     36  C   UNL     1       8.464  -5.305  -0.757  0.00  0.00    +0.032 C 
ATOM     37  C   UNL     1       8.473  -6.847  -0.851  0.00  0.00    +0.030 C 
ATOM     38  C   UNL     1       6.977  -7.233  -0.833  0.00  0.00    +0.160 C 
ATOM     39  O   UNL     1       6.287  -6.057  -1.311  0.00  0.00    -0.378 OA
ENDBRANCH  34  35
ENDBRANCH  26  34
ENDBRANCH   1  26
TORSDOF 10
