REMARK  Name = ZINC20206095
REMARK  9 active torsions:
REMARK  status: ('A' for Active; 'I' for Inactive)
REMARK    1  A    between atoms: C_1  and  C_2
REMARK    2  A    between atoms: C_7  and  O_8
REMARK    3  A    between atoms: O_8  and  C_9
REMARK    4  A    between atoms: C_9  and  C_10
REMARK    5  A    between atoms: C_10  and  C_11
REMARK    6  A    between atoms: C_11  and  N_12
REMARK    7  A    between atoms: C_14  and  C_21
REMARK    8  A    between atoms: C_32  and  S_33
REMARK    9  A    between atoms: S_33  and  C_36
REMARK                            x       y       z     vdW  Elec       q    Type
REMARK                         _______ _______ _______ _____ _____    ______ ____
ROOT
ATOM      1  N   UNL     1       0.056   0.474   6.747  0.00  0.00    -0.346 N 
ATOM      2  C   UNL     1       1.075   0.916   7.511  0.00  0.00    +0.094 A 
ATOM      3  C   UNL     1       0.576   1.461   8.678  0.00  0.00    +0.001 A 
ATOM      4  C   UNL     1      -0.893   1.328   8.598  0.00  0.00    +0.007 A 
ATOM      5  C   UNL     1      -1.156   0.709   7.366  0.00  0.00    +0.050 A 
ATOM      6  C   UNL     1      -2.473   0.453   7.000  0.00  0.00    +0.026 A 
ATOM      7  C   UNL     1      -3.503   0.809   7.843  0.00  0.00    +0.002 A 
ATOM      8  C   UNL     1      -3.241   1.424   9.058  0.00  0.00    +0.001 A 
ATOM      9  C   UNL     1      -1.942   1.678   9.443  0.00  0.00    +0.010 A 
ENDROOT
BRANCH   3  10
ATOM     10  C   UNL     1       1.320   2.031   9.736  0.00  0.00    +0.026 C 
ATOM     11  C   UNL     1       2.521   1.462  10.121  0.00  0.00    +0.078 C 
ATOM     12  C   UNL     1       3.424   2.123  11.104  0.00  0.00    +0.117 C 
ATOM     13  N   UNL     1       2.994   2.862  12.092  0.00  0.00    -0.386 N 
ATOM     14  N   UNL     1       4.789   1.871  10.860  0.00  0.00    -0.203 N 
ATOM     15  C   UNL     1       5.130   0.743  10.143  0.00  0.00    +0.183 C 
ATOM     16  N   UNL     1       4.302  -0.095   9.562  0.00  0.00    -0.152 NA
ATOM     17  C   UNL     1       2.977   0.160   9.582  0.00  0.00    +0.273 C 
ATOM     18  O   UNL     1       2.174  -0.659   9.165  0.00  0.00    -0.268 OA
ATOM     19  S   UNL     1       6.796   0.747  10.197  0.00  0.00    +0.049 S 
ATOM     20  N   UNL     1       7.039   2.193  11.009  0.00  0.00    -0.174 NA
ATOM     21  C   UNL     1       5.841   2.621  11.264  0.00  0.00    +0.257 C 
ATOM     22  H   UNL     1       2.052   3.083  12.158  0.00  0.00    +0.157 HD
ATOM     23  H   UNL     1       3.617   3.189  12.760  0.00  0.00    +0.157 HD
BRANCH  21  24
ATOM     24  S   UNL     1       5.590   4.142  12.117  0.00  0.00    +0.026 S 
ATOM     25  O   UNL     1       6.799   4.865  11.932  0.00  0.00    -0.167 OA
ATOM     26  O   UNL     1       4.361   4.644  11.609  0.00  0.00    -0.167 OA
ATOM     27  C   UNL     1       5.401   3.674  13.859  0.00  0.00    +0.203 C 
ENDBRANCH  21  24
ENDBRANCH   3  10
BRANCH   1  28
ATOM     28  C   UNL     1       0.213  -0.163   5.438  0.00  0.00    +0.125 C 
BRANCH  28  29
ATOM     29  C   UNL     1       0.068   0.891   4.337  0.00  0.00    +0.062 C 
BRANCH  29  30
ATOM     30  C   UNL     1       0.232   0.225   2.970  0.00  0.00    +0.231 C 
BRANCH  30  31
ATOM     31  O   UNL     1       0.096   1.209   1.942  0.00  0.00    -0.492 OA
BRANCH  31  38
ATOM     32  C   UNL     1      -0.168   3.138  -0.104  0.00  0.00    +0.047 C 
ATOM     33  C   UNL     1       0.096   1.682  -0.389  0.00  0.00    -0.009 A 
ATOM     34  C   UNL     1       0.224   1.245  -1.694  0.00  0.00    +0.007 A 
ATOM     35  C   UNL     1       0.465  -0.091  -1.956  0.00  0.00    +0.000 A 
ATOM     36  C   UNL     1       0.580  -0.993  -0.914  0.00  0.00    +0.004 A 
ATOM     37  C   UNL     1       0.453  -0.560   0.392  0.00  0.00    +0.046 A 
ATOM     38  C   UNL     1       0.216   0.780   0.658  0.00  0.00    +0.123 A 
ENDBRANCH  31  38
ENDBRANCH  30  31
ENDBRANCH  29  30
ENDBRANCH  28  29
ENDBRANCH   1  28
TORSDOF 7
