REMARK  Name = ZINC12469608
REMARK  10 active torsions:
REMARK  status: ('A' for Active; 'I' for Inactive)
REMARK    1  A    between atoms: C_1  and  C_2
REMARK    2  A    between atoms: C_4  and  N_31
REMARK    3  A    between atoms: C_7  and  N_8
REMARK    4  A    between atoms: C_9  and  C_11
REMARK    5  A    between atoms: C_11  and  S_12
REMARK    6  A    between atoms: S_12  and  C_13
REMARK    7  A    between atoms: C_23  and  C_27
REMARK    8  A    between atoms: C_27  and  C_28
REMARK    9  A    between atoms: C_27  and  C_29
REMARK   10  A    between atoms: C_27  and  C_30
REMARK                            x       y       z     vdW  Elec       q    Type
REMARK                         _______ _______ _______ _____ _____    ______ ____
ROOT
ATOM      1  C   UNL     1       0.278  -0.069  -2.905  0.00  0.00    +0.109 A 
ATOM      2  C   UNL     1      -0.560   1.029  -2.552  0.00  0.00    +0.043 A 
ATOM      3  C   UNL     1      -0.732   1.614  -1.233  0.00  0.00    -0.025 A 
ATOM      4  C   UNL     1      -1.587   2.658  -1.138  0.00  0.00    -0.004 A 
ATOM      5  S   UNL     1      -2.200   2.911  -2.785  0.00  0.00    -0.073 S 
ATOM      6  C   UNL     1      -1.312   1.621  -3.598  0.00  0.00    +0.113 A 
ATOM      7  N   UNL     1      -1.266   1.206  -4.848  0.00  0.00    -0.228 NA
ATOM      8  C   UNL     1      -0.466   0.180  -5.109  0.00  0.00    +0.223 A 
ATOM      9  N   UNL     1       0.263  -0.421  -4.190  0.00  0.00    -0.229 NA
ATOM     10  C   UNL     1      -1.938   3.434   0.093  0.00  0.00    +0.046 C 
ATOM     11  C   UNL     1      -0.904   3.114   1.182  0.00  0.00    -0.000 C 
ATOM     12  C   UNL     1      -0.722   1.594   1.255  0.00  0.00    +0.009 C 
ATOM     13  C   UNL     1       0.002   1.099   0.003  0.00  0.00    +0.037 C 
ENDROOT
BRANCH  11  14
ATOM     14  C   UNL     1      -1.402   3.636   2.532  0.00  0.00    -0.035 C 
ATOM     15  C   UNL     1      -2.732   2.964   2.880  0.00  0.00    +0.011 C 
ATOM     16  C   UNL     1      -0.370   3.314   3.615  0.00  0.00    +0.011 C 
ATOM     17  C   UNL     1      -1.601   5.151   2.451  0.00  0.00    +0.011 C 
ENDBRANCH  11  14
BRANCH   1  18
ATOM     18  S   UNL     1       1.271  -0.908  -1.716  0.00  0.00    -0.096 S 
BRANCH  18  19
ATOM     19  C   UNL     1       2.055  -2.146  -2.779  0.00  0.00    +0.171 C 
BRANCH  19  21
ATOM     20  N   UNL     1       3.673  -4.001  -2.537  0.00  0.00    -0.285 N 
ATOM     21  C   UNL     1       2.977  -3.005  -1.953  0.00  0.00    +0.227 C 
ATOM     22  O   UNL     1       3.094  -2.801  -0.763  0.00  0.00    -0.275 OA
ATOM     23  H   UNL     1       3.521  -4.216  -3.471  0.00  0.00    +0.155 HD
BRANCH  20  30
ATOM     24  C   UNL     1       4.294  -6.649  -3.373  0.00  0.00    +0.046 C 
ATOM     25  C   UNL     1       4.947  -6.020  -2.170  0.00  0.00    -0.027 A 
ATOM     26  C   UNL     1       5.881  -6.729  -1.439  0.00  0.00    +0.038 A 
ATOM     27  C   UNL     1       6.477  -6.154  -0.332  0.00  0.00    +0.127 A 
ATOM     28  C   UNL     1       6.144  -4.865   0.044  0.00  0.00    +0.034 A 
ATOM     29  C   UNL     1       5.215  -4.149  -0.684  0.00  0.00    +0.026 A 
ATOM     30  C   UNL     1       4.615  -4.724  -1.797  0.00  0.00    +0.036 A 
BRANCH  27  31
ATOM     31  N   UNL     1       7.473  -6.919   0.451  0.00  0.00    +0.056 N 
ATOM     32  O   UNL     1       7.998  -6.413   1.427  0.00  0.00    -0.126 OA
ATOM     33  O   UNL     1       7.766  -8.054   0.121  0.00  0.00    -0.126 OA
ENDBRANCH  27  31
ENDBRANCH  20  30
ENDBRANCH  19  21
ENDBRANCH  18  19
ENDBRANCH   1  18
TORSDOF 6
