REMARK  Name = ZINC37129759
REMARK  4 active torsions:
REMARK  status: ('A' for Active; 'I' for Inactive)
REMARK    1  A    between atoms: C_1  and  C_2
REMARK    2  A    between atoms: C_7  and  C_24
REMARK    3  A    between atoms: C_9  and  N_10
REMARK    4  A    between atoms: N_10  and  C_11
REMARK                            x       y       z     vdW  Elec       q    Type
REMARK                         _______ _______ _______ _____ _____    ______ ____
ROOT
ATOM      1  C   UNL     1       3.035  -0.670   0.391  0.00  0.00    +0.044 A 
ATOM      2  C   UNL     1       2.636  -1.679  -0.473  0.00  0.00    +0.051 A 
ATOM      3  C   UNL     1       3.573  -2.306  -1.279  0.00  0.00    +0.069 A 
ATOM      4  C   UNL     1       4.914  -1.921  -1.219  0.00  0.00    +0.068 A 
ATOM      5  C   UNL     1       5.307  -0.912  -0.353  0.00  0.00    +0.045 A 
ATOM      6  C   UNL     1       4.370  -0.284   0.445  0.00  0.00    +0.041 A 
ATOM      7 BR   UNL     1       4.906   1.097   1.620  0.00  0.00    -0.048 Br
ATOM      8  N   UNL     1       5.604  -2.720  -2.131  0.00  0.00    -0.306 N 
ATOM      9  H   UNL     1       6.556  -2.683  -2.312  0.00  0.00    +0.170 HD
ATOM     10  C   UNL     1       4.722  -3.551  -2.717  0.00  0.00    +0.325 A 
ATOM     11  O   UNL     1       4.997  -4.380  -3.565  0.00  0.00    -0.247 OA
ATOM     12  N   UNL     1       3.489  -3.326  -2.225  0.00  0.00    -0.306 N 
ATOM     13  H   UNL     1       2.680  -3.794  -2.484  0.00  0.00    +0.170 HD
ENDROOT
BRANCH   1  14
ATOM     14  N   UNL     1       2.091  -0.034   1.206  0.00  0.00    -0.340 N 
ATOM     15  H   UNL     1       2.353   0.725   1.750  0.00  0.00    +0.146 HD
BRANCH  14  22
ATOM     16  C   UNL     1      -0.069   1.664   0.290  0.00  0.00    +0.009 C 
ATOM     17  C   UNL     1      -0.086   0.145   0.106  0.00  0.00    +0.006 C 
ATOM     18  C   UNL     1      -1.531  -0.356   0.137  0.00  0.00    +0.005 C 
ATOM     19  C   UNL     1      -2.166   0.001   1.483  0.00  0.00    +0.001 C 
ATOM     20  C   UNL     1      -1.372  -0.659   2.612  0.00  0.00    +0.005 C 
ATOM     21  C   UNL     1       0.073  -0.157   2.581  0.00  0.00    +0.006 C 
ATOM     22  C   UNL     1       0.708  -0.514   1.236  0.00  0.00    +0.076 C 
ATOM     23  C   UNL     1       0.866  -0.817   3.711  0.00  0.00    +0.009 C 
ENDBRANCH  14  22
ENDBRANCH   1  14
TORSDOF 2
