REMARK  Name = ZINC09299011
REMARK  12 active torsions:
REMARK  status: ('A' for Active; 'I' for Inactive)
REMARK    1  A    between atoms: C_1  and  C_2
REMARK    2  A    between atoms: C_2  and  C_3
REMARK    3  A    between atoms: C_3  and  N_4
REMARK    4  A    between atoms: C_8  and  C_35
REMARK    5  A    between atoms: N_13  and  C_14
REMARK    6  A    between atoms: C_14  and  C_16
REMARK    7  A    between atoms: C_19  and  S_22
REMARK    8  A    between atoms: S_22  and  N_25
REMARK    9  A    between atoms: C_27  and  C_34
REMARK   10  A    between atoms: C_30  and  C_33
REMARK   11  A    between atoms: C_35  and  C_36
REMARK   12  A    between atoms: C_35  and  C_37
REMARK                            x       y       z     vdW  Elec       q    Type
REMARK                         _______ _______ _______ _____ _____    ______ ____
ROOT
ATOM      1  C   UNL     1       2.571   3.877  -0.075  0.00  0.00    +0.269 C 
ATOM      2  O   UNL     1       3.533   3.128  -0.071  0.00  0.00    -0.268 OA
ENDROOT
BRANCH   1  12
ATOM      3  N   UNL     1      -0.022   1.369   0.024  0.00  0.00    -0.321 N 
ATOM      4  C   UNL     1      -0.013  -0.013   0.058  0.00  0.00    +0.058 A 
ATOM      5  C   UNL     1      -1.108  -0.890   0.096  0.00  0.00    +0.027 A 
ATOM      6  C   UNL     1      -0.918  -2.251   0.125  0.00  0.00    +0.006 A 
ATOM      7  C   UNL     1       0.355  -2.799   0.120  0.00  0.00    -0.044 A 
ATOM      8  C   UNL     1       1.452  -1.957   0.083  0.00  0.00    +0.021 A 
ATOM      9  C   UNL     1       1.263  -0.596   0.053  0.00  0.00    +0.039 A 
ATOM     10  S   UNL     1       2.351   0.806   0.003  0.00  0.00    -0.052 S 
ATOM     11  C   UNL     1       1.151   2.058  -0.010  0.00  0.00    +0.167 A 
ATOM     12  N   UNL     1       1.333   3.374  -0.045  0.00  0.00    -0.152 NA
BRANCH   7  13
ATOM     13  C   UNL     1       0.541  -4.294   0.153  0.00  0.00    +0.013 C 
ATOM     14  C   UNL     1      -0.092  -4.859   1.426  0.00  0.00    +0.012 C 
ATOM     15  C   UNL     1      -0.130  -4.919  -1.072  0.00  0.00    +0.012 C 
ENDBRANCH   7  13
BRANCH   3  16
ATOM     16  C   UNL     1      -1.296   2.092   0.019  0.00  0.00    +0.124 C 
BRANCH  16  18
ATOM     17  C   UNL     1      -2.526   4.050   0.967  0.00  0.00    +0.005 C 
ATOM     18  C   UNL     1      -1.161   3.368   0.853  0.00  0.00    +0.018 C 
ENDBRANCH  16  18
ENDBRANCH   3  16
ENDBRANCH   1  12
BRANCH   1  19
ATOM     19  C   UNL     1       2.774   5.343  -0.114  0.00  0.00    +0.039 A 
ATOM     20  C   UNL     1       1.675   6.202  -0.125  0.00  0.00    +0.015 A 
ATOM     21  C   UNL     1       1.871   7.568  -0.155  0.00  0.00    +0.029 A 
ATOM     22  C   UNL     1       3.153   8.085  -0.187  0.00  0.00    +0.106 A 
ATOM     23  C   UNL     1       4.247   7.238  -0.182  0.00  0.00    +0.029 A 
ATOM     24  C   UNL     1       4.065   5.871  -0.146  0.00  0.00    +0.015 A 
BRANCH  22  25
ATOM     25  S   UNL     1       3.395   9.830  -0.234  0.00  0.00    +0.061 S 
ATOM     26  O   UNL     1       2.225  10.417   0.319  0.00  0.00    -0.153 OA
ATOM     27  O   UNL     1       4.692  10.075   0.292  0.00  0.00    -0.153 OA
BRANCH  25  28
ATOM     28  N   UNL     1       3.439  10.275  -1.829  0.00  0.00    -0.172 NA
ATOM     29  C   UNL     1       4.709  10.312  -2.570  0.00  0.00    +0.140 C 
ATOM     30  C   UNL     1       4.524   9.525  -3.877  0.00  0.00    +0.131 C 
ATOM     31  O   UNL     1       3.374  10.022  -4.565  0.00  0.00    -0.371 OA
ATOM     32  C   UNL     1       2.147   9.854  -3.851  0.00  0.00    +0.131 C 
ATOM     33  C   UNL     1       2.209  10.652  -2.544  0.00  0.00    +0.140 C 
ATOM     34  C   UNL     1       1.939   8.371  -3.535  0.00  0.00    +0.039 C 
ATOM     35  C   UNL     1       5.763   9.702  -4.758  0.00  0.00    +0.039 C 
ENDBRANCH  25  28
ENDBRANCH  22  25
ENDBRANCH   1  19
TORSDOF 7
