REMARK  Name = ZINC59350328
REMARK  10 active torsions:
REMARK  status: ('A' for Active; 'I' for Inactive)
REMARK    1  A    between atoms: C_1  and  C_2
REMARK    2  A    between atoms: C_2  and  C_3
REMARK    3  A    between atoms: C_3  and  N_4
REMARK    4  A    between atoms: N_4  and  C_5
REMARK    5  A    between atoms: N_4  and  C_17
REMARK    6  A    between atoms: C_5  and  C_6
REMARK    7  A    between atoms: N_8  and  C_9
REMARK    8  A    between atoms: C_10  and  C_14
REMARK    9  A    between atoms: C_17  and  C_19
REMARK   10  A    between atoms: C_17  and  C_20
REMARK                            x       y       z     vdW  Elec       q    Type
REMARK                         _______ _______ _______ _____ _____    ______ ____
ROOT
ATOM      1  N   UNL     1       0.648  -2.197  -1.041  0.00  0.00    +0.390 N 
ATOM      2  H   UNL     1       0.830  -2.616  -0.141  0.00  0.00    -0.080 HD
ENDROOT
BRANCH   1   3
ATOM      3  C   UNL     1      -0.769  -2.375  -1.385  0.00  0.00    -0.040 C 
ATOM      4  C   UNL     1      -1.640  -1.679  -0.337  0.00  0.00    -0.008 C 
BRANCH   3   5
ATOM      5  C   UNL     1      -1.099  -3.845  -1.415  0.00  0.00    -0.060 A 
ATOM      6  C   UNL     1      -0.571  -4.691  -0.457  0.00  0.00    +0.003 A 
ATOM      7  C   UNL     1      -0.872  -6.040  -0.483  0.00  0.00    +0.021 A 
ATOM      8  C   UNL     1      -1.702  -6.544  -1.468  0.00  0.00    +0.059 A 
ATOM      9  C   UNL     1      -2.230  -5.697  -2.427  0.00  0.00    +0.059 A 
ATOM     10  C   UNL     1      -1.932  -4.347  -2.396  0.00  0.00    +0.023 A 
ATOM     11 CL   UNL     1      -3.271  -6.329  -3.665  0.00  0.00    -0.082 Cl
ATOM     12 CL   UNL     1      -2.079  -8.238  -1.502  0.00  0.00    -0.082 Cl
ENDBRANCH   3   5
ENDBRANCH   1   3
BRANCH   1  13
ATOM     13  C   UNL     1       0.963  -0.764  -0.987  0.00  0.00    -0.078 C 
BRANCH  13  15
ATOM     14  C   UNL     1       0.941   1.379  -2.272  0.00  0.00    +0.002 C 
ATOM     15  C   UNL     1       0.576  -0.106  -2.313  0.00  0.00    -0.022 C 
ENDBRANCH  13  15
ENDBRANCH   1  13
BRANCH   1  16
ATOM     16  C   UNL     1       1.484  -2.845  -2.060  0.00  0.00    +0.020 C 
BRANCH  16  17
ATOM     17  C   UNL     1       2.931  -2.769  -1.645  0.00  0.00    +0.201 C 
ATOM     18  O   UNL     1       3.235  -2.230  -0.603  0.00  0.00    -0.278 OA
ATOM     19  N   UNL     1       3.886  -3.302  -2.433  0.00  0.00    -0.281 N 
ATOM     20  H   UNL     1       3.643  -3.733  -3.267  0.00  0.00    +0.155 HD
BRANCH  19  21
ATOM     21  C   UNL     1       5.218  -3.232  -2.050  0.00  0.00    +0.084 A 
ATOM     22  C   UNL     1       6.326  -3.715  -2.730  0.00  0.00    +0.065 A 
ATOM     23  C   UNL     1       7.611  -3.508  -2.102  0.00  0.00    +0.022 A 
ATOM     24  C   UNL     1       7.588  -2.865  -0.919  0.00  0.00    +0.048 A 
ATOM     25  S   UNL     1       5.858  -2.539  -0.663  0.00  0.00    -0.081 S 
BRANCH  22  26
ATOM     26  C   UNL     1       6.201  -4.402  -4.020  0.00  0.00    +0.244 C 
ATOM     27  O   UNL     1       5.103  -4.560  -4.521  0.00  0.00    -0.270 OA
ATOM     28  N   UNL     1       7.301  -4.857  -4.651  0.00  0.00    -0.325 N 
ATOM     29  H   UNL     1       8.176  -4.731  -4.251  0.00  0.00    +0.145 HD
ATOM     30  H   UNL     1       7.219  -5.311  -5.504  0.00  0.00    +0.145 HD
ENDBRANCH  22  26
ENDBRANCH  19  21
ENDBRANCH  16  17
ENDBRANCH   1  16
TORSDOF 8
