REMARK  Name = ZINC16651834
REMARK  12 active torsions:
REMARK  status: ('A' for Active; 'I' for Inactive)
REMARK    1  A    between atoms: C_1  and  C_2
REMARK    2  A    between atoms: C_5  and  C_7
REMARK    3  A    between atoms: C_7  and  N_8
REMARK    4  A    between atoms: N_8  and  C_9
REMARK    5  A    between atoms: C_9  and  C_10
REMARK    6  A    between atoms: C_19  and  C_21
REMARK    7  A    between atoms: C_21  and  N_22
REMARK    8  A    between atoms: N_22  and  C_23
REMARK    9  A    between atoms: C_23  and  C_24
REMARK   10  A    between atoms: C_24  and  O_25
REMARK   11  A    between atoms: O_25  and  C_26
REMARK   12  A    between atoms: N_29  and  C_30
REMARK                            x       y       z     vdW  Elec       q    Type
REMARK                         _______ _______ _______ _____ _____    ______ ____
ROOT
ATOM      1  N   UNL     1      -2.900   0.717   1.381  0.00  0.00    -0.289 N 
ATOM      2  C   UNL     1      -2.495  -0.404   2.011  0.00  0.00    +0.234 C 
ATOM      3  O   UNL     1      -1.778  -1.197   1.438  0.00  0.00    -0.274 OA
ENDROOT
BRANCH   1   4
ATOM      4  C   UNL     1      -3.765   1.674   2.074  0.00  0.00    +0.182 C 
BRANCH   4   9
ATOM      5  C   UNL     1      -8.343   1.494  -0.038  0.00  0.00    +0.086 C 
ATOM      6  C   UNL     1      -7.199   1.238   0.910  0.00  0.00    +0.102 A 
ATOM      7  C   UNL     1      -7.238   0.443   1.994  0.00  0.00    +0.045 A 
ATOM      8  C   UNL     1      -5.955   0.494   2.586  0.00  0.00    +0.046 A 
ATOM      9  C   UNL     1      -5.208   1.316   1.827  0.00  0.00    +0.122 A 
ATOM     10  O   UNL     1      -5.968   1.769   0.817  0.00  0.00    -0.463 OA
ENDBRANCH   4   9
ENDBRANCH   1   4
BRANCH   1  11
ATOM     11  C   UNL     1      -2.474   0.977   0.004  0.00  0.00    +0.143 C 
BRANCH  11  12
ATOM     12  C   UNL     1      -1.182   1.752   0.015  0.00  0.00    -0.026 A 
ATOM     13  C   UNL     1      -1.207   3.135   0.031  0.00  0.00    +0.009 A 
ATOM     14  C   UNL     1      -0.025   3.851   0.034  0.00  0.00    +0.050 A 
ATOM     15  C   UNL     1       1.189   3.184   0.029  0.00  0.00    +0.166 A 
ATOM     16  C   UNL     1       1.215   1.791   0.021  0.00  0.00    +0.167 A 
ATOM     17  C   UNL     1       0.026   1.080   0.017  0.00  0.00    +0.054 A 
ATOM     18  O   UNL     1       2.516   1.379   0.018  0.00  0.00    -0.453 OA
ATOM     19  C   UNL     1       3.283   2.528  -0.387  0.00  0.00    +0.466 C 
ATOM     20  O   UNL     1       2.475   3.644   0.032  0.00  0.00    -0.453 OA
ENDBRANCH  11  12
ENDBRANCH   1  11
BRANCH   2  21
ATOM     21  C   UNL     1      -2.932  -0.671   3.428  0.00  0.00    +0.205 C 
BRANCH  21  22
ATOM     22  N   UNL     1      -2.363  -1.942   3.884  0.00  0.00    -0.274 N 
ATOM     23  C   UNL     1      -1.160  -1.963   4.490  0.00  0.00    +0.307 C 
ATOM     24  O   UNL     1      -0.547  -0.927   4.660  0.00  0.00    -0.252 OA
ATOM     25  N   UNL     1      -0.636  -3.132   4.909  0.00  0.00    -0.267 N 
ATOM     26  H   UNL     1      -1.159  -3.947   4.848  0.00  0.00    +0.156 HD
BRANCH  25  27
ATOM     27  C   UNL     1       0.663  -3.171   5.432  0.00  0.00    +0.070 A 
ATOM     28  C   UNL     1       1.586  -2.198   5.074  0.00  0.00    +0.026 A 
ATOM     29  C   UNL     1       2.865  -2.235   5.595  0.00  0.00    +0.002 A 
ATOM     30  C   UNL     1       3.230  -3.247   6.464  0.00  0.00    +0.003 A 
ATOM     31  C   UNL     1       2.316  -4.221   6.820  0.00  0.00    +0.040 A 
ATOM     32  C   UNL     1       1.032  -4.187   6.306  0.00  0.00    +0.145 A 
ATOM     33  F   UNL     1       0.139  -5.139   6.652  0.00  0.00    -0.204 F 
ENDBRANCH  25  27
BRANCH  22  34
ATOM     34  C   UNL     1      -3.102  -3.191   3.679  0.00  0.00    +0.138 C 
BRANCH  34  35
ATOM     35  C   UNL     1      -2.717  -3.796   2.328  0.00  0.00    +0.178 C 
BRANCH  35  36
ATOM     36  O   UNL     1      -1.338  -4.172   2.350  0.00  0.00    -0.381 OA
ATOM     37  C   UNL     1      -0.874  -4.751   1.129  0.00  0.00    +0.194 C 
ENDBRANCH  35  36
ENDBRANCH  34  35
ENDBRANCH  22  34
ENDBRANCH  21  22
ENDBRANCH   2  21
TORSDOF 10
