REMARK  Name = ZINC58386660
REMARK  3 active torsions:
REMARK  status: ('A' for Active; 'I' for Inactive)
REMARK    1  A    between atoms: C_4  and  N_17
REMARK    2  A    between atoms: C_5  and  N_7
REMARK    3  A    between atoms: C_8  and  C_10
REMARK                            x       y       z     vdW  Elec       q    Type
REMARK                         _______ _______ _______ _____ _____    ______ ____
ROOT
ATOM      1  C   UNL     1      -0.079   1.149  -0.128  0.00  0.00    +0.002 A 
ATOM      2  C   UNL     1       1.092   1.884  -0.131  0.00  0.00    +0.002 A 
ATOM      3  C   UNL     1       2.316   1.243  -0.134  0.00  0.00    +0.025 A 
ATOM      4  C   UNL     1       2.372  -0.143  -0.132  0.00  0.00    +0.056 A 
ATOM      5  C   UNL     1       1.192  -0.885  -0.129  0.00  0.00    +0.055 A 
ATOM      6  C   UNL     1      -0.032  -0.233  -0.126  0.00  0.00    +0.025 A 
ENDROOT
BRANCH   4   7
ATOM      7  N   UNL     1       3.612  -0.796  -0.135  0.00  0.00    -0.268 N 
ATOM      8  C   UNL     1       4.654  -0.261  -0.802  0.00  0.00    +0.306 C 
ATOM      9  O   UNL     1       4.541   0.827  -1.334  0.00  0.00    -0.252 OA
ATOM     10  N   UNL     1       5.820  -0.931  -0.880  0.00  0.00    -0.285 N 
ATOM     11  C   UNL     1       6.091  -2.251  -0.292  0.00  0.00    +0.109 C 
ATOM     12  C   UNL     1       7.558  -2.604  -0.614  0.00  0.00    +0.020 C 
ATOM     13  C   UNL     1       8.200  -1.216  -0.878  0.00  0.00    +0.020 C 
ATOM     14  C   UNL     1       7.034  -0.465  -1.575  0.00  0.00    +0.109 C 
ATOM     15  H   UNL     1       3.721  -1.633   0.343  0.00  0.00    +0.156 HD
ENDBRANCH   4   7
BRANCH   5  16
ATOM     16  N   UNL     1       1.242  -2.285  -0.128  0.00  0.00    -0.284 N 
ATOM     17  C   UNL     1       0.215  -2.995   0.380  0.00  0.00    +0.221 C 
ATOM     18  O   UNL     1      -0.780  -2.426   0.775  0.00  0.00    -0.275 OA
ATOM     19  H   UNL     1       2.015  -2.743  -0.492  0.00  0.00    +0.155 HD
BRANCH  17  20
ATOM     20  C   UNL     1       0.304  -4.498   0.458  0.00  0.00    +0.079 C 
ATOM     21  C   UNL     1      -0.534  -5.027   1.643  0.00  0.00    +0.016 C 
ATOM     22  C   UNL     1      -1.610  -5.945   0.987  0.00  0.00    -0.010 C 
ATOM     23  C   UNL     1      -2.561  -4.961   0.240  0.00  0.00    +0.004 C 
ATOM     24  C   UNL     1      -1.722  -4.431  -0.946  0.00  0.00    +0.004 C 
ATOM     25  C   UNL     1      -0.344  -5.146  -0.804  0.00  0.00    +0.001 C 
ATOM     26  C   UNL     1      -0.794  -6.531  -0.219  0.00  0.00    +0.008 C 
ENDBRANCH  17  20
ENDBRANCH   5  16
TORSDOF 3
