REMARK  Name = ZINC08790372
REMARK  7 active torsions:
REMARK  status: ('A' for Active; 'I' for Inactive)
REMARK    1  A    between atoms: C_1  and  C_2
REMARK    2  A    between atoms: C_2  and  C_3
REMARK    3  A    between atoms: C_14  and  C_16
REMARK    4  A    between atoms: C_16  and  C_17
REMARK    5  A    between atoms: C_17  and  C_18
REMARK    6  A    between atoms: N_23  and  C_26
REMARK    7  A    between atoms: C_26  and  C_27
REMARK                            x       y       z     vdW  Elec       q    Type
REMARK                         _______ _______ _______ _____ _____    ______ ____
ROOT
ATOM      1  C   UNL     1      -0.749   3.086   1.275  0.00  0.00    -0.047 A 
ATOM      2  C   UNL     1      -1.801   3.768   0.690  0.00  0.00    +0.005 A 
ATOM      3  C   UNL     1      -1.825   5.148   0.696  0.00  0.00    +0.024 A 
ATOM      4  C   UNL     1      -0.789   5.865   1.290  0.00  0.00    +0.036 A 
ATOM      5  C   UNL     1       0.263   5.167   1.875  0.00  0.00    -0.027 A 
ATOM      6  C   UNL     1       0.281   3.790   1.873  0.00  0.00    +0.008 A 
ATOM      7  C   UNL     1       1.196   6.212   2.418  0.00  0.00    +0.050 C 
ATOM      8  C   UNL     1       1.388   6.062   3.932  0.00  0.00    +0.088 C 
ATOM      9  C   UNL     1       2.722   5.279   4.081  0.00  0.00    +0.073 C 
ATOM     10  C   UNL     1       3.200   5.031   2.634  0.00  0.00    -0.057 C 
ATOM     11  C   UNL     1       3.641   6.277   4.747  0.00  0.00    +0.224 C 
ATOM     12  O   UNL     1       4.798   6.074   5.045  0.00  0.00    -0.275 OA
ATOM     13  N   UNL     1       2.978   7.420   4.957  0.00  0.00    -0.237 N 
ATOM     14  C   UNL     1       1.706   7.409   4.540  0.00  0.00    +0.225 C 
ATOM     15  O   UNL     1       0.930   8.336   4.636  0.00  0.00    -0.275 OA
ATOM     16  C   UNL     1       0.555   7.528   2.071  0.00  0.00    +0.211 C 
ATOM     17  O   UNL     1       0.985   8.633   2.328  0.00  0.00    -0.277 OA
ATOM     18  N   UNL     1      -0.589   7.241   1.421  0.00  0.00    -0.286 N 
ATOM     19  H   UNL     1      -1.203   7.912   1.083  0.00  0.00    +0.155 HD
ATOM     20  N   UNL     1       2.528   6.074   1.856  0.00  0.00    +0.394 N 
ATOM     21  H   UNL     1       3.040   6.961   1.934  0.00  0.00    -0.083 HD
ATOM     22  H   UNL     1       2.470   5.798   0.868  0.00  0.00    -0.083 HD
ENDROOT
BRANCH   1  24
ATOM     23  C   UNL     1      -0.013   1.086   0.008  0.00  0.00    +0.009 C 
ATOM     24  C   UNL     1      -0.729   1.579   1.267  0.00  0.00    +0.032 C 
ENDBRANCH   1  24
BRANCH  10  25
ATOM     25  C   UNL     1       4.722   5.162   2.547  0.00  0.00    -0.006 C 
BRANCH  25  26
ATOM     26  C   UNL     1       5.186   4.792   1.137  0.00  0.00    +0.094 C 
BRANCH  26  27
ATOM     27  C   UNL     1       6.685   4.921   1.051  0.00  0.00    +0.210 C 
ATOM     28  O   UNL     1       7.320   5.274   2.022  0.00  0.00    -0.276 OA
ATOM     29  N   UNL     1       7.320   4.644  -0.105  0.00  0.00    -0.329 N 
ATOM     30  H   UNL     1       6.812   4.362  -0.882  0.00  0.00    +0.145 HD
ATOM     31  H   UNL     1       8.284   4.727  -0.161  0.00  0.00    +0.145 HD
ENDBRANCH  26  27
ENDBRANCH  25  26
ENDBRANCH  10  25
BRANCH  13  32
ATOM     32  C   UNL     1       3.593   8.587   5.593  0.00  0.00    +0.151 C 
BRANCH  32  33
ATOM     33  C   UNL     1       3.391   8.512   7.084  0.00  0.00    -0.026 A 
ATOM     34  C   UNL     1       4.328   7.875   7.877  0.00  0.00    +0.009 A 
ATOM     35  C   UNL     1       4.147   7.804   9.245  0.00  0.00    +0.050 A 
ATOM     36  C   UNL     1       3.024   8.372   9.826  0.00  0.00    +0.166 A 
ATOM     37  C   UNL     1       2.080   9.013   9.028  0.00  0.00    +0.167 A 
ATOM     38  C   UNL     1       2.271   9.086   7.658  0.00  0.00    +0.054 A 
ATOM     39  O   UNL     1       1.079   9.483   9.829  0.00  0.00    -0.453 OA
ATOM     40  C   UNL     1       1.214   8.770  11.072  0.00  0.00    +0.466 C 
ATOM     41  O   UNL     1       2.615   8.440  11.127  0.00  0.00    -0.453 OA
ENDBRANCH  32  33
ENDBRANCH  13  32
TORSDOF 6
