REMARK  Name = ZINC40931267
REMARK  7 active torsions:
REMARK  status: ('A' for Active; 'I' for Inactive)
REMARK    1  A    between atoms: C_3  and  C_6
REMARK    2  A    between atoms: C_6  and  C_7
REMARK    3  A    between atoms: C_7  and  N_8
REMARK    4  A    between atoms: C_9  and  C_11
REMARK    5  A    between atoms: N_14  and  C_17
REMARK    6  A    between atoms: C_17  and  C_18
REMARK    7  A    between atoms: C_20  and  C_23
REMARK                            x       y       z     vdW  Elec       q    Type
REMARK                         _______ _______ _______ _____ _____    ______ ____
ROOT
ATOM      1  C   UNL     1       7.697   3.238   2.554  0.00  0.00    +0.071 C 
ATOM      2  C   UNL     1       8.596   2.233   1.827  0.00  0.00    -0.006 C 
ATOM      3  C   UNL     1      10.046   2.718   1.889  0.00  0.00    -0.077 C 
ATOM      4  N   UNL     1      10.469   2.831   3.290  0.00  0.00    +0.386 N 
ATOM      5  C   UNL     1       9.658   3.845   3.975  0.00  0.00    -0.077 C 
ATOM      6  C   UNL     1       8.193   3.404   3.994  0.00  0.00    -0.006 C 
ATOM      7  H   UNL     1      10.351   1.940   3.749  0.00  0.00    -0.081 HD
ENDROOT
BRANCH   1   9
ATOM      8  N   UNL     1       5.633   2.506   1.403  0.00  0.00    -0.315 N 
ATOM      9  C   UNL     1       6.279   2.728   2.565  0.00  0.00    +0.216 C 
ATOM     10  O   UNL     1       5.718   2.518   3.620  0.00  0.00    -0.276 OA
ATOM     11  H   UNL     1       6.082   2.674   0.560  0.00  0.00    +0.149 HD
BRANCH   8  12
ATOM     12  C   UNL     1       4.255   2.011   1.414  0.00  0.00    +0.109 C 
BRANCH  12  13
ATOM     13  C   UNL     1       3.761   1.845  -0.024  0.00  0.00    +0.061 C 
BRANCH  13  16
ATOM     14  C   UNL     1      -0.016   1.351   0.009  0.00  0.00    +0.008 A 
ATOM     15  C   UNL     1       1.183   2.038   0.002  0.00  0.00    +0.011 A 
ATOM     16  C   UNL     1       2.343   1.336  -0.013  0.00  0.00    -0.009 A 
ATOM     17  S   UNL     1       1.754  -0.349  -0.017  0.00  0.00    -0.102 S 
ATOM     18  C   UNL     1       0.002  -0.004   0.002  0.00  0.00    +0.045 A 
ENDBRANCH  13  16
ENDBRANCH  12  13
ENDBRANCH   8  12
ENDBRANCH   1   9
BRANCH   4  19
ATOM     19  C   UNL     1      11.885   3.221   3.343  0.00  0.00    +0.022 C 
BRANCH  19  20
ATOM     20  C   UNL     1      12.353   3.219   4.775  0.00  0.00    +0.211 A 
ATOM     21  N   UNL     1      12.878   2.205   5.402  0.00  0.00    -0.193 NA
ATOM     22  C   UNL     1      13.181   2.552   6.666  0.00  0.00    +0.202 A 
ATOM     23  N   UNL     1      12.846   3.805   6.848  0.00  0.00    -0.056 NA
ATOM     24  O   UNL     1      12.306   4.260   5.616  0.00  0.00    -0.340 OA
BRANCH  22  25
ATOM     25  C   UNL     1      13.794   1.663   7.684  0.00  0.00    +0.026 A 
ATOM     26  C   UNL     1      14.110   0.345   7.360  0.00  0.00    +0.015 A 
ATOM     27  C   UNL     1      14.679  -0.481   8.307  0.00  0.00    +0.050 A 
ATOM     28  C   UNL     1      14.938  -0.003   9.584  0.00  0.00    +0.166 A 
ATOM     29  C   UNL     1      14.624   1.315   9.912  0.00  0.00    +0.167 A 
ATOM     30  C   UNL     1      14.059   2.147   8.964  0.00  0.00    +0.061 A 
ATOM     31  O   UNL     1      14.974   1.534  11.214  0.00  0.00    -0.453 OA
ATOM     32  C   UNL     1      15.126   0.227  11.797  0.00  0.00    +0.466 C 
ATOM     33  O   UNL     1      15.484  -0.607  10.679  0.00  0.00    -0.453 OA
ENDBRANCH  22  25
ENDBRANCH  19  20
ENDBRANCH   4  19
TORSDOF 7
