REMARK  Name = ZINC39148522
REMARK  9 active torsions:
REMARK  status: ('A' for Active; 'I' for Inactive)
REMARK    1  A    between atoms: C_1  and  C_2
REMARK    2  A    between atoms: C_2  and  O_3
REMARK    3  A    between atoms: O_3  and  C_4
REMARK    4  A    between atoms: C_11  and  C_16
REMARK    5  A    between atoms: C_19  and  C_29
REMARK    6  A    between atoms: C_22  and  C_24
REMARK    7  A    between atoms: C_24  and  C_25
REMARK    8  A    between atoms: C_25  and  C_26
REMARK    9  A    between atoms: C_32  and  C_35
REMARK                            x       y       z     vdW  Elec       q    Type
REMARK                         _______ _______ _______ _____ _____    ______ ____
ROOT
ATOM      1  C   UNL     1       1.544  -6.223  -5.077  0.00  0.00    +0.123 C 
ATOM      2  C   UNL     1       1.886  -7.687  -5.418  0.00  0.00    +0.083 C 
ATOM      3  C   UNL     1       2.606  -7.593  -6.744  0.00  0.00    +0.069 C 
ATOM      4  N   UNL     1       2.676  -6.360  -7.109  0.00  0.00    -0.181 NA
ATOM      5  N   UNL     1       2.087  -5.464  -6.215  0.00  0.00    -0.188 N 
ATOM      6  C   UNL     1       2.026  -4.127  -6.365  0.00  0.00    +0.236 C 
ATOM      7  O   UNL     1       1.563  -3.437  -5.481  0.00  0.00    -0.274 OA
ENDROOT
BRANCH   1  15
ATOM      8  C   UNL     1       2.108  -8.637   0.209  0.00  0.00    +0.121 A 
ATOM      9  C   UNL     1       3.468  -8.895  -0.003  0.00  0.00    +0.047 A 
ATOM     10  C   UNL     1       4.161  -8.358  -1.039  0.00  0.00    +0.027 A 
ATOM     11  C   UNL     1       3.526  -7.503  -1.959  0.00  0.00    +0.041 A 
ATOM     12  N   UNL     1       4.220  -6.983  -2.972  0.00  0.00    -0.284 N 
ATOM     13  C   UNL     1       3.687  -6.173  -3.872  0.00  0.00    +0.226 C 
ATOM     14  O   UNL     1       4.371  -5.730  -4.775  0.00  0.00    -0.275 OA
ATOM     15  C   UNL     1       2.225  -5.801  -3.773  0.00  0.00    +0.121 C 
ATOM     16  C   UNL     1       1.432  -6.389  -2.623  0.00  0.00    -0.003 C 
ATOM     17  C   UNL     1       2.095  -7.212  -1.762  0.00  0.00    -0.003 A 
ATOM     18  C   UNL     1       1.404  -7.827  -0.629  0.00  0.00    +0.055 A 
ATOM     19  H   UNL     1       5.160  -7.209  -3.053  0.00  0.00    +0.155 HD
BRANCH   8  20
ATOM     20  O   UNL     1       1.478  -9.210   1.269  0.00  0.00    -0.492 OA
BRANCH  20  22
ATOM     21  C   UNL     1       1.391 -10.600   3.244  0.00  0.00    +0.048 C 
ATOM     22  C   UNL     1       2.266 -10.050   2.115  0.00  0.00    +0.225 C 
ENDBRANCH  20  22
ENDBRANCH   8  20
ENDBRANCH   1  15
BRANCH   3  23
ATOM     23  C   UNL     1       3.145  -8.738  -7.503  0.00  0.00    -0.002 A 
ATOM     24  C   UNL     1       3.004 -10.037  -7.008  0.00  0.00    +0.010 A 
ATOM     25  C   UNL     1       3.510 -11.102  -7.723  0.00  0.00    +0.004 A 
ATOM     26  C   UNL     1       4.157 -10.887  -8.927  0.00  0.00    -0.050 A 
ATOM     27  C   UNL     1       4.300  -9.603  -9.423  0.00  0.00    +0.004 A 
ATOM     28  C   UNL     1       3.793  -8.528  -8.722  0.00  0.00    +0.010 A 
ATOM     29  C   UNL     1       4.708 -12.056  -9.702  0.00  0.00    +0.044 C 
ENDBRANCH   3  23
BRANCH   6  30
ATOM     30  C   UNL     1       2.533  -3.487  -7.632  0.00  0.00    +0.109 C 
BRANCH  30  31
ATOM     31  C   UNL     1       2.349  -1.970  -7.547  0.00  0.00    +0.134 C 
BRANCH  31  32
ATOM     32  C   UNL     1       2.856  -1.331  -8.814  0.00  0.00    +0.356 C 
ATOM     33  O   UNL     1       3.322  -2.024  -9.702  0.00  0.00    -0.246 OA
ATOM     34  O   UNL     1       2.801  -0.120  -8.950  0.00  0.00    -0.246 OA
ENDBRANCH  31  32
ENDBRANCH  30  31
ENDBRANCH   6  30
TORSDOF 7
