REMARK  Name = ZINC15675125
REMARK  7 active torsions:
REMARK  status: ('A' for Active; 'I' for Inactive)
REMARK    1  A    between atoms: C_4  and  O_29
REMARK    2  A    between atoms: C_5  and  C_7
REMARK    3  A    between atoms: C_7  and  N_47
REMARK    4  A    between atoms: C_9  and  O_28
REMARK    5  A    between atoms: C_12  and  C_14
REMARK    6  A    between atoms: C_16  and  C_19
REMARK    7  A    between atoms: C_19  and  C_20
REMARK                            x       y       z     vdW  Elec       q    Type
REMARK                         _______ _______ _______ _____ _____    ______ ____
ROOT
ATOM      1  C   UNL     1      -0.025   3.958  -2.238  0.00  0.00    -0.046 C 
ATOM      2  C   UNL     1       0.372   3.499  -3.653  0.00  0.00    +0.097 C 
ATOM      3  C   UNL     1       1.917   3.454  -3.645  0.00  0.00    +0.023 C 
ATOM      4  C   UNL     1       2.252   3.327  -2.137  0.00  0.00    +0.025 C 
ATOM      5  N   UNL     1       1.233   4.181  -1.516  0.00  0.00    +0.392 N 
ATOM      6  H   UNL     1       1.510   5.166  -1.597  0.00  0.00    -0.080 HD
ENDROOT
BRANCH   4   7
ATOM      7  C   UNL     1       3.639   3.844  -1.855  0.00  0.00    +0.214 A 
ATOM      8  N   UNL     1       4.686   3.129  -1.523  0.00  0.00    -0.197 NA
ATOM      9  C   UNL     1       5.692   4.008  -1.372  0.00  0.00    +0.176 A 
ATOM     10  N   UNL     1       5.215   5.192  -1.616  0.00  0.00    -0.061 NA
ATOM     11  O   UNL     1       4.038   5.119  -1.901  0.00  0.00    -0.340 OA
BRANCH   9  12
ATOM     12  C   UNL     1       7.113   3.681  -0.990  0.00  0.00    +0.116 C 
BRANCH  12  13
ATOM     13  C   UNL     1       7.922   3.424  -2.236  0.00  0.00    -0.021 A 
ATOM     14  C   UNL     1       8.100   2.130  -2.688  0.00  0.00    +0.008 A 
ATOM     15  C   UNL     1       8.836   1.893  -3.833  0.00  0.00    +0.039 A 
ATOM     16  C   UNL     1       9.406   2.952  -4.522  0.00  0.00    +0.125 A 
ATOM     17  C   UNL     1       9.232   4.247  -4.066  0.00  0.00    +0.058 A 
ATOM     18  C   UNL     1       8.490   4.482  -2.922  0.00  0.00    +0.047 A 
ATOM     19 CL   UNL     1       8.271   6.106  -2.349  0.00  0.00    -0.083 Cl
ATOM     20  F   UNL     1      10.130   2.720  -5.639  0.00  0.00    -0.205 F 
ENDBRANCH  12  13
ENDBRANCH   9  12
ENDBRANCH   4   7
BRANCH   2  21
ATOM     21  O   UNL     1      -0.163   2.201  -3.922  0.00  0.00    -0.394 OA
ATOM     22  H   UNL     1      -1.129   2.161  -3.897  0.00  0.00    +0.210 HD
ENDBRANCH   2  21
BRANCH   5  23
ATOM     23  C   UNL     1       1.068   3.835  -0.071  0.00  0.00    -0.038 C 
BRANCH  23  28
ATOM     24  C   UNL     1       0.711   0.143  -0.774  0.00  0.00    +0.000 A 
ATOM     25  C   UNL     1       1.252  -0.413   0.371  0.00  0.00    +0.004 A 
ATOM     26  C   UNL     1       1.734   0.404   1.375  0.00  0.00    +0.045 A 
ATOM     27  C   UNL     1       1.675   1.783   1.235  0.00  0.00    +0.118 A 
ATOM     28  C   UNL     1       1.133   2.338   0.085  0.00  0.00    -0.022 A 
ATOM     29  C   UNL     1       0.652   1.517  -0.917  0.00  0.00    +0.005 A 
BRANCH  27  30
ATOM     30  O   UNL     1       2.149   2.588   2.221  0.00  0.00    -0.507 OA
ATOM     31  H   UNL     1       3.100   2.753   2.172  0.00  0.00    +0.292 HD
ENDBRANCH  27  30
ENDBRANCH  23  28
ENDBRANCH   5  23
TORSDOF 7
