REMARK  Name = ZINC59857907
REMARK  5 active torsions:
REMARK  status: ('A' for Active; 'I' for Inactive)
REMARK    1  A    between atoms: C_4  and  N_7
REMARK    2  A    between atoms: C_9  and  C_14
REMARK    3  A    between atoms: N_16  and  C_17
REMARK    4  A    between atoms: C_22  and  N_23
REMARK    5  A    between atoms: C_27  and  C_28
REMARK                            x       y       z     vdW  Elec       q    Type
REMARK                         _______ _______ _______ _____ _____    ______ ____
ROOT
ATOM      1  C   UNL     1       6.415  -2.845  -2.764  0.00  0.00    +0.055 A 
ATOM      2  C   UNL     1       5.136  -2.514  -3.187  0.00  0.00    +0.025 A 
ATOM      3  C   UNL     1       4.765  -2.732  -4.500  0.00  0.00    +0.002 A 
ATOM      4  C   UNL     1       5.665  -3.280  -5.395  0.00  0.00    +0.002 A 
ATOM      5  C   UNL     1       6.941  -3.614  -4.982  0.00  0.00    +0.026 A 
ATOM      6  C   UNL     1       7.324  -3.393  -3.667  0.00  0.00    +0.066 A 
ENDROOT
BRANCH   6   7
ATOM      7  N   UNL     1       8.621  -3.726  -3.247  0.00  0.00    -0.195 N 
ATOM      8  C   UNL     1       8.857  -4.940  -2.780  0.00  0.00    +0.265 C 
ATOM      9  O   UNL     1       7.978  -5.778  -2.704  0.00  0.00    -0.269 OA
ATOM     10  C   UNL     1      10.243  -5.227  -2.354  0.00  0.00    +0.080 C 
ATOM     11  C   UNL     1      10.772  -6.366  -1.843  0.00  0.00    +0.028 C 
ATOM     12  S   UNL     1      11.030  -3.659  -2.699  0.00  0.00    -0.025 S 
ATOM     13  C   UNL     1       9.599  -2.801  -3.334  0.00  0.00    +0.290 C 
ATOM     14  O   UNL     1       9.524  -1.659  -3.745  0.00  0.00    -0.262 OA
BRANCH  11  15
ATOM     15  C   UNL     1       9.975  -7.600  -1.819  0.00  0.00    -0.024 A 
ATOM     16  C   UNL     1       9.181  -7.946  -2.919  0.00  0.00    +0.009 A 
ATOM     17  C   UNL     1       8.436  -9.105  -2.889  0.00  0.00    +0.020 A 
ATOM     18  C   UNL     1       8.472  -9.927  -1.774  0.00  0.00    +0.041 A 
ATOM     19  C   UNL     1       9.255  -9.591  -0.681  0.00  0.00    +0.020 A 
ATOM     20  C   UNL     1      10.010  -8.439  -0.699  0.00  0.00    +0.009 A 
ATOM     21 CL   UNL     1       7.530 -11.385  -1.746  0.00  0.00    -0.084 Cl
ENDBRANCH  11  15
ENDBRANCH   6   7
BRANCH   1  24
ATOM     22  C   UNL     1       5.881  -2.728  -0.447  0.00  0.00    +0.222 C 
ATOM     23  O   UNL     1       4.756  -3.103  -0.699  0.00  0.00    -0.275 OA
ATOM     24  N   UNL     1       6.794  -2.625  -1.433  0.00  0.00    -0.284 N 
ATOM     25  H   UNL     1       7.713  -2.397  -1.222  0.00  0.00    +0.155 HD
BRANCH  22  28
ATOM     26  N   UNL     1       4.401  -1.263   1.994  0.00  0.00    -0.271 N 
ATOM     27  C   UNL     1       5.062  -2.571   1.925  0.00  0.00    +0.127 C 
ATOM     28  C   UNL     1       6.260  -2.378   0.969  0.00  0.00    +0.102 C 
ATOM     29  C   UNL     1       6.535  -0.863   1.111  0.00  0.00    +0.110 C 
ATOM     30  C   UNL     1       5.206  -0.285   1.543  0.00  0.00    +0.221 C 
ATOM     31  O   UNL     1       4.910   0.890   1.492  0.00  0.00    -0.275 OA
BRANCH  26  35
ATOM     32  C   UNL     1       0.523  -0.658   3.392  0.00  0.00    +0.000 A 
ATOM     33  C   UNL     1       1.316   0.427   3.066  0.00  0.00    +0.002 A 
ATOM     34  C   UNL     1       2.602   0.230   2.602  0.00  0.00    +0.023 A 
ATOM     35  C   UNL     1       3.099  -1.059   2.464  0.00  0.00    +0.036 A 
ATOM     36  C   UNL     1       2.300  -2.147   2.793  0.00  0.00    +0.023 A 
ATOM     37  C   UNL     1       1.015  -1.943   3.256  0.00  0.00    +0.002 A 
ENDBRANCH  26  35
ENDBRANCH  22  28
ENDBRANCH   1  24
TORSDOF 5
