REMARK  Name = ZINC12001003
REMARK  13 active torsions:
REMARK  status: ('A' for Active; 'I' for Inactive)
REMARK    1  A    between atoms: C_1  and  C_2
REMARK    2  A    between atoms: C_2  and  O_3
REMARK    3  A    between atoms: O_3  and  C_4
REMARK    4  A    between atoms: C_4  and  C_6
REMARK    5  A    between atoms: C_6  and  C_25
REMARK    6  A    between atoms: N_9  and  C_12
REMARK    7  A    between atoms: C_12  and  C_14
REMARK    8  A    between atoms: C_12  and  C_15
REMARK    9  A    between atoms: C_15  and  C_16
REMARK   10  A    between atoms: C_19  and  O_24
REMARK   11  A    between atoms: C_20  and  O_22
REMARK   12  A    between atoms: O_22  and  C_23
REMARK   13  A    between atoms: C_25  and  C_26
REMARK                            x       y       z     vdW  Elec       q    Type
REMARK                         _______ _______ _______ _____ _____    ______ ____
ROOT
ATOM      1  C   UNL     1      -3.131  -2.179  -0.119  0.00  0.00    +0.068 C 
ATOM      2  C   UNL     1      -3.858  -1.781   1.169  0.00  0.00    -0.000 C 
ATOM      3  C   UNL     1      -5.174  -2.555   1.265  0.00  0.00    -0.077 C 
ATOM      4  N   UNL     1      -4.898  -3.996   1.282  0.00  0.00    +0.382 N 
ATOM      5  C   UNL     1      -4.266  -4.398   0.020  0.00  0.00    -0.077 C 
ATOM      6  C   UNL     1      -2.914  -3.695  -0.124  0.00  0.00    -0.000 C 
ATOM      7  H   UNL     1      -4.280  -4.210   2.050  0.00  0.00    -0.081 HD
ENDROOT
BRANCH   1   8
ATOM      8  C   UNL     1      -1.797  -1.479  -0.182  0.00  0.00    +0.313 C 
ATOM      9  O   UNL     1      -0.777  -2.125  -0.226  0.00  0.00    -0.250 OA
BRANCH   8  10
ATOM     10  O   UNL     1      -1.743  -0.138  -0.189  0.00  0.00    -0.465 OA
BRANCH  10  12
ATOM     11  C   UNL     1      -0.584   1.982  -0.248  0.00  0.00    +0.048 C 
ATOM     12  C   UNL     1      -0.446   0.458  -0.249  0.00  0.00    +0.229 C 
ENDBRANCH  10  12
ENDBRANCH   8  10
ENDBRANCH   1   8
BRANCH   4  13
ATOM     13  C   UNL     1      -6.158  -4.732   1.453  0.00  0.00    -0.067 C 
ATOM     14  C   UNL     1      -5.885  -6.236   1.376  0.00  0.00    -0.013 C 
BRANCH  13  15
ATOM     15  C   UNL     1      -6.766  -4.393   2.815  0.00  0.00    +0.020 C 
BRANCH  15  16
ATOM     16  C   UNL     1      -8.118  -5.048   2.938  0.00  0.00    -0.045 A 
ATOM     17  C   UNL     1      -9.235  -4.427   2.411  0.00  0.00    +0.007 A 
ATOM     18  C   UNL     1     -10.478  -5.023   2.521  0.00  0.00    +0.049 A 
ATOM     19  C   UNL     1     -10.606  -6.245   3.162  0.00  0.00    +0.158 A 
ATOM     20  C   UNL     1      -9.481  -6.870   3.692  0.00  0.00    +0.162 A 
ATOM     21  C   UNL     1      -8.238  -6.269   3.574  0.00  0.00    +0.053 A 
BRANCH  20  22
ATOM     22  O   UNL     1      -9.601  -8.069   4.322  0.00  0.00    -0.491 OA
ATOM     23  C   UNL     1      -8.405  -8.652   4.842  0.00  0.00    +0.277 C 
ENDBRANCH  20  22
BRANCH  19  24
ATOM     24  O   UNL     1     -11.827  -6.832   3.271  0.00  0.00    -0.503 OA
ATOM     25  H   UNL     1     -12.050  -7.418   2.535  0.00  0.00    +0.292 HD
ENDBRANCH  19  24
ENDBRANCH  15  16
ENDBRANCH  13  15
ENDBRANCH   4  13
BRANCH   1  26
ATOM     26  C   UNL     1      -3.976  -1.778  -1.330  0.00  0.00    +0.053 C 
BRANCH  26  27
ATOM     27  C   UNL     1      -4.191  -0.287  -1.322  0.00  0.00    -0.046 A 
ATOM     28  C   UNL     1      -5.284   0.250  -0.666  0.00  0.00    +0.005 A 
ATOM     29  C   UNL     1      -5.481   1.618  -0.658  0.00  0.00    +0.020 A 
ATOM     30  C   UNL     1      -4.586   2.450  -1.306  0.00  0.00    +0.041 A 
ATOM     31  C   UNL     1      -3.493   1.912  -1.962  0.00  0.00    +0.020 A 
ATOM     32  C   UNL     1      -3.293   0.544  -1.965  0.00  0.00    +0.005 A 
ATOM     33 CL   UNL     1      -4.835   4.168  -1.297  0.00  0.00    -0.084 Cl
ENDBRANCH  26  27
ENDBRANCH   1  26
TORSDOF 10
