REMARK  Name = ZINC10558149
REMARK  11 active torsions:
REMARK  status: ('A' for Active; 'I' for Inactive)
REMARK    1  A    between atoms: C_1  and  C_2
REMARK    2  A    between atoms: C_2  and  O_3
REMARK    3  A    between atoms: O_3  and  C_4
REMARK    4  A    between atoms: C_4  and  C_6
REMARK    5  A    between atoms: C_7  and  C_20
REMARK    6  A    between atoms: C_12  and  C_14
REMARK    7  A    between atoms: C_20  and  S_21
REMARK    8  A    between atoms: S_21  and  C_22
REMARK    9  A    between atoms: N_26  and  C_27
REMARK   10  A    between atoms: C_30  and  C_34
REMARK   11  A    between atoms: C_32  and  C_33
REMARK                            x       y       z     vdW  Elec       q    Type
REMARK                         _______ _______ _______ _____ _____    ______ ____
ROOT
ATOM      1  C   UNL     1      -3.530  -4.544  -0.565  0.00  0.00    +0.079 C 
ATOM      2  C   UNL     1      -2.699  -3.722  -1.242  0.00  0.00    +0.034 C 
ATOM      3  N   UNL     1      -1.445  -4.127  -1.601  0.00  0.00    -0.272 N 
ATOM      4  C   UNL     1      -0.949  -5.340  -1.326  0.00  0.00    +0.304 C 
ATOM      5  O   UNL     1       0.180  -5.609  -1.686  0.00  0.00    -0.252 OA
ATOM      6  N   UNL     1      -1.661  -6.271  -0.661  0.00  0.00    -0.288 N 
ATOM      7  C   UNL     1      -3.027  -5.933  -0.229  0.00  0.00    +0.144 C 
ATOM      8  H   UNL     1      -0.882  -3.500  -2.082  0.00  0.00    +0.156 HD
ATOM      9  H   UNL     1      -1.282  -7.144  -0.473  0.00  0.00    +0.151 HD
ENDROOT
BRANCH   7  10
ATOM     10  C   UNL     1      -3.970  -6.934  -0.846  0.00  0.00    -0.023 A 
ATOM     11  C   UNL     1      -3.780  -7.352  -2.150  0.00  0.00    +0.006 A 
ATOM     12  C   UNL     1      -4.642  -8.273  -2.714  0.00  0.00    +0.000 A 
ATOM     13  C   UNL     1      -5.701  -8.770  -1.977  0.00  0.00    +0.000 A 
ATOM     14  C   UNL     1      -5.895  -8.348  -0.675  0.00  0.00    +0.000 A 
ATOM     15  C   UNL     1      -5.030  -7.430  -0.109  0.00  0.00    +0.006 A 
ENDBRANCH   7  10
BRANCH   1  16
ATOM     16  C   UNL     1      -4.827  -4.124  -0.188  0.00  0.00    +0.339 C 
ATOM     17  O   UNL     1      -5.041  -3.764   0.955  0.00  0.00    -0.245 OA
BRANCH  16  18
ATOM     18  O   UNL     1      -5.826  -4.121  -1.095  0.00  0.00    -0.462 OA
BRANCH  18  20
ATOM     19  C   UNL     1      -8.106  -3.751  -1.804  0.00  0.00    +0.048 C 
ATOM     20  C   UNL     1      -7.110  -3.685  -0.644  0.00  0.00    +0.229 C 
ENDBRANCH  18  20
ENDBRANCH  16  18
ENDBRANCH   1  16
BRANCH   2  21
ATOM     21  C   UNL     1      -3.160  -2.333  -1.601  0.00  0.00    +0.128 C 
BRANCH  21  22
ATOM     22  S   UNL     1      -2.366  -1.131  -0.505  0.00  0.00    -0.080 S 
BRANCH  22  23
ATOM     23  C   UNL     1      -3.065   0.361  -1.130  0.00  0.00    +0.196 A 
ATOM     24  N   UNL     1      -3.919   0.468  -2.121  0.00  0.00    -0.122 NA
ATOM     25  N   UNL     1      -4.219   1.704  -2.309  0.00  0.00    -0.137 NA
ATOM     26  C   UNL     1      -3.585   2.455  -1.454  0.00  0.00    +0.230 A 
ATOM     27  N   UNL     1      -2.821   1.627  -0.674  0.00  0.00    -0.277 N 
BRANCH  27  28
ATOM     28  C   UNL     1      -1.970   2.000   0.377  0.00  0.00    +0.053 A 
ATOM     29  C   UNL     1      -2.496   2.575   1.527  0.00  0.00    +0.027 A 
ATOM     30  C   UNL     1      -1.655   2.946   2.558  0.00  0.00    +0.005 A 
ATOM     31  C   UNL     1      -0.292   2.742   2.448  0.00  0.00    -0.050 A 
ATOM     32  C   UNL     1       0.234   2.165   1.307  0.00  0.00    +0.008 A 
ATOM     33  C   UNL     1      -0.602   1.792   0.272  0.00  0.00    -0.026 A 
ATOM     34  C   UNL     1      -0.029   1.163  -0.972  0.00  0.00    +0.046 C 
ATOM     35  C   UNL     1       0.623   3.149   3.574  0.00  0.00    +0.044 C 
ENDBRANCH  27  28
ENDBRANCH  22  23
ENDBRANCH  21  22
ENDBRANCH   2  21
TORSDOF 8
