REMARK  Name = ZINC46582014
REMARK  7 active torsions:
REMARK  status: ('A' for Active; 'I' for Inactive)
REMARK    1  A    between atoms: C_7  and  C_11
REMARK    2  A    between atoms: C_14  and  S_23
REMARK    3  A    between atoms: N_15  and  C_16
REMARK    4  A    between atoms: C_16  and  C_17
REMARK    5  A    between atoms: S_23  and  C_24
REMARK    6  A    between atoms: C_24  and  C_25
REMARK    7  A    between atoms: C_25  and  N_26
REMARK                            x       y       z     vdW  Elec       q    Type
REMARK                         _______ _______ _______ _____ _____    ______ ____
ROOT
ATOM      1  C   UNL     1       0.684  -3.260  -0.024  0.00  0.00    +0.167 A 
ATOM      2  N   UNL     1      -0.625  -3.220   0.077  0.00  0.00    -0.128 NA
ATOM      3  N   UNL     1      -1.105  -4.412   0.049  0.00  0.00    -0.122 NA
ATOM      4  C   UNL     1      -0.134  -5.287  -0.071  0.00  0.00    +0.192 A 
ATOM      5  N   UNL     1       1.039  -4.585  -0.128  0.00  0.00    -0.300 N 
ENDROOT
BRANCH   1  12
ATOM      6  C   UNL     1       1.037   0.545   2.671  0.00  0.00    +0.001 A 
ATOM      7  C   UNL     1       2.075   1.380   2.282  0.00  0.00    +0.002 A 
ATOM      8  C   UNL     1       2.872   1.056   1.206  0.00  0.00    +0.026 A 
ATOM      9  C   UNL     1       2.636  -0.121   0.501  0.00  0.00    +0.047 A 
ATOM     10  C   UNL     1       1.585  -0.962   0.901  0.00  0.00    +0.010 A 
ATOM     11  C   UNL     1       0.790  -0.616   1.992  0.00  0.00    +0.011 A 
ATOM     12  C   UNL     1       1.600  -2.103  -0.032  0.00  0.00    +0.044 A 
ATOM     13  C   UNL     1       2.622  -1.882  -0.899  0.00  0.00    +0.095 A 
ATOM     14  N   UNL     1       3.243  -0.707  -0.589  0.00  0.00    -0.360 N 
ATOM     15  H   UNL     1       4.001  -0.337  -1.067  0.00  0.00    +0.165 HD
ENDBRANCH   1  12
BRANCH   5  16
ATOM     16  C   UNL     1       2.391  -5.131  -0.268  0.00  0.00    +0.157 C 
BRANCH  16  17
ATOM     17  C   UNL     1       2.928  -5.523   1.111  0.00  0.00    +0.138 C 
ATOM     18  C   UNL     1       4.322  -6.187   0.977  0.00  0.00    +0.035 C 
ATOM     19  C   UNL     1       4.920  -5.901   2.381  0.00  0.00    +0.031 C 
ATOM     20  C   UNL     1       4.316  -4.522   2.721  0.00  0.00    +0.160 C 
ATOM     21  O   UNL     1       3.144  -4.351   1.913  0.00  0.00    -0.375 OA
ENDBRANCH  16  17
ENDBRANCH   5  16
BRANCH   4  22
ATOM     22  S   UNL     1      -0.310  -7.038  -0.151  0.00  0.00    -0.084 S 
BRANCH  22  23
ATOM     23  C   UNL     1      -2.100  -7.306  -0.031  0.00  0.00    +0.099 C 
BRANCH  23  24
ATOM     24  C   UNL     1      -2.397  -8.806  -0.089  0.00  0.00    +0.140 C 
BRANCH  24  25
ATOM     25  N   UNL     1      -3.842  -9.021   0.008  0.00  0.00    -0.273 N 
ATOM     26  C   UNL     1      -4.573  -9.197   1.183  0.00  0.00    +0.090 A 
ATOM     27  C   UNL     1      -4.225  -9.227   2.525  0.00  0.00    +0.030 A 
ATOM     28  C   UNL     1      -5.200  -9.426   3.483  0.00  0.00    +0.002 A 
ATOM     29  C   UNL     1      -6.521  -9.596   3.107  0.00  0.00    +0.004 A 
ATOM     30  C   UNL     1      -6.875  -9.568   1.772  0.00  0.00    +0.048 A 
ATOM     31  C   UNL     1      -5.904  -9.368   0.803  0.00  0.00    +0.157 A 
ATOM     32  O   UNL     1      -5.949  -9.295  -0.550  0.00  0.00    -0.407 OA
ATOM     33  C   UNL     1      -4.710  -9.081  -1.021  0.00  0.00    +0.421 A 
ATOM     34  O   UNL     1      -4.417  -8.962  -2.195  0.00  0.00    -0.223 OA
ENDBRANCH  24  25
ENDBRANCH  23  24
ENDBRANCH  22  23
ENDBRANCH   4  22
TORSDOF 7
