REMARK  Name = ZINC39528165
REMARK  8 active torsions:
REMARK  status: ('A' for Active; 'I' for Inactive)
REMARK    1  A    between atoms: C_1  and  S_2
REMARK    2  A    between atoms: S_2  and  C_3
REMARK    3  A    between atoms: C_6  and  N_16
REMARK    4  A    between atoms: C_7  and  C_9
REMARK    5  A    between atoms: C_9  and  C_10
REMARK    6  A    between atoms: C_20  and  S_23
REMARK    7  A    between atoms: S_23  and  O_26
REMARK    8  A    between atoms: O_26  and  C_27
REMARK                            x       y       z     vdW  Elec       q    Type
REMARK                         _______ _______ _______ _____ _____    ______ ____
ROOT
ATOM      1  N   UNL     1       3.041  -1.527   4.908  0.00  0.00    -0.331 N 
ATOM      2  C   UNL     1       4.453  -1.928   4.998  0.00  0.00    +0.086 C 
ATOM      3  C   UNL     1       5.131  -1.082   6.081  0.00  0.00    -0.061 C 
ATOM      4  N   UNL     1       4.383  -1.208   7.338  0.00  0.00    +0.398 N 
ATOM      5  C   UNL     1       3.038  -0.642   7.179  0.00  0.00    +0.133 C 
ATOM      6  C   UNL     1       2.258  -1.462   6.152  0.00  0.00    +0.115 C 
ATOM      7  H   UNL     1       4.310  -2.183   7.588  0.00  0.00    -0.083 HD
ATOM      8  H   UNL     1       4.871  -0.712   8.069  0.00  0.00    -0.083 HD
ENDROOT
BRANCH   1  12
ATOM      9  C   UNL     1       1.312  -0.583   1.233  0.00  0.00    +0.008 A 
ATOM     10  C   UNL     1       1.897   0.415   2.002  0.00  0.00    +0.016 A 
ATOM     11  C   UNL     1       2.469   0.103   3.219  0.00  0.00    +0.024 A 
ATOM     12  C   UNL     1       2.460  -1.210   3.674  0.00  0.00    +0.033 A 
ATOM     13  C   UNL     1       1.875  -2.207   2.906  0.00  0.00    -0.021 A 
ATOM     14  C   UNL     1       1.297  -1.894   1.691  0.00  0.00    +0.020 A 
BRANCH   9  16
ATOM     15  C   UNL     1       0.843   1.604  -0.482  0.00  0.00    +0.090 C 
ATOM     16  S   UNL     1       0.582  -0.184  -0.320  0.00  0.00    -0.129 S 
ENDBRANCH   9  16
BRANCH  13  17
ATOM     17  C   UNL     1       1.865  -3.631   3.400  0.00  0.00    +0.072 C 
BRANCH  17  18
ATOM     18  C   UNL     1       1.295  -4.529   2.332  0.00  0.00    -0.043 A 
ATOM     19  C   UNL     1      -0.055  -4.826   2.327  0.00  0.00    +0.004 A 
ATOM     20  C   UNL     1      -0.577  -5.650   1.348  0.00  0.00    +0.000 A 
ATOM     21  C   UNL     1       0.250  -6.176   0.373  0.00  0.00    +0.000 A 
ATOM     22  C   UNL     1       1.600  -5.878   0.378  0.00  0.00    +0.000 A 
ATOM     23  C   UNL     1       2.122  -5.051   1.355  0.00  0.00    +0.004 A 
ENDBRANCH  17  18
ENDBRANCH  13  17
ENDBRANCH   1  12
BRANCH   5  24
ATOM     24  S   UNL     1       2.172  -0.685   8.773  0.00  0.00    +0.109 S 
ATOM     25  O   UNL     1       0.940   0.018   8.679  0.00  0.00    -0.138 OA
ATOM     26  O   UNL     1       2.218  -1.995   9.320  0.00  0.00    -0.138 OA
BRANCH  24  27
ATOM     27  O   UNL     1       3.029   0.157   9.706  0.00  0.00    -0.347 OA
BRANCH  27  28
ATOM     28  C   UNL     1       2.927   1.496   9.495  0.00  0.00    +0.156 A 
ATOM     29  C   UNL     1       3.779   2.124   8.598  0.00  0.00    +0.048 A 
ATOM     30  C   UNL     1       3.673   3.485   8.383  0.00  0.00    +0.004 A 
ATOM     31  C   UNL     1       2.719   4.220   9.063  0.00  0.00    +0.000 A 
ATOM     32  C   UNL     1       1.869   3.596   9.957  0.00  0.00    +0.004 A 
ATOM     33  C   UNL     1       1.967   2.235  10.170  0.00  0.00    +0.048 A 
ENDBRANCH  27  28
ENDBRANCH  24  27
ENDBRANCH   5  24
TORSDOF 7
