REMARK  Name = ZINC39369823
REMARK  9 active torsions:
REMARK  status: ('A' for Active; 'I' for Inactive)
REMARK    1  A    between atoms: C_1  and  C_2
REMARK    2  A    between atoms: C_4  and  C_21
REMARK    3  A    between atoms: C_5  and  C_20
REMARK    4  A    between atoms: N_6  and  C_7
REMARK    5  A    between atoms: C_9  and  C_18
REMARK    6  A    between atoms: C_22  and  C_23
REMARK    7  A    between atoms: C_22  and  C_25
REMARK    8  A    between atoms: C_31  and  O_35
REMARK    9  A    between atoms: O_35  and  C_36
REMARK                            x       y       z     vdW  Elec       q    Type
REMARK                         _______ _______ _______ _____ _____    ______ ____
ROOT
ATOM      1  C   UNL     1       1.600   1.599  -1.513  0.00  0.00    +0.063 C 
ATOM      2  C   UNL     1       1.323   0.167  -1.134  0.00  0.00    +0.018 A 
ATOM      3  C   UNL     1       0.858  -0.783  -1.964  0.00  0.00    +0.030 A 
ATOM      4  C   UNL     1       0.741  -2.011  -1.170  0.00  0.00    -0.003 A 
ATOM      5  C   UNL     1       1.158  -1.682   0.103  0.00  0.00    +0.024 A 
ATOM      6  N   UNL     1       1.508  -0.373   0.105  0.00  0.00    -0.331 N 
ATOM      7  C   UNL     1       1.219  -2.616   1.284  0.00  0.00    +0.064 C 
ENDROOT
BRANCH   6   8
ATOM      8  C   UNL     1       2.010   0.358   1.271  0.00  0.00    +0.186 C 
ATOM      9  C   UNL     1       0.973   1.336   1.792  0.00  0.00    +0.062 C 
ATOM     10  C   UNL     1       1.339   2.565   2.054  0.00  0.00    -0.040 C 
ATOM     11  C   UNL     1       0.400   3.696   2.475  0.00  0.00    +0.033 C 
ATOM     12  C   UNL     1       1.291   4.846   2.952  0.00  0.00    +0.004 C 
ATOM     13  C   UNL     1       2.217   5.343   1.852  0.00  0.00    +0.002 C 
ATOM     14  C   UNL     1       2.814   4.212   1.019  0.00  0.00    +0.019 C 
ATOM     15  C   UNL     1       2.818   2.921   1.840  0.00  0.00    +0.076 C 
ATOM     16  S   UNL     1       3.373   1.511   0.798  0.00  0.00    -0.123 S 
BRANCH   9  17
ATOM     17  C   UNL     1      -0.383   0.922   1.992  0.00  0.00    +0.098 C 
ATOM     18  N   UNL     1      -1.459   0.593   2.151  0.00  0.00    -0.191 NA
ENDBRANCH   9  17
ENDBRANCH   6   8
BRANCH   4  19
ATOM     19  C   UNL     1       0.275  -3.324  -1.636  0.00  0.00    +0.028 C 
ATOM     20  C   UNL     1      -0.635  -3.404  -2.631  0.00  0.00    +0.072 C 
BRANCH  20  21
ATOM     21  C   UNL     1      -1.308  -2.154  -3.138  0.00  0.00    +0.216 C 
ATOM     22  N   UNL     1      -2.760  -2.360  -3.216  0.00  0.00    -0.359 N 
ATOM     23  C   UNL     1      -3.112  -2.205  -4.460  0.00  0.00    +0.061 A 
ATOM     24  C   UNL     1      -4.415  -2.288  -5.136  0.00  0.00    +0.031 A 
ATOM     25  C   UNL     1      -4.494  -2.078  -6.463  0.00  0.00    +0.048 A 
ATOM     26  C   UNL     1      -3.318  -1.766  -7.265  0.00  0.00    +0.122 A 
ATOM     27  C   UNL     1      -2.083  -1.672  -6.715  0.00  0.00    +0.073 A 
ATOM     28  C   UNL     1      -1.910  -1.887  -5.277  0.00  0.00    +0.064 A 
ATOM     29  N   UNL     1      -0.857  -1.857  -4.503  0.00  0.00    -0.359 N 
ATOM     30  H   UNL     1      -3.349  -2.573  -2.475  0.00  0.00    +0.162 HD
ATOM     31  H   UNL     1       0.054  -1.673  -4.779  0.00  0.00    +0.162 HD
BRANCH  26  32
ATOM     32  O   UNL     1      -3.463  -1.565  -8.598  0.00  0.00    -0.495 OA
ATOM     33  C   UNL     1      -4.784  -1.675  -9.131  0.00  0.00    +0.277 C 
ENDBRANCH  26  32
ENDBRANCH  20  21
BRANCH  20  34
ATOM     34  C   UNL     1      -0.961  -4.675  -3.204  0.00  0.00    +0.099 C 
ATOM     35  N   UNL     1      -1.219  -5.684  -3.658  0.00  0.00    -0.191 NA
ENDBRANCH  20  34
ENDBRANCH   4  19
TORSDOF 6
