REMARK  Name = ZINC16666335
REMARK  8 active torsions:
REMARK  status: ('A' for Active; 'I' for Inactive)
REMARK    1  A    between atoms: C_1  and  C_2
REMARK    2  A    between atoms: C_6  and  N_9
REMARK    3  A    between atoms: C_7  and  C_8
REMARK    4  A    between atoms: N_9  and  S_10
REMARK    5  A    between atoms: S_10  and  C_13
REMARK    6  A    between atoms: C_16  and  N_20
REMARK    7  A    between atoms: C_18  and  C_19
REMARK    8  A    between atoms: C_23  and  C_29
REMARK                            x       y       z     vdW  Elec       q    Type
REMARK                         _______ _______ _______ _____ _____    ______ ____
ROOT
ATOM      1  C   UNL     1      -3.438   3.962   0.007  0.00  0.00    +0.111 A 
ATOM      2  C   UNL     1      -3.672   2.662   0.417  0.00  0.00    +0.031 A 
ATOM      3  C   UNL     1      -2.769   1.665   0.106  0.00  0.00    +0.027 A 
ATOM      4  C   UNL     1      -1.624   1.970  -0.619  0.00  0.00    +0.060 A 
ATOM      5  C   UNL     1      -1.389   3.277  -1.024  0.00  0.00    +0.030 A 
ATOM      6  C   UNL     1      -2.300   4.269  -0.714  0.00  0.00    -0.022 A 
ATOM      7  C   UNL     1      -2.049   5.686  -1.159  0.00  0.00    +0.046 C 
ENDROOT
BRANCH   4   8
ATOM      8  N   UNL     1      -0.706   0.962  -0.936  0.00  0.00    -0.144 N 
ATOM      9  C   UNL     1       0.599   1.135  -1.193  0.00  0.00    +0.243 C 
ATOM     10  O   UNL     1       1.102   2.237  -1.132  0.00  0.00    -0.273 OA
ATOM     11  C   UNL     1       1.421  -0.063  -1.560  0.00  0.00    +0.097 C 
ATOM     12  C   UNL     1       0.670  -1.340  -1.097  0.00  0.00    +0.201 C 
ATOM     13  S   UNL     1      -1.044  -0.673  -1.067  0.00  0.00    +0.053 S 
ATOM     14  O   UNL     1      -1.705  -1.026   0.140  0.00  0.00    -0.155 OA
ATOM     15  O   UNL     1      -1.674  -0.835  -2.330  0.00  0.00    -0.155 OA
ATOM     16  C   UNL     1       1.622  -0.106  -3.076  0.00  0.00    +0.019 C 
ENDBRANCH   4   8
BRANCH   1  17
ATOM     17  S   UNL     1      -4.594   5.231   0.406  0.00  0.00    +0.073 S 
ATOM     18  O   UNL     1      -5.649   4.608   1.127  0.00  0.00    -0.150 OA
ATOM     19  O   UNL     1      -3.842   6.313   0.938  0.00  0.00    -0.150 OA
BRANCH  17  20
ATOM     20  N   UNL     1      -5.247   5.764  -1.020  0.00  0.00    -0.216 N 
ATOM     21  H   UNL     1      -5.154   6.695  -1.278  0.00  0.00    +0.174 HD
BRANCH  20  27
ATOM     22  C   UNL     1      -6.448   4.278  -5.548  0.00  0.00    +0.044 C 
ATOM     23  C   UNL     1      -6.530   4.130  -4.051  0.00  0.00    -0.046 A 
ATOM     24  C   UNL     1      -7.285   3.110  -3.498  0.00  0.00    +0.004 A 
ATOM     25  C   UNL     1      -7.364   2.971  -2.125  0.00  0.00    +0.002 A 
ATOM     26  C   UNL     1      -6.689   3.849  -1.300  0.00  0.00    +0.025 A 
ATOM     27  C   UNL     1      -5.930   4.874  -1.851  0.00  0.00    +0.051 A 
ATOM     28  C   UNL     1      -5.858   5.015  -3.232  0.00  0.00    -0.025 A 
ATOM     29  C   UNL     1      -5.041   6.129  -3.834  0.00  0.00    +0.046 C 
ENDBRANCH  20  27
ENDBRANCH  17  20
ENDBRANCH   1  17
TORSDOF 4
