REMARK  Name = ZINC21166125
REMARK  9 active torsions:
REMARK  status: ('A' for Active; 'I' for Inactive)
REMARK    1  A    between atoms: C_1  and  C_2
REMARK    2  A    between atoms: C_4  and  C_26
REMARK    3  A    between atoms: C_5  and  N_9
REMARK    4  A    between atoms: C_10  and  C_12
REMARK    5  A    between atoms: C_12  and  S_13
REMARK    6  A    between atoms: S_13  and  C_14
REMARK    7  A    between atoms: C_17  and  C_20
REMARK    8  A    between atoms: N_18  and  N_19
REMARK    9  A    between atoms: C_24  and  C_25
REMARK                            x       y       z     vdW  Elec       q    Type
REMARK                         _______ _______ _______ _____ _____    ______ ____
ROOT
ATOM      1  S   UNL     1       3.943  -4.812  -1.126  0.00  0.00    -0.075 S 
ENDROOT
BRANCH   1   2
ATOM      2  C   UNL     1       3.652  -6.549  -1.170  0.00  0.00    +0.209 A 
ATOM      3  N   UNL     1       2.533  -7.160  -0.854  0.00  0.00    -0.121 NA
ATOM      4  N   UNL     1       2.667  -8.430  -0.999  0.00  0.00    -0.127 NA
ATOM      5  C   UNL     1       3.879  -8.708  -1.417  0.00  0.00    +0.185 A 
ATOM      6  N   UNL     1       4.547  -7.513  -1.545  0.00  0.00    -0.224 N 
BRANCH   5   7
ATOM      7  C   UNL     1       4.423 -10.054  -1.703  0.00  0.00    +0.061 A 
ATOM      8  C   UNL     1       5.776 -10.382  -2.171  0.00  0.00    +0.053 A 
ATOM      9  C   UNL     1       5.813 -11.720  -2.289  0.00  0.00    +0.196 A 
ATOM     10  O   UNL     1       4.619 -12.223  -1.939  0.00  0.00    -0.467 OA
ATOM     11  C   UNL     1       3.776 -11.244  -1.581  0.00  0.00    +0.112 A 
ATOM     12  C   UNL     1       2.352 -11.431  -1.123  0.00  0.00    +0.087 C 
ENDBRANCH   5   7
BRANCH   6  13
ATOM     13  N   UNL     1       5.835  -7.327  -1.959  0.00  0.00    -0.295 N 
ATOM     14  H   UNL     1       6.455  -8.193  -2.235  0.00  0.00    +0.163 HD
ATOM     15  H   UNL     1       6.253  -6.311  -2.015  0.00  0.00    +0.163 HD
ENDBRANCH   6  13
ENDBRANCH   1   2
BRANCH   1  16
ATOM     16  C   UNL     1       2.327  -4.237  -0.551  0.00  0.00    +0.173 C 
BRANCH  16  18
ATOM     17  N   UNL     1       1.237  -2.080  -0.021  0.00  0.00    -0.283 N 
ATOM     18  C   UNL     1       2.340  -2.734  -0.435  0.00  0.00    +0.228 C 
ATOM     19  O   UNL     1       3.345  -2.114  -0.713  0.00  0.00    -0.275 OA
ATOM     20  H   UNL     1       0.353  -2.646   0.309  0.00  0.00    +0.155 HD
BRANCH  17  25
ATOM     21  C   UNL     1       1.145   3.593   0.014  0.00  0.00    +0.044 C 
ATOM     22  C   UNL     1       1.170   2.087   0.004  0.00  0.00    -0.049 A 
ATOM     23  C   UNL     1       1.528   1.395   1.146  0.00  0.00    +0.008 A 
ATOM     24  C   UNL     1       1.551   0.014   1.141  0.00  0.00    -0.028 A 
ATOM     25  C   UNL     1       1.214  -0.681  -0.013  0.00  0.00    +0.055 A 
ATOM     26  C   UNL     1       0.855   0.017  -1.160  0.00  0.00    +0.063 A 
ATOM     27  C   UNL     1       0.834   1.399  -1.148  0.00  0.00    +0.025 A 
ATOM     28 CL   UNL     1       0.434  -0.846  -2.606  0.00  0.00    -0.082 Cl
ATOM     29  C   UNL     1       1.941  -0.739   2.388  0.00  0.00    +0.046 C 
ENDBRANCH  17  25
ENDBRANCH  16  18
ENDBRANCH   1  16
TORSDOF 6
