REMARK  Name = ZINC40943755
REMARK  11 active torsions:
REMARK  status: ('A' for Active; 'I' for Inactive)
REMARK    1  A    between atoms: C_1  and  C_2
REMARK    2  A    between atoms: C_2  and  C_3
REMARK    3  A    between atoms: C_2  and  C_4
REMARK    4  A    between atoms: C_2  and  C_5
REMARK    5  A    between atoms: C_8  and  O_12
REMARK    6  A    between atoms: O_12  and  C_13
REMARK    7  A    between atoms: C_13  and  C_14
REMARK    8  A    between atoms: C_14  and  C_15
REMARK    9  A    between atoms: C_15  and  C_16
REMARK   10  A    between atoms: N_18  and  C_19
REMARK   11  A    between atoms: C_22  and  N_26
REMARK                            x       y       z     vdW  Elec       q    Type
REMARK                         _______ _______ _______ _____ _____    ______ ____
ROOT
ATOM      1  C   UNL     1       1.957  -3.924  -7.671  0.00  0.00    +0.099 C 
ENDROOT
BRANCH   1   2
ATOM      2  C   UNL     1       2.817  -4.304  -8.850  0.00  0.00    +0.217 C 
ATOM      3  O   UNL     1       3.964  -3.916  -8.914  0.00  0.00    -0.275 OA
ATOM      4  N   UNL     1       2.310  -5.075  -9.832  0.00  0.00    -0.285 N 
ATOM      5  H   UNL     1       1.415  -5.439  -9.750  0.00  0.00    +0.155 HD
BRANCH   4   6
ATOM      6  C   UNL     1       3.076  -5.349 -10.971  0.00  0.00    +0.048 A 
ATOM      7  C   UNL     1       4.452  -5.503 -10.864  0.00  0.00    +0.026 A 
ATOM      8  C   UNL     1       5.205  -5.774 -11.990  0.00  0.00    +0.034 A 
ATOM      9  C   UNL     1       4.590  -5.892 -13.223  0.00  0.00    +0.127 A 
ATOM     10  C   UNL     1       3.221  -5.741 -13.334  0.00  0.00    +0.049 A 
ATOM     11  C   UNL     1       2.461  -5.475 -12.210  0.00  0.00    +0.041 A 
ATOM     12 BR   UNL     1       0.586  -5.276 -12.361  0.00  0.00    -0.048 Br
BRANCH   9  13
ATOM     13  N   UNL     1       5.401  -6.182 -14.427  0.00  0.00    +0.056 N 
ATOM     14  O   UNL     1       6.599  -6.314 -14.332  0.00  0.00    -0.126 OA
ATOM     15  O   UNL     1       4.865  -6.286 -15.506  0.00  0.00    -0.126 OA
ENDBRANCH   9  13
ENDBRANCH   4   6
ENDBRANCH   1   2
BRANCH   1  16
ATOM     16  C   UNL     1       2.767  -3.053  -6.709  0.00  0.00    +0.050 C 
BRANCH  16  17
ATOM     17  C   UNL     1       1.895  -2.668  -5.513  0.00  0.00    +0.229 C 
BRANCH  17  18
ATOM     18  O   UNL     1       2.652  -1.854  -4.614  0.00  0.00    -0.491 OA
BRANCH  18  22
ATOM     19  C   UNL     1       0.732  -0.546  -1.204  0.00  0.00    -0.041 A 
ATOM     20  C   UNL     1       0.058  -1.337  -2.116  0.00  0.00    +0.008 A 
ATOM     21  C   UNL     1       0.698  -1.776  -3.258  0.00  0.00    +0.047 A 
ATOM     22  C   UNL     1       2.019  -1.423  -3.491  0.00  0.00    +0.134 A 
ATOM     23  C   UNL     1       2.694  -0.629  -2.574  0.00  0.00    +0.060 A 
ATOM     24  C   UNL     1       2.047  -0.188  -1.435  0.00  0.00    +0.023 A 
ATOM     25 BR   UNL     1       4.496  -0.146  -2.886  0.00  0.00    -0.047 Br
BRANCH  19  27
ATOM     26  C   UNL     1       0.007   1.460   0.060  0.00  0.00    +0.015 C 
ATOM     27  C   UNL     1       0.031  -0.070   0.042  0.00  0.00    -0.013 C 
ATOM     28  C   UNL     1       0.777  -0.582   1.276  0.00  0.00    +0.015 C 
ATOM     29  C   UNL     1      -1.403  -0.603   0.056  0.00  0.00    +0.015 C 
ENDBRANCH  19  27
ENDBRANCH  18  22
ENDBRANCH  17  18
ENDBRANCH  16  17
ENDBRANCH   1  16
TORSDOF 8
