REMARK  Name = ZINC39943996
REMARK  16 active torsions:
REMARK  status: ('A' for Active; 'I' for Inactive)
REMARK    1  A    between atoms: C_1  and  C_2
REMARK    2  A    between atoms: C_4  and  C_34
REMARK    3  A    between atoms: C_5  and  C_33
REMARK    4  A    between atoms: C_6  and  C_8
REMARK    5  A    between atoms: C_8  and  C_10
REMARK    6  A    between atoms: C_10  and  C_12
REMARK    7  A    between atoms: C_10  and  O_13
REMARK    8  A    between atoms: O_13  and  C_14
REMARK    9  A    between atoms: C_14  and  C_16
REMARK   10  A    between atoms: C_16  and  C_18
REMARK   11  A    between atoms: C_16  and  N_19
REMARK   12  A    between atoms: N_19  and  C_20
REMARK   13  A    between atoms: C_23  and  C_29
REMARK   14  A    between atoms: C_25  and  N_26
REMARK   15  A    between atoms: C_34  and  O_36
REMARK   16  A    between atoms: O_36  and  C_37
REMARK                            x       y       z     vdW  Elec       q    Type
REMARK                         _______ _______ _______ _____ _____    ______ ____
ROOT
ATOM      1  C   UNL     1       3.002  -2.940   5.841  0.00  0.00    +0.328 C 
ATOM      2  O   UNL     1       3.866  -2.400   5.191  0.00  0.00    -0.249 OA
ENDROOT
BRANCH   1   3
ATOM      3  C   UNL     1       3.308  -4.209   6.593  0.00  0.00    +0.177 C 
ATOM      4  C   UNL     1       3.063  -3.989   8.087  0.00  0.00    +0.040 C 
BRANCH   3   5
ATOM      5  N   UNL     1       4.709  -4.579   6.378  0.00  0.00    -0.330 N 
ATOM      6  H   UNL     1       5.361  -3.898   6.147  0.00  0.00    +0.147 HD
BRANCH   5   7
ATOM      7  C   UNL     1       5.107  -5.912   6.503  0.00  0.00    +0.058 A 
ATOM      8  C   UNL     1       4.204  -6.869   6.951  0.00  0.00    +0.026 A 
ATOM      9  C   UNL     1       4.600  -8.186   7.074  0.00  0.00    +0.014 A 
ATOM     10  C   UNL     1       5.894  -8.553   6.751  0.00  0.00    +0.057 A 
ATOM     11  C   UNL     1       6.795  -7.604   6.306  0.00  0.00    +0.047 A 
ATOM     12  C   UNL     1       6.404  -6.286   6.175  0.00  0.00    +0.147 A 
BRANCH  10  13
ATOM     13  C   UNL     1       6.323  -9.992   6.886  0.00  0.00    +0.417 C 
ATOM     14  F   UNL     1       5.248 -10.757   7.351  0.00  0.00    -0.166 F 
ATOM     15  F   UNL     1       6.735 -10.475   5.639  0.00  0.00    -0.166 F 
ATOM     16  F   UNL     1       7.384 -10.079   7.794  0.00  0.00    -0.166 F 
ENDBRANCH  10  13
BRANCH  12  17
ATOM     17  N   UNL     1       7.367  -5.271   5.692  0.00  0.00    +0.058 N 
ATOM     18  O   UNL     1       6.994  -4.383   4.962  0.00  0.00    -0.126 OA
ATOM     19  O   UNL     1       8.527  -5.331   6.028  0.00  0.00    -0.126 OA
ENDBRANCH  12  17
ENDBRANCH   5   7
ENDBRANCH   3   5
ENDBRANCH   1   3
BRANCH   1  20
ATOM     20  O   UNL     1       1.770  -2.409   5.892  0.00  0.00    -0.452 OA
BRANCH  20  21
ATOM     21  C   UNL     1       1.551  -1.205   5.155  0.00  0.00    +0.245 C 
ATOM     22  C   UNL     1       1.856   0.001   6.046  0.00  0.00    +0.061 C 
BRANCH  21  23
ATOM     23  C   UNL     1       0.115  -1.147   4.704  0.00  0.00    +0.221 C 
ATOM     24  O   UNL     1      -0.721  -1.819   5.260  0.00  0.00    -0.286 OA
BRANCH  23  29
ATOM     25  C   UNL     1      -0.111   2.723   2.117  0.00  0.00    +0.038 C 
ATOM     26  C   UNL     1      -0.208   1.213   1.889  0.00  0.00    +0.140 C 
ATOM     27  C   UNL     1      -1.641   0.753   2.038  0.00  0.00    +0.065 C 
ATOM     28  C   UNL     1      -1.642  -0.129   3.058  0.00  0.00    -0.010 C 
ATOM     29  C   UNL     1      -0.273  -0.263   3.578  0.00  0.00    +0.109 C 
ATOM     30  N   UNL     1       0.550   0.495   2.920  0.00  0.00    -0.272 NA
ATOM     31  C   UNL     1      -2.852  -0.860   3.580  0.00  0.00    +0.046 C 
BRANCH  27  32
ATOM     32  C   UNL     1      -2.796   1.181   1.237  0.00  0.00    +0.337 C 
ATOM     33  O   UNL     1      -3.899   0.725   1.469  0.00  0.00    -0.245 OA
BRANCH  32  34
ATOM     34  O   UNL     1      -2.633   2.078   0.244  0.00  0.00    -0.465 OA
ATOM     35  C   UNL     1      -3.799   2.448  -0.494  0.00  0.00    +0.280 C 
ENDBRANCH  32  34
ENDBRANCH  27  32
ENDBRANCH  23  29
ENDBRANCH  21  23
ENDBRANCH  20  21
ENDBRANCH   1  20
TORSDOF 11
