REMARK  Name = ZINC03466318
REMARK  7 active torsions:
REMARK  status: ('A' for Active; 'I' for Inactive)
REMARK    1  A    between atoms: C_1  and  C_2
REMARK    2  A    between atoms: C_5  and  N_25
REMARK    3  A    between atoms: C_6  and  N_8
REMARK    4  A    between atoms: N_8  and  C_9
REMARK    5  A    between atoms: C_9  and  C_10
REMARK    6  A    between atoms: C_16  and  C_18
REMARK    7  A    between atoms: C_22  and  N_24
REMARK                            x       y       z     vdW  Elec       q    Type
REMARK                         _______ _______ _______ _____ _____    ______ ____
ROOT
ATOM      1  N   UNL     1       1.095   6.012   0.122  0.00  0.00    -0.261 N 
ATOM      2  C   UNL     1      -0.064   5.324   0.112  0.00  0.00    +0.251 C 
ATOM      3  O   UNL     1      -1.123   5.917   0.036  0.00  0.00    -0.270 OA
ENDROOT
BRANCH   1   9
ATOM      4  C   UNL     1       4.975   4.331  -2.386  0.00  0.00    +0.044 C 
ATOM      5  C   UNL     1       4.219   4.497  -1.093  0.00  0.00    -0.049 A 
ATOM      6  C   UNL     1       4.734   3.972   0.079  0.00  0.00    +0.005 A 
ATOM      7  C   UNL     1       4.046   4.120   1.268  0.00  0.00    +0.025 A 
ATOM      8  C   UNL     1       2.835   4.798   1.290  0.00  0.00    +0.046 A 
ATOM      9  C   UNL     1       2.317   5.328   0.108  0.00  0.00    +0.058 A 
ATOM     10  C   UNL     1       3.011   5.169  -1.082  0.00  0.00    +0.028 A 
BRANCH   8  11
ATOM     11  N   UNL     1       2.137   4.949   2.492  0.00  0.00    -0.357 N 
ATOM     12  H   UNL     1       1.290   5.422   2.505  0.00  0.00    +0.142 HD
ATOM     13  H   UNL     1       2.499   4.580   3.313  0.00  0.00    +0.142 HD
ENDBRANCH   8  11
ENDBRANCH   1   9
BRANCH   2  14
ATOM     14  C   UNL     1      -0.047   3.848   0.191  0.00  0.00    +0.039 A 
ATOM     15  C   UNL     1       0.856   3.115  -0.581  0.00  0.00    +0.013 A 
ATOM     16  C   UNL     1       0.869   1.737  -0.506  0.00  0.00    +0.003 A 
ATOM     17  C   UNL     1      -0.010   1.077   0.334  0.00  0.00    +0.023 A 
ATOM     18  C   UNL     1      -0.916   1.798   1.103  0.00  0.00    +0.025 A 
ATOM     19  C   UNL     1      -0.933   3.183   1.038  0.00  0.00    +0.035 A 
BRANCH  18  20
ATOM     20  N   UNL     1      -1.805   1.126   1.946  0.00  0.00    -0.358 N 
ATOM     21  H   UNL     1      -1.791   0.158   1.994  0.00  0.00    +0.142 HD
ATOM     22  H   UNL     1      -2.437   1.629   2.483  0.00  0.00    +0.142 HD
ENDBRANCH  18  20
ENDBRANCH   2  14
BRANCH   1  23
ATOM     23  C   UNL     1       1.076   7.477   0.149  0.00  0.00    +0.149 C 
BRANCH  23  24
ATOM     24  C   UNL     1       1.072   7.953   1.579  0.00  0.00    -0.030 A 
ATOM     25  C   UNL     1      -0.127   8.162   2.234  0.00  0.00    +0.005 A 
ATOM     26  C   UNL     1      -0.131   8.594   3.547  0.00  0.00    +0.000 A 
ATOM     27  C   UNL     1       1.064   8.828   4.201  0.00  0.00    +0.000 A 
ATOM     28  C   UNL     1       2.263   8.624   3.544  0.00  0.00    +0.000 A 
ATOM     29  C   UNL     1       2.267   8.187   2.233  0.00  0.00    +0.005 A 
ENDBRANCH  23  24
ENDBRANCH   1  23
TORSDOF 6
