REMARK  Name = ZINC35894527
REMARK  7 active torsions:
REMARK  status: ('A' for Active; 'I' for Inactive)
REMARK    1  A    between atoms: C_1  and  C_2
REMARK    2  A    between atoms: C_2  and  O_3
REMARK    3  A    between atoms: O_3  and  C_4
REMARK    4  A    between atoms: C_12  and  C_14
REMARK    5  A    between atoms: C_19  and  N_37
REMARK    6  A    between atoms: N_27  and  C_30
REMARK    7  A    between atoms: C_30  and  C_31
REMARK                            x       y       z     vdW  Elec       q    Type
REMARK                         _______ _______ _______ _____ _____    ______ ____
ROOT
ATOM      1  C   UNL     1      -6.473  -5.355  -1.254  0.00  0.00    +0.098 C 
ATOM      2  C   UNL     1      -5.840  -6.021  -0.050  0.00  0.00    +0.051 C 
ATOM      3  C   UNL     1      -6.670  -5.853   1.189  0.00  0.00    -0.023 A 
ATOM      4  C   UNL     1      -6.056  -5.822   2.429  0.00  0.00    +0.038 A 
ATOM      5  C   UNL     1      -6.813  -5.671   3.575  0.00  0.00    +0.127 A 
ATOM      6  C   UNL     1      -8.188  -5.549   3.488  0.00  0.00    +0.034 A 
ATOM      7  C   UNL     1      -8.807  -5.577   2.255  0.00  0.00    +0.025 A 
ATOM      8  C   UNL     1      -8.048  -5.728   1.099  0.00  0.00    +0.033 A 
ATOM      9  N   UNL     1      -8.672  -5.745  -0.142  0.00  0.00    -0.329 N 
ATOM     10  C   UNL     1      -7.951  -5.598  -1.395  0.00  0.00    +0.069 C 
ATOM     11  C   UNL     1      -8.258  -6.803  -2.285  0.00  0.00    -0.055 C 
ATOM     12  N   UNL     1      -9.715  -6.921  -2.442  0.00  0.00    +0.385 N 
ATOM     13  C   UNL     1     -10.354  -7.168  -1.145  0.00  0.00    -0.059 C 
ATOM     14  C   UNL     1     -10.131  -5.965  -0.226  0.00  0.00    +0.087 C 
ATOM     15  H   UNL     1     -10.078  -6.065  -2.835  0.00  0.00    -0.081 HD
ENDROOT
BRANCH   1  24
ATOM     16  C   UNL     1      -1.466  -1.833  -2.175  0.00  0.00    +0.403 C 
ATOM     17  O   UNL     1      -0.612  -2.546  -2.663  0.00  0.00    -0.226 OA
ATOM     18  N   UNL     1      -2.571  -2.381  -1.631  0.00  0.00    -0.264 N 
ATOM     19  C   UNL     1      -3.615  -1.531  -1.042  0.00  0.00    +0.130 C 
ATOM     20  C   UNL     1      -4.954  -1.863  -1.712  0.00  0.00    +0.127 C 
ATOM     21  N   UNL     1      -5.136  -3.321  -1.698  0.00  0.00    -0.298 N 
ATOM     22  C   UNL     1      -4.093  -4.172  -2.287  0.00  0.00    +0.127 C 
ATOM     23  C   UNL     1      -2.756  -3.839  -1.622  0.00  0.00    +0.130 C 
ATOM     24  C   UNL     1      -6.241  -3.869  -1.154  0.00  0.00    +0.221 C 
ATOM     25  O   UNL     1      -7.049  -3.166  -0.584  0.00  0.00    -0.275 OA
BRANCH  16  26
ATOM     26  O   UNL     1      -1.308  -0.496  -2.176  0.00  0.00    -0.451 OA
BRANCH  26  28
ATOM     27  C   UNL     1      -0.112   1.543  -2.678  0.00  0.00    +0.048 C 
ATOM     28  C   UNL     1      -0.113   0.015  -2.769  0.00  0.00    +0.230 C 
ENDBRANCH  26  28
ENDBRANCH  16  26
ENDBRANCH   1  24
BRANCH   5  29
ATOM     29  N   UNL     1      -6.151  -5.639   4.898  0.00  0.00    +0.056 N 
ATOM     30  O   UNL     1      -4.949  -5.745   4.975  0.00  0.00    -0.126 OA
ATOM     31  O   UNL     1      -6.811  -5.506   5.902  0.00  0.00    -0.126 OA
ENDBRANCH   5  29
BRANCH  12  32
ATOM     32  C   UNL     1     -10.015  -8.035  -3.351  0.00  0.00    -0.043 C 
BRANCH  32  33
ATOM     33  C   UNL     1     -11.499  -8.084  -3.613  0.00  0.00    -0.064 A 
ATOM     34  C   UNL     1     -12.322  -8.830  -2.790  0.00  0.00    +0.002 A 
ATOM     35  C   UNL     1     -13.682  -8.875  -3.030  0.00  0.00    +0.000 A 
ATOM     36  C   UNL     1     -14.220  -8.173  -4.093  0.00  0.00    +0.000 A 
ATOM     37  C   UNL     1     -13.397  -7.427  -4.915  0.00  0.00    +0.000 A 
ATOM     38  C   UNL     1     -12.037  -7.379  -4.673  0.00  0.00    +0.002 A 
ENDBRANCH  32  33
ENDBRANCH  12  32
TORSDOF 6
