REMARK  Name = ZINC17152495
REMARK  9 active torsions:
REMARK  status: ('A' for Active; 'I' for Inactive)
REMARK    1  A    between atoms: C_1  and  C_2
REMARK    2  A    between atoms: C_2  and  C_4
REMARK    3  A    between atoms: C_9  and  O_10
REMARK    4  A    between atoms: O_10  and  C_11
REMARK    5  A    between atoms: C_11  and  C_12
REMARK    6  A    between atoms: C_12  and  O_13
REMARK    7  A    between atoms: O_13  and  C_14
REMARK    8  A    between atoms: C_14  and  C_16
REMARK    9  A    between atoms: C_16  and  N_17
REMARK                            x       y       z     vdW  Elec       q    Type
REMARK                         _______ _______ _______ _____ _____    ______ ____
ROOT
ATOM      1  C   UNL     1       0.132   5.226   1.429  0.00  0.00    +0.327 C 
ATOM      2  O   UNL     1       0.418   6.017   0.562  0.00  0.00    -0.249 OA
ENDROOT
BRANCH   1   3
ATOM      3  O   UNL     1       0.396   3.920   1.260  0.00  0.00    -0.460 OA
BRANCH   3   4
ATOM      4  C   UNL     1       1.027   3.532   0.011  0.00  0.00    +0.273 C 
BRANCH   4   5
ATOM      5  C   UNL     1       1.248   2.018   0.001  0.00  0.00    +0.270 C 
BRANCH   5   6
ATOM      6  O   UNL     1      -0.016   1.352   0.009  0.00  0.00    -0.488 OA
BRANCH   6  12
ATOM      7  C   UNL     1      -1.202  -0.726   0.010  0.00  0.00    +0.059 A 
ATOM      8  C   UNL     1      -1.168  -2.126   0.002  0.00  0.00    +0.015 A 
ATOM      9  C   UNL     1       0.042  -2.783  -0.013  0.00  0.00    +0.001 A 
ATOM     10  C   UNL     1       1.228  -2.065  -0.021  0.00  0.00    +0.004 A 
ATOM     11  C   UNL     1       1.210  -0.685  -0.019  0.00  0.00    +0.046 A 
ATOM     12  C   UNL     1       0.002  -0.004   0.002  0.00  0.00    +0.131 A 
BRANCH   7  14
ATOM     13  C   UNL     1      -3.778  -0.799   0.033  0.00  0.00    +0.092 C 
ATOM     14  C   UNL     1      -2.488  -0.019   0.025  0.00  0.00    +0.164 C 
ATOM     15  O   UNL     1      -2.513   1.194   0.032  0.00  0.00    -0.292 OA
ENDBRANCH   7  14
ENDBRANCH   6  12
ENDBRANCH   5   6
ENDBRANCH   4   5
ENDBRANCH   3   4
ENDBRANCH   1   3
BRANCH   1  16
ATOM     16  C   UNL     1      -0.521   5.704   2.700  0.00  0.00    +0.246 C 
BRANCH  16  17
ATOM     17  N   UNL     1      -0.701   7.156   2.640  0.00  0.00    -0.285 N 
ATOM     18  C   UNL     1       0.274   7.975   3.106  0.00  0.00    +0.203 A 
ATOM     19  N   UNL     1       0.159   9.273   3.067  0.00  0.00    -0.233 NA
ATOM     20  C   UNL     1      -0.944   9.858   2.571  0.00  0.00    +0.124 A 
ATOM     21  C   UNL     1      -1.376  11.252   2.394  0.00  0.00    +0.046 A 
ATOM     22  C   UNL     1      -0.801  12.489   2.677  0.00  0.00    +0.014 A 
ATOM     23  C   UNL     1      -1.488  13.646   2.381  0.00  0.00    +0.001 A 
ATOM     24  C   UNL     1      -2.747  13.581   1.802  0.00  0.00    +0.004 A 
ATOM     25  C   UNL     1      -3.327  12.364   1.518  0.00  0.00    +0.047 A 
ATOM     26  C   UNL     1      -2.651  11.184   1.809  0.00  0.00    +0.138 A 
ATOM     27  O   UNL     1      -2.971   9.884   1.642  0.00  0.00    -0.448 OA
ATOM     28  C   UNL     1      -1.985   9.075   2.082  0.00  0.00    +0.219 A 
ATOM     29  C   UNL     1      -1.839   7.670   2.127  0.00  0.00    +0.298 A 
ATOM     30  O   UNL     1      -2.722   6.938   1.711  0.00  0.00    -0.264 OA
ENDBRANCH  16  17
ENDBRANCH   1  16
TORSDOF 8
