REMARK  Name = ZINC62564187
REMARK  13 active torsions:
REMARK  status: ('A' for Active; 'I' for Inactive)
REMARK    1  A    between atoms: C_1  and  C_2
REMARK    2  A    between atoms: C_7  and  N_8
REMARK    3  A    between atoms: C_9  and  C_34
REMARK    4  A    between atoms: C_10  and  C_14
REMARK    5  A    between atoms: C_11  and  C_13
REMARK    6  A    between atoms: C_14  and  N_15
REMARK    7  A    between atoms: N_15  and  C_16
REMARK    8  A    between atoms: N_15  and  C_17
REMARK    9  A    between atoms: C_17  and  N_18
REMARK   10  A    between atoms: N_21  and  C_33
REMARK   11  A    between atoms: C_22  and  C_24
REMARK   12  A    between atoms: C_24  and  O_25
REMARK   13  A    between atoms: O_25  and  C_26
REMARK                            x       y       z     vdW  Elec       q    Type
REMARK                         _______ _______ _______ _____ _____    ______ ____
ROOT
ATOM      1  N   UNL     1       1.988   0.729   6.250  0.00  0.00    +0.394 N 
ATOM      2  C   UNL     1       2.469   2.062   5.862  0.00  0.00    -0.093 C 
ATOM      3  H   UNL     1       2.506   0.025   5.745  0.00  0.00    -0.079 HD
ENDROOT
BRANCH   1   4
ATOM      4  C   UNL     1       0.559   0.611   5.929  0.00  0.00    -0.037 C 
BRANCH   4   7
ATOM      5  N   UNL     1       0.177   0.118   2.334  0.00  0.00    -0.236 N 
ATOM      6  C   UNL     1       0.378  -0.366   3.581  0.00  0.00    +0.043 A 
ATOM      7  C   UNL     1       0.372   0.683   4.436  0.00  0.00    -0.020 A 
ATOM      8  C   UNL     1       0.162   1.847   3.688  0.00  0.00    +0.062 A 
ATOM      9  N   UNL     1       0.050   1.510   2.428  0.00  0.00    -0.171 NA
ATOM     10  C   UNL     1       0.083   3.248   4.238  0.00  0.00    +0.068 C 
ATOM     11  C   UNL     1       0.572  -1.813   3.952  0.00  0.00    +0.066 C 
BRANCH   5  18
ATOM     12  C   UNL     1      -1.979   0.599   0.540  0.00  0.00    +0.046 C 
ATOM     13  C   UNL     1      -0.921  -0.435   0.254  0.00  0.00    -0.025 A 
ATOM     14  C   UNL     1      -0.978  -1.179  -0.909  0.00  0.00    +0.005 A 
ATOM     15  C   UNL     1      -0.007  -2.128  -1.173  0.00  0.00    +0.000 A 
ATOM     16  C   UNL     1       1.022  -2.336  -0.273  0.00  0.00    +0.002 A 
ATOM     17  C   UNL     1       1.084  -1.597   0.892  0.00  0.00    +0.028 A 
ATOM     18  C   UNL     1       0.114  -0.638   1.156  0.00  0.00    +0.069 A 
ENDBRANCH   5  18
ENDBRANCH   4   7
ENDBRANCH   1   4
BRANCH   1  19
ATOM     19  C   UNL     1       2.184   0.539   7.693  0.00  0.00    +0.072 C 
BRANCH  19  20
ATOM     20  N   UNL     1       3.617   0.538   7.996  0.00  0.00    -0.257 N 
ATOM     21  C   UNL     1       4.372  -0.542   8.288  0.00  0.00    +0.176 A 
ATOM     22  S   UNL     1       3.831  -2.164   8.372  0.00  0.00    -0.011 S 
ATOM     23  N   UNL     1       5.631  -0.108   8.501  0.00  0.00    -0.307 N 
ATOM     24  C   UNL     1       5.651   1.255   8.338  0.00  0.00    +0.170 A 
ATOM     25  N   UNL     1       4.460   1.657   8.030  0.00  0.00    -0.154 NA
ATOM     26  C   UNL     1       6.780  -0.948   8.847  0.00  0.00    +0.152 C 
BRANCH  24  27
ATOM     27  C   UNL     1       6.863   2.138   8.486  0.00  0.00    +0.305 C 
BRANCH  27  28
ATOM     28  O   UNL     1       6.496   3.497   8.242  0.00  0.00    -0.483 OA
BRANCH  28  29
ATOM     29  C   UNL     1       7.481   4.429   8.336  0.00  0.00    +0.139 A 
ATOM     30  C   UNL     1       8.775   4.043   8.651  0.00  0.00    +0.047 A 
ATOM     31  C   UNL     1       9.774   4.992   8.746  0.00  0.00    +0.004 A 
ATOM     32  C   UNL     1       9.486   6.327   8.527  0.00  0.00    +0.002 A 
ATOM     33  C   UNL     1       8.197   6.715   8.213  0.00  0.00    +0.023 A 
ATOM     34  C   UNL     1       7.194   5.769   8.111  0.00  0.00    +0.083 A 
ATOM     35 CL   UNL     1       5.577   6.256   7.709  0.00  0.00    -0.080 Cl
ENDBRANCH  28  29
ENDBRANCH  27  28
ENDBRANCH  24  27
ENDBRANCH  19  20
ENDBRANCH   1  19
TORSDOF 8
