REMARK  Name = ZINC35876766
REMARK  3 active torsions:
REMARK  status: ('A' for Active; 'I' for Inactive)
REMARK    1  A    between atoms: C_1  and  C_2
REMARK    2  A    between atoms: C_22  and  C_30
REMARK    3  A    between atoms: C_30  and  C_32
REMARK                            x       y       z     vdW  Elec       q    Type
REMARK                         _______ _______ _______ _____ _____    ______ ____
ROOT
ATOM      1  C   UNL     1       0.048   1.581   0.173  0.00  0.00    +0.046 C 
ATOM      2  C   UNL     1       0.034   0.075   0.124  0.00  0.00    -0.028 A 
ATOM      3  C   UNL     1      -0.006  -0.573  -1.094  0.00  0.00    +0.025 A 
ATOM      4  C   UNL     1      -0.020  -1.955  -1.149  0.00  0.00    +0.042 A 
ATOM      5  C   UNL     1       0.007  -2.692   0.023  0.00  0.00    +0.024 A 
ATOM      6  C   UNL     1       0.048  -2.048   1.239  0.00  0.00    -0.025 A 
ATOM      7  C   UNL     1       0.067  -0.659   1.307  0.00  0.00    +0.039 A 
ATOM      8  N   UNL     1       0.115  -0.242   2.639  0.00  0.00    -0.286 N 
ATOM      9  C   UNL     1       0.137  -1.279   3.496  0.00  0.00    +0.212 C 
ATOM     10  O   UNL     1       0.179  -1.215   4.707  0.00  0.00    -0.277 OA
ATOM     11  C   UNL     1       0.087  -2.536   2.664  0.00  0.00    +0.060 C 
ATOM     12  C   UNL     1      -1.136  -3.382   2.992  0.00  0.00    +0.085 C 
ATOM     13  C   UNL     1      -1.759  -2.989   4.302  0.00  0.00    -0.011 A 
ATOM     14  C   UNL     1      -1.288  -2.926   5.595  0.00  0.00    +0.006 A 
ATOM     15  C   UNL     1      -2.124  -2.514   6.617  0.00  0.00    +0.000 A 
ATOM     16  C   UNL     1      -3.433  -2.165   6.337  0.00  0.00    +0.002 A 
ATOM     17  C   UNL     1      -3.909  -2.226   5.044  0.00  0.00    +0.023 A 
ATOM     18  C   UNL     1      -3.074  -2.640   4.009  0.00  0.00    +0.038 A 
ATOM     19  N   UNL     1      -3.317  -2.781   2.641  0.00  0.00    -0.285 N 
ATOM     20  C   UNL     1      -2.230  -3.212   1.973  0.00  0.00    +0.228 C 
ATOM     21  O   UNL     1      -2.148  -3.423   0.782  0.00  0.00    -0.275 OA
ATOM     22  C   UNL     1      -0.631  -4.832   3.029  0.00  0.00    +0.066 C 
ATOM     23  C   UNL     1       0.859  -4.685   3.385  0.00  0.00    -0.055 C 
ATOM     24  N   UNL     1       1.287  -3.353   2.901  0.00  0.00    +0.395 N 
ATOM     25  C   UNL     1       1.958  -3.583   1.594  0.00  0.00    -0.076 C 
ATOM     26  C   UNL     1       2.680  -4.939   1.776  0.00  0.00    -0.020 C 
ATOM     27  C   UNL     1       1.687  -5.755   2.662  0.00  0.00    -0.016 C 
ATOM     28 CL   UNL     1      -0.071  -2.764  -2.685  0.00  0.00    -0.084 Cl
ATOM     29  H   UNL     1       0.130   0.688   2.915  0.00  0.00    +0.155 HD
ATOM     30  H   UNL     1      -4.171  -2.591   2.221  0.00  0.00    +0.155 HD
ATOM     31  H   UNL     1       1.903  -2.908   3.565  0.00  0.00    -0.079 HD
ENDROOT
BRANCH  22  32
ATOM     32  C   UNL     1      -1.358  -5.621   4.087  0.00  0.00    +0.166 C 
ATOM     33  O   UNL     1      -0.892  -5.711   5.203  0.00  0.00    -0.292 OA
BRANCH  32  34
ATOM     34  C   UNL     1      -2.631  -6.282   3.766  0.00  0.00    +0.018 A 
ATOM     35  C   UNL     1      -3.109  -6.286   2.451  0.00  0.00    +0.014 A 
ATOM     36  C   UNL     1      -4.303  -6.907   2.157  0.00  0.00    +0.039 A 
ATOM     37  C   UNL     1      -5.031  -7.527   3.162  0.00  0.00    +0.123 A 
ATOM     38  C   UNL     1      -4.563  -7.527   4.468  0.00  0.00    +0.039 A 
ATOM     39  C   UNL     1      -3.368  -6.915   4.774  0.00  0.00    +0.014 A 
ATOM     40  F   UNL     1      -6.202  -8.134   2.868  0.00  0.00    -0.205 F 
ENDBRANCH  32  34
ENDBRANCH  22  32
TORSDOF 2
