REMARK  Name = ZINC12190895
REMARK  11 active torsions:
REMARK  status: ('A' for Active; 'I' for Inactive)
REMARK    1  A    between atoms: C_1  and  C_2
REMARK    2  A    between atoms: C_2  and  C_4
REMARK    3  A    between atoms: C_8  and  C_11
REMARK    4  A    between atoms: C_11  and  N_70
REMARK    5  A    between atoms: C_15  and  C_32
REMARK    6  A    between atoms: C_16  and  O_23
REMARK    7  A    between atoms: O_23  and  C_24
REMARK    8  A    between atoms: C_24  and  C_25
REMARK    9  A    between atoms: C_25  and  C_26
REMARK   10  A    between atoms: C_32  and  O_34
REMARK   11  A    between atoms: O_34  and  C_35
REMARK                            x       y       z     vdW  Elec       q    Type
REMARK                         _______ _______ _______ _____ _____    ______ ____
ROOT
ATOM      1  C   UNL     1       0.003   1.377  -2.373  0.00  0.00    -0.072 C 
ATOM      2  C   UNL     1      -0.731   1.967  -3.575  0.00  0.00    +0.036 C 
ATOM      3  C   UNL     1      -1.645   0.951  -4.214  0.00  0.00    +0.038 A 
ATOM      4  C   UNL     1      -1.865   1.082  -5.579  0.00  0.00    +0.120 A 
ATOM      5  C   UNL     1      -2.762   0.145  -6.258  0.00  0.00    +0.141 A 
ATOM      6  C   UNL     1      -3.370  -0.831  -5.495  0.00  0.00    +0.116 A 
ATOM      7  C   UNL     1      -3.092  -0.893  -4.129  0.00  0.00    +0.255 A 
ATOM      8  O   UNL     1      -3.644  -1.746  -3.453  0.00  0.00    -0.268 OA
ATOM      9  N   UNL     1      -2.230  -0.039  -3.529  0.00  0.00    -0.313 N 
ATOM     10  C   UNL     1      -1.959  -0.280  -2.108  0.00  0.00    +0.106 C 
ATOM     11  C   UNL     1      -2.123   1.002  -1.290  0.00  0.00    -0.056 C 
ATOM     12  N   UNL     1      -0.806   1.656  -1.168  0.00  0.00    +0.384 N 
ATOM     13  H   UNL     1      -0.942   2.670  -1.084  0.00  0.00    -0.081 HD
ENDROOT
BRANCH   4  14
ATOM     14  C   UNL     1      -1.202   2.155  -6.337  0.00  0.00    +0.344 C 
ATOM     15  O   UNL     1      -0.222   1.906  -7.011  0.00  0.00    -0.245 OA
BRANCH  14  16
ATOM     16  O   UNL     1      -1.681   3.414  -6.283  0.00  0.00    -0.464 OA
ATOM     17  C   UNL     1      -0.976   4.421  -7.056  0.00  0.00    +0.280 C 
ENDBRANCH  14  16
ENDBRANCH   4  14
BRANCH  12  18
ATOM     18  C   UNL     1      -0.105   1.164   0.037  0.00  0.00    -0.048 C 
BRANCH  18  22
ATOM     19  C   UNL     1      -2.468   2.714   3.276  0.00  0.00    +0.018 C 
ATOM     20  C   UNL     1      -1.012   3.192   3.204  0.00  0.00    +0.012 C 
ATOM     21  C   UNL     1      -0.517   3.030   1.767  0.00  0.00    +0.029 C 
ATOM     22  C   UNL     1      -0.837   1.654   1.260  0.00  0.00    -0.090 C 
ATOM     23  C   UNL     1      -1.698   0.860   1.811  0.00  0.00    -0.029 C 
ATOM     24  C   UNL     1      -2.494   1.203   3.037  0.00  0.00    +0.035 C 
BRANCH  19  26
ATOM     25  C   UNL     1      -2.385   2.449   5.872  0.00  0.00    +0.039 C 
ATOM     26  C   UNL     1      -3.035   3.021   4.638  0.00  0.00    -0.076 C 
ATOM     27  C   UNL     1      -4.093   3.785   4.750  0.00  0.00    +0.007 C 
ENDBRANCH  19  26
ENDBRANCH  18  22
ENDBRANCH  12  18
BRANCH   5  28
ATOM     28  O   UNL     1      -2.987   0.234  -7.589  0.00  0.00    -0.491 OA
BRANCH  28  29
ATOM     29  C   UNL     1      -3.878  -0.726  -8.162  0.00  0.00    +0.235 C 
BRANCH  29  30
ATOM     30  C   UNL     1      -4.007  -0.469  -9.664  0.00  0.00    +0.096 C 
BRANCH  30  31
ATOM     31  C   UNL     1      -4.947  -1.481 -10.268  0.00  0.00    +0.044 A 
ATOM     32  C   UNL     1      -6.041  -1.049 -10.993  0.00  0.00    +0.023 A 
ATOM     33  C   UNL     1      -6.899  -1.988 -11.545  0.00  0.00    +0.003 A 
ATOM     34  C   UNL     1      -6.622  -3.332 -11.345  0.00  0.00    +0.020 A 
ATOM     35  C   UNL     1      -5.509  -3.688 -10.608  0.00  0.00    +0.111 A 
ATOM     36  N   UNL     1      -4.712  -2.768 -10.102  0.00  0.00    -0.260 NA
ENDBRANCH  30  31
ENDBRANCH  29  30
ENDBRANCH  28  29
ENDBRANCH   5  28
TORSDOF 9
