REMARK  Name = ZINC39883579
REMARK  10 active torsions:
REMARK  status: ('A' for Active; 'I' for Inactive)
REMARK    1  A    between atoms: C_1  and  C_2
REMARK    2  A    between atoms: N_8  and  S_9
REMARK    3  A    between atoms: S_9  and  C_12
REMARK    4  A    between atoms: C_15  and  N_18
REMARK    5  A    between atoms: C_19  and  C_21
REMARK    6  A    between atoms: C_21  and  C_22
REMARK    7  A    between atoms: C_28  and  C_31
REMARK    8  A    between atoms: C_31  and  C_32
REMARK    9  A    between atoms: C_31  and  C_33
REMARK   10  A    between atoms: C_31  and  C_34
REMARK                            x       y       z     vdW  Elec       q    Type
REMARK                         _______ _______ _______ _____ _____    ______ ____
ROOT
ATOM      1  N   UNL     1      -3.331   1.696   5.634  0.00  0.00    -0.285 N 
ATOM      2  C   UNL     1      -3.471   1.057   6.812  0.00  0.00    +0.222 C 
ATOM      3  O   UNL     1      -2.691   0.183   7.125  0.00  0.00    -0.275 OA
ATOM      4  H   UNL     1      -3.993   2.348   5.354  0.00  0.00    +0.155 HD
ENDROOT
BRANCH   1   8
ATOM      5  C   UNL     1      -0.059   0.869   3.192  0.00  0.00    +0.106 A 
ATOM      6  C   UNL     1      -0.636  -0.142   3.938  0.00  0.00    +0.030 A 
ATOM      7  C   UNL     1      -1.721   0.128   4.748  0.00  0.00    +0.025 A 
ATOM      8  C   UNL     1      -2.232   1.418   4.814  0.00  0.00    +0.034 A 
ATOM      9  C   UNL     1      -1.649   2.432   4.064  0.00  0.00    +0.025 A 
ATOM     10  C   UNL     1      -0.562   2.155   3.259  0.00  0.00    +0.030 A 
BRANCH   5  11
ATOM     11  S   UNL     1       1.326   0.519   2.159  0.00  0.00    +0.061 S 
ATOM     12  O   UNL     1       1.344   1.522   1.152  0.00  0.00    -0.153 OA
ATOM     13  O   UNL     1       1.264  -0.867   1.853  0.00  0.00    -0.153 OA
BRANCH  11  20
ATOM     14  C   UNL     1       2.371  -1.603   3.714  0.00  0.00    +0.026 C 
ATOM     15  C   UNL     1       3.186  -0.329   3.948  0.00  0.00    +0.077 C 
ATOM     16  C   UNL     1       4.658  -0.594   3.619  0.00  0.00    +0.020 C 
ATOM     17  C   UNL     1       5.443   0.716   3.720  0.00  0.00    +0.003 C 
ATOM     18  C   UNL     1       4.894   1.721   2.705  0.00  0.00    +0.017 C 
ATOM     19  C   UNL     1       3.425   2.013   3.024  0.00  0.00    +0.110 C 
ATOM     20  N   UNL     1       2.688   0.742   3.074  0.00  0.00    -0.174 NA
ENDBRANCH  11  20
ENDBRANCH   5  11
ENDBRANCH   1   8
BRANCH   2  21
ATOM     21  C   UNL     1      -4.598   1.429   7.742  0.00  0.00    +0.135 C 
BRANCH  21  22
ATOM     22  C   UNL     1      -4.530   0.573   8.980  0.00  0.00    +0.007 A 
ATOM     23  C   UNL     1      -5.192  -0.571   9.205  0.00  0.00    +0.200 A 
ATOM     24  O   UNL     1      -4.882  -1.054  10.421  0.00  0.00    -0.463 OA
ATOM     25  C   UNL     1      -4.002  -0.248  11.049  0.00  0.00    +0.135 A 
ATOM     26  C   UNL     1      -3.722   0.821  10.180  0.00  0.00    +0.024 A 
ATOM     27  C   UNL     1      -2.830   1.820  10.565  0.00  0.00    +0.016 A 
ATOM     28  C   UNL     1      -2.222   1.752  11.799  0.00  0.00    -0.041 A 
ATOM     29  C   UNL     1      -2.495   0.695  12.655  0.00  0.00    +0.008 A 
ATOM     30  C   UNL     1      -3.381  -0.295  12.290  0.00  0.00    +0.047 A 
BRANCH  28  31
ATOM     31  C   UNL     1      -1.257   2.829  12.221  0.00  0.00    -0.013 C 
ATOM     32  C   UNL     1      -1.974   4.181  12.234  0.00  0.00    +0.015 C 
ATOM     33  C   UNL     1      -0.727   2.519  13.622  0.00  0.00    +0.015 C 
ATOM     34  C   UNL     1      -0.089   2.882  11.234  0.00  0.00    +0.015 C 
ENDBRANCH  28  31
ENDBRANCH  21  22
ENDBRANCH   2  21
TORSDOF 6
