REMARK  Name = ZINC06659929
REMARK  12 active torsions:
REMARK  status: ('A' for Active; 'I' for Inactive)
REMARK    1  A    between atoms: C_1  and  C_2
REMARK    2  A    between atoms: C_3  and  C_30
REMARK    3  A    between atoms: C_11  and  O_14
REMARK    4  A    between atoms: C_12  and  C_13
REMARK    5  A    between atoms: O_14  and  C_15
REMARK    6  A    between atoms: C_15  and  C_17
REMARK    7  A    between atoms: C_15  and  C_18
REMARK    8  A    between atoms: N_20  and  C_21
REMARK    9  A    between atoms: C_23  and  C_28
REMARK   10  A    between atoms: C_23  and  C_29
REMARK   11  A    between atoms: C_24  and  C_26
REMARK   12  A    between atoms: C_24  and  C_27
REMARK                            x       y       z     vdW  Elec       q    Type
REMARK                         _______ _______ _______ _____ _____    ______ ____
ROOT
ATOM      1  C   UNL     1      -5.855   3.901   5.878  0.00  0.00    +0.255 C 
ATOM      2  C   UNL     1      -6.026   5.338   5.383  0.00  0.00    +0.062 C 
ENDROOT
BRANCH   1   3
ATOM      3  C   UNL     1      -6.465   3.765   7.249  0.00  0.00    +0.254 C 
ATOM      4  O   UNL     1      -5.761   3.517   8.205  0.00  0.00    -0.272 OA
ATOM      5  N   UNL     1      -7.794   3.919   7.413  0.00  0.00    -0.310 N 
ATOM      6  H   UNL     1      -8.358   4.118   6.649  0.00  0.00    +0.149 HD
BRANCH   5   7
ATOM      7  C   UNL     1      -8.389   3.787   8.749  0.00  0.00    +0.070 C 
ATOM      8  C   UNL     1      -8.703   2.316   9.017  0.00  0.00    +0.009 C 
ATOM      9  C   UNL     1      -9.345   2.150  10.392  0.00  0.00    -0.072 C 
ATOM     10  C   UNL     1     -10.347   4.443  10.173  0.00  0.00    -0.072 C 
ATOM     11  C   UNL     1      -9.695   4.580   8.799  0.00  0.00    +0.009 C 
ATOM     12  C   UNL     1      -9.587   5.304  11.189  0.00  0.00    -0.010 C 
ATOM     13  C   UNL     1     -11.778   5.015  10.068  0.00  0.00    -0.010 C 
ATOM     14  C   UNL     1      -8.272   2.291  11.479  0.00  0.00    -0.010 C 
ATOM     15  C   UNL     1      -9.896   0.710  10.478  0.00  0.00    -0.010 C 
ATOM     16  N   UNL     1     -10.505   3.044  10.655  0.00  0.00    +0.386 N 
ATOM     17  H   UNL     1     -10.661   3.073  11.669  0.00  0.00    -0.084 HD
ATOM     18  H   UNL     1     -11.328   2.640  10.193  0.00  0.00    -0.084 HD
ENDBRANCH   5   7
ENDBRANCH   1   3
BRANCH   1  19
ATOM     19  O   UNL     1      -4.463   3.582   5.942  0.00  0.00    -0.480 OA
BRANCH  19  30
ATOM     20  C   UNL     1      -2.805   1.780  -0.082  0.00  0.00    +0.045 C 
ATOM     21  C   UNL     1      -2.056   1.798   1.226  0.00  0.00    -0.030 A 
ATOM     22  C   UNL     1      -0.766   1.377   1.297  0.00  0.00    +0.037 A 
ATOM     23  C   UNL     1      -0.086   1.409   2.531  0.00  0.00    +0.340 A 
ATOM     24  O   UNL     1       1.072   1.033   2.580  0.00  0.00    -0.245 OA
ATOM     25  O   UNL     1      -0.680   1.843   3.654  0.00  0.00    -0.422 OA
ATOM     26  C   UNL     1      -1.961   2.271   3.652  0.00  0.00    +0.146 A 
ATOM     27  C   UNL     1      -2.700   2.266   2.455  0.00  0.00    +0.021 A 
ATOM     28  C   UNL     1      -4.029   2.707   2.449  0.00  0.00    +0.015 A 
ATOM     29  C   UNL     1      -4.604   3.141   3.609  0.00  0.00    +0.047 A 
ATOM     30  C   UNL     1      -3.877   3.148   4.798  0.00  0.00    +0.128 A 
ATOM     31  C   UNL     1      -2.561   2.715   4.821  0.00  0.00    +0.034 A 
ATOM     32  C   UNL     1      -1.784   2.727   6.112  0.00  0.00    +0.051 C 
ATOM     33  C   UNL     1      -0.063   0.883   0.059  0.00  0.00    +0.051 C 
ENDBRANCH  19  30
ENDBRANCH   1  19
TORSDOF 4
