REMARK  Name = ZINC52094819
REMARK  5 active torsions:
REMARK  status: ('A' for Active; 'I' for Inactive)
REMARK    1  A    between atoms: C_1  and  C_2
REMARK    2  A    between atoms: C_2  and  C_3
REMARK    3  A    between atoms: C_6  and  C_8
REMARK    4  A    between atoms: C_8  and  C_10
REMARK    5  A    between atoms: C_8  and  O_23
REMARK                            x       y       z     vdW  Elec       q    Type
REMARK                         _______ _______ _______ _____ _____    ______ ____
ROOT
ATOM      1  C   UNL     1      -5.098  -3.385   1.429  0.00  0.00    +0.002 A 
ATOM      2  C   UNL     1      -4.832  -3.713   2.745  0.00  0.00    +0.035 A 
ATOM      3  C   UNL     1      -4.718  -5.044   3.114  0.00  0.00    +0.067 A 
ATOM      4  C   UNL     1      -4.871  -6.048   2.156  0.00  0.00    +0.068 A 
ATOM      5  C   UNL     1      -5.138  -5.710   0.838  0.00  0.00    +0.043 A 
ATOM      6  C   UNL     1      -5.256  -4.380   0.480  0.00  0.00    +0.026 A 
ATOM      7 BR   UNL     1      -5.628  -3.918  -1.316  0.00  0.00    -0.050 Br
ATOM      8  N   UNL     1      -4.704  -7.263   2.815  0.00  0.00    -0.306 N 
ATOM      9  H   UNL     1      -4.754  -8.142   2.408  0.00  0.00    +0.170 HD
ATOM     10  C   UNL     1      -4.460  -7.010   4.115  0.00  0.00    +0.325 A 
ATOM     11  O   UNL     1      -4.266  -7.856   4.969  0.00  0.00    -0.247 OA
ATOM     12  N   UNL     1      -4.462  -5.681   4.327  0.00  0.00    -0.306 N 
ATOM     13  H   UNL     1      -4.311  -5.241   5.178  0.00  0.00    +0.170 HD
ENDROOT
BRANCH   1  14
ATOM     14  C   UNL     1      -5.223  -1.938   1.027  0.00  0.00    +0.182 C 
BRANCH  14  18
ATOM     15  C   UNL     1      -1.412  -0.526   0.013  0.00  0.00    -0.010 A 
ATOM     16  C   UNL     1      -2.221  -0.821  -1.034  0.00  0.00    +0.011 A 
ATOM     17  C   UNL     1      -3.495  -1.293  -0.784  0.00  0.00    +0.014 A 
ATOM     18  C   UNL     1      -3.899  -1.446   0.501  0.00  0.00    +0.023 A 
ATOM     19  S   UNL     1      -2.453  -0.923   1.407  0.00  0.00    -0.095 S 
BRANCH  15  21
ATOM     20  C   UNL     1      -0.019   1.526   0.010  0.00  0.00    +0.009 C 
ATOM     21  C   UNL     1       0.002  -0.004   0.002  0.00  0.00    +0.039 C 
ENDBRANCH  15  21
ENDBRANCH  14  18
BRANCH  14  22
ATOM     22  O   UNL     1      -5.602  -1.159   2.164  0.00  0.00    -0.382 OA
ATOM     23  H   UNL     1      -4.972  -1.198   2.896  0.00  0.00    +0.211 HD
ENDBRANCH  14  22
ENDBRANCH   1  14
TORSDOF 4
