REMARK  Name = ZINC12139793
REMARK  7 active torsions:
REMARK  status: ('A' for Active; 'I' for Inactive)
REMARK    1  A    between atoms: C_1  and  O_2
REMARK    2  A    between atoms: O_2  and  C_3
REMARK    3  A    between atoms: C_3  and  C_5
REMARK    4  A    between atoms: C_8  and  C_11
REMARK    5  A    between atoms: C_14  and  C_28
REMARK    6  A    between atoms: C_17  and  C_19
REMARK    7  A    between atoms: C_33  and  O_34
REMARK                            x       y       z     vdW  Elec       q    Type
REMARK                         _______ _______ _______ _____ _____    ______ ____
ROOT
ATOM      1  C   UNL     1      -1.413  -6.381  -0.019  0.00  0.00    +0.081 C 
ATOM      2  N   UNL     1      -2.635  -6.820   0.664  0.00  0.00    +0.401 N 
ATOM      3  C   UNL     1      -2.605  -8.286   0.801  0.00  0.00    -0.028 C 
ATOM      4  C   UNL     1      -1.504  -8.652   1.800  0.00  0.00    +0.044 C 
ATOM      5  C   UNL     1      -0.244  -7.910   1.447  0.00  0.00    +0.040 C 
ATOM      6  N   UNL     1      -0.230  -6.910   0.647  0.00  0.00    -0.299 NA
ATOM      7  H   UNL     1      -2.682  -6.396   1.578  0.00  0.00    -0.081 HD
ATOM      8  H   UNL     1      -3.441  -6.548   0.121  0.00  0.00    -0.081 HD
ENDROOT
BRANCH   5   9
ATOM      9  C   UNL     1       1.028  -8.353   2.048  0.00  0.00    -0.001 A 
ATOM     10  C   UNL     1       1.048  -9.444   2.921  0.00  0.00    +0.013 A 
ATOM     11  C   UNL     1       2.238  -9.856   3.481  0.00  0.00    +0.050 A 
ATOM     12  C   UNL     1       3.419  -9.190   3.182  0.00  0.00    +0.166 A 
ATOM     13  C   UNL     1       3.405  -8.100   2.311  0.00  0.00    +0.167 A 
ATOM     14  C   UNL     1       2.217  -7.686   1.742  0.00  0.00    +0.059 A 
ATOM     15  O   UNL     1       4.681  -7.628   2.185  0.00  0.00    -0.453 OA
ATOM     16  C   UNL     1       5.406  -8.179   3.300  0.00  0.00    +0.466 C 
ATOM     17  O   UNL     1       4.701  -9.398   3.598  0.00  0.00    -0.453 OA
ENDBRANCH   5   9
BRANCH   1  21
ATOM     18  C   UNL     1      -1.247  -2.108   0.003  0.00  0.00    +0.059 A 
ATOM     19  C   UNL     1      -0.068  -2.856  -0.007  0.00  0.00    +0.015 A 
ATOM     20  C   UNL     1      -0.129  -4.234  -0.014  0.00  0.00    +0.004 A 
ATOM     21  C   UNL     1      -1.354  -4.875  -0.011  0.00  0.00    -0.040 A 
ATOM     22  C   UNL     1      -2.527  -4.141  -0.002  0.00  0.00    +0.004 A 
ATOM     23  C   UNL     1      -2.481  -2.762   0.011  0.00  0.00    +0.015 A 
BRANCH  18  24
ATOM     24  C   UNL     1      -1.190  -0.632   0.010  0.00  0.00    +0.339 C 
ATOM     25  O   UNL     1      -2.217   0.016   0.023  0.00  0.00    -0.245 OA
BRANCH  24  27
ATOM     26  C   UNL     1      -0.017   1.425   0.010  0.00  0.00    +0.280 C 
ATOM     27  O   UNL     1       0.002  -0.004   0.002  0.00  0.00    -0.464 OA
ENDBRANCH  24  27
ENDBRANCH  18  24
ENDBRANCH   1  21
BRANCH   3  28
ATOM     28  C   UNL     1      -3.937  -8.775   1.309  0.00  0.00    -0.019 A 
ATOM     29  C   UNL     1      -4.797  -7.902   1.947  0.00  0.00    +0.005 A 
ATOM     30  C   UNL     1      -6.018  -8.351   2.414  0.00  0.00    +0.000 A 
ATOM     31  C   UNL     1      -6.383  -9.674   2.244  0.00  0.00    +0.004 A 
ATOM     32  C   UNL     1      -5.526 -10.551   1.606  0.00  0.00    +0.045 A 
ATOM     33  C   UNL     1      -4.302 -10.102   1.132  0.00  0.00    +0.118 A 
BRANCH  33  34
ATOM     34  O   UNL     1      -3.461 -10.961   0.499  0.00  0.00    -0.507 OA
ATOM     35  H   UNL     1      -2.845 -11.416   1.091  0.00  0.00    +0.292 HD
ENDBRANCH  33  34
ENDBRANCH   3  28
TORSDOF 6
