REMARK  Name = ZINC08758743
REMARK  8 active torsions:
REMARK  status: ('A' for Active; 'I' for Inactive)
REMARK    1  A    between atoms: C_1  and  C_2
REMARK    2  A    between atoms: C_4  and  C_39
REMARK    3  A    between atoms: N_10  and  C_11
REMARK    4  A    between atoms: C_11  and  C_13
REMARK    5  A    between atoms: C_13  and  N_14
REMARK    6  A    between atoms: N_25  and  C_26
REMARK    7  A    between atoms: C_26  and  C_27
REMARK    8  A    between atoms: C_27  and  C_28
REMARK                            x       y       z     vdW  Elec       q    Type
REMARK                         _______ _______ _______ _____ _____    ______ ____
ROOT
ATOM      1  C   UNL     1       3.133  -1.081   2.591  0.00  0.00    +0.066 C 
ATOM      2  C   UNL     1       2.512  -0.524   3.846  0.00  0.00    +0.044 A 
ATOM      3  C   UNL     1       3.074  -0.791   5.085  0.00  0.00    +0.046 A 
ATOM      4  C   UNL     1       2.471  -0.259   6.214  0.00  0.00    +0.044 A 
ATOM      5  N   UNL     1       1.385   0.484   6.076  0.00  0.00    -0.217 NA
ATOM      6  C   UNL     1       0.874   0.720   4.877  0.00  0.00    +0.231 A 
ATOM      7  N   UNL     1       1.422   0.222   3.779  0.00  0.00    -0.217 NA
ATOM      8  N   UNL     1      -0.267   1.504   4.769  0.00  0.00    -0.297 N 
ATOM      9  C   UNL     1      -0.808   1.758   3.541  0.00  0.00    +0.196 C 
ATOM     10  N   UNL     1      -0.243   1.256   2.451  0.00  0.00    -0.146 NA
ATOM     11  N   UNL     1      -1.927   2.527   3.435  0.00  0.00    -0.357 N 
ATOM     12  C   UNL     1       3.046  -0.522   7.581  0.00  0.00    +0.066 C 
ATOM     13  H   UNL     1      -0.680   1.871   5.566  0.00  0.00    +0.171 HD
ATOM     14  H   UNL     1      -2.356   2.643   2.573  0.00  0.00    +0.162 HD
ENDROOT
BRANCH  10  15
ATOM     15  C   UNL     1      -0.700   1.596   1.247  0.00  0.00    +0.257 C 
ATOM     16  O   UNL     1      -0.809   2.768   0.948  0.00  0.00    -0.272 OA
BRANCH  15  17
ATOM     17  C   UNL     1      -1.081   0.526   0.256  0.00  0.00    +0.214 C 
BRANCH  17  18
ATOM     18  N   UNL     1      -1.550   1.153  -0.983  0.00  0.00    -0.225 N 
ATOM     19  C   UNL     1      -2.831   1.477  -1.234  0.00  0.00    +0.254 C 
ATOM     20  O   UNL     1      -3.768   1.300  -0.481  0.00  0.00    -0.270 OA
ATOM     21  C   UNL     1      -2.908   2.088  -2.578  0.00  0.00    +0.049 A 
ATOM     22  C   UNL     1      -3.936   2.604  -3.349  0.00  0.00    +0.014 A 
ATOM     23  C   UNL     1      -3.662   3.112  -4.609  0.00  0.00    +0.001 A 
ATOM     24  C   UNL     1      -2.370   3.107  -5.101  0.00  0.00    +0.001 A 
ATOM     25  C   UNL     1      -1.331   2.595  -4.340  0.00  0.00    +0.014 A 
ATOM     26  C   UNL     1      -1.590   2.083  -3.079  0.00  0.00    +0.049 A 
ATOM     27  C   UNL     1      -0.757   1.474  -2.021  0.00  0.00    +0.254 C 
ATOM     28  O   UNL     1       0.443   1.295  -2.078  0.00  0.00    -0.270 OA
ENDBRANCH  17  18
ENDBRANCH  15  17
ENDBRANCH  10  15
BRANCH  11  29
ATOM     29  C   UNL     1      -2.484   3.178   4.623  0.00  0.00    +0.120 C 
BRANCH  29  30
ATOM     30  C   UNL     1      -3.730   3.975   4.232  0.00  0.00    +0.058 C 
BRANCH  30  31
ATOM     31  C   UNL     1      -4.302   4.644   5.455  0.00  0.00    -0.021 A 
ATOM     32  C   UNL     1      -5.285   4.172   6.238  0.00  0.00    +0.087 A 
ATOM     33  N   UNL     1      -5.537   5.053   7.253  0.00  0.00    -0.360 N 
ATOM     34  H   UNL     1      -6.205   4.929   7.946  0.00  0.00    +0.165 HD
ATOM     35  C   UNL     1      -4.701   6.143   7.146  0.00  0.00    +0.047 A 
ATOM     36  C   UNL     1      -3.887   5.931   6.019  0.00  0.00    +0.004 A 
ATOM     37  C   UNL     1      -2.936   6.886   5.657  0.00  0.00    +0.030 A 
ATOM     38  C   UNL     1      -2.793   8.027   6.415  0.00  0.00    +0.042 A 
ATOM     39  C   UNL     1      -3.594   8.233   7.532  0.00  0.00    +0.022 A 
ATOM     40  C   UNL     1      -4.540   7.302   7.898  0.00  0.00    +0.027 A 
ATOM     41 CL   UNL     1      -1.607   9.215   5.973  0.00  0.00    -0.084 Cl
ENDBRANCH  30  31
ENDBRANCH  29  30
ENDBRANCH  11  29
TORSDOF 6
