REMARK  Name = ZINC20083011
REMARK  9 active torsions:
REMARK  status: ('A' for Active; 'I' for Inactive)
REMARK    1  A    between atoms: C_1  and  C_2
REMARK    2  A    between atoms: C_12  and  C_14
REMARK    3  A    between atoms: C_14  and  C_16
REMARK    4  A    between atoms: C_14  and  N_27
REMARK    5  A    between atoms: N_20  and  C_21
REMARK    6  A    between atoms: N_27  and  C_28
REMARK    7  A    between atoms: N_27  and  C_35
REMARK    8  A    between atoms: C_28  and  C_29
REMARK    9  A    between atoms: C_35  and  C_36
REMARK                            x       y       z     vdW  Elec       q    Type
REMARK                         _______ _______ _______ _____ _____    ______ ____
ROOT
ATOM      1  C   UNL     1       0.780  -2.050   5.379  0.00  0.00    +0.163 C 
ENDROOT
BRANCH   1  13
ATOM      2  C   UNL     1       2.543   4.067   3.744  0.00  0.00    +0.046 C 
ATOM      3  C   UNL     1       2.004   2.931   2.914  0.00  0.00    -0.026 A 
ATOM      4  C   UNL     1       1.802   3.099   1.560  0.00  0.00    +0.005 A 
ATOM      5  C   UNL     1       1.312   2.059   0.783  0.00  0.00    +0.001 A 
ATOM      6  C   UNL     1       1.009   0.852   1.348  0.00  0.00    +0.010 A 
ATOM      7  C   UNL     1       1.200   0.661   2.720  0.00  0.00    -0.001 A 
ATOM      8  C   UNL     1       1.704   1.712   3.510  0.00  0.00    +0.052 A 
ATOM      9  N   UNL     1       1.891   1.518   4.862  0.00  0.00    -0.322 N 
ATOM     10  H   UNL     1       2.285   2.334   5.486  0.00  0.00    +0.169 HD
ATOM     11  C   UNL     1       1.600   0.339   5.439  0.00  0.00    +0.254 A 
ATOM     12  O   UNL     1       1.778   0.203   6.637  0.00  0.00    -0.268 OA
ATOM     13  C   UNL     1       1.093  -0.746   4.691  0.00  0.00    +0.042 A 
ATOM     14  C   UNL     1       0.887  -0.619   3.357  0.00  0.00    +0.021 A 
ENDBRANCH   1  13
BRANCH   1  15
ATOM     15  C   UNL     1      -0.399  -1.863   6.299  0.00  0.00    +0.173 A 
ATOM     16  N   UNL     1      -0.474  -1.041   7.317  0.00  0.00    -0.111 NA
ATOM     17  N   UNL     1      -1.640  -1.172   7.849  0.00  0.00    -0.023 NA
ATOM     18  N   UNL     1      -2.308  -2.062   7.201  0.00  0.00    -0.044 NA
ATOM     19  N   UNL     1      -1.577  -2.511   6.238  0.00  0.00    -0.224 N 
BRANCH  19  20
ATOM     20  C   UNL     1      -1.957  -3.535   5.261  0.00  0.00    +0.111 C 
ATOM     21  C   UNL     1      -3.159  -3.045   4.451  0.00  0.00    +0.027 C 
ATOM     22  C   UNL     1      -3.557  -4.114   3.431  0.00  0.00    +0.002 C 
ATOM     23  C   UNL     1      -3.927  -5.405   4.163  0.00  0.00    +0.000 C 
ATOM     24  C   UNL     1      -2.724  -5.895   4.973  0.00  0.00    +0.002 C 
ATOM     25  C   UNL     1      -2.327  -4.826   5.993  0.00  0.00    +0.027 C 
ENDBRANCH  19  20
ENDBRANCH   1  15
BRANCH   1  26
ATOM     26  N   UNL     1       1.946  -2.485   6.159  0.00  0.00    -0.280 NA
BRANCH  26  27
ATOM     27  C   UNL     1       1.573  -3.521   7.132  0.00  0.00    +0.121 C 
BRANCH  27  28
ATOM     28  C   UNL     1       0.942  -2.874   8.338  0.00  0.00    -0.033 A 
ATOM     29  C   UNL     1       1.608  -1.865   9.009  0.00  0.00    +0.005 A 
ATOM     30  C   UNL     1       1.027  -1.268  10.112  0.00  0.00    +0.000 A 
ATOM     31  C   UNL     1      -0.215  -1.687  10.550  0.00  0.00    +0.000 A 
ATOM     32  C   UNL     1      -0.879  -2.700   9.883  0.00  0.00    +0.000 A 
ATOM     33  C   UNL     1      -0.300  -3.293   8.776  0.00  0.00    +0.005 A 
ENDBRANCH  27  28
ENDBRANCH  26  27
BRANCH  26  34
ATOM     34  C   UNL     1       3.025  -2.953   5.279  0.00  0.00    +0.128 C 
BRANCH  34  35
ATOM     35  C   UNL     1       3.781  -1.768   4.736  0.00  0.00    +0.004 A 
ATOM     36  C   UNL     1       4.830  -1.104   5.280  0.00  0.00    +0.012 A 
ATOM     37  C   UNL     1       5.372  -0.032   4.595  0.00  0.00    +0.008 A 
ATOM     38  C   UNL     1       4.839   0.322   3.401  0.00  0.00    +0.045 A 
ATOM     39  S   UNL     1       3.533  -0.880   3.208  0.00  0.00    -0.100 S 
ENDBRANCH  34  35
ENDBRANCH  26  34
ENDBRANCH   1  26
TORSDOF 8
