REMARK  Name = ZINC09716041
REMARK  9 active torsions:
REMARK  status: ('A' for Active; 'I' for Inactive)
REMARK    1  A    between atoms: C_2  and  C_3
REMARK    2  A    between atoms: C_3  and  C_4
REMARK    3  A    between atoms: C_8  and  C_11
REMARK    4  A    between atoms: C_9  and  O_10
REMARK    5  A    between atoms: N_12  and  N_13
REMARK    6  A    between atoms: C_14  and  C_16
REMARK    7  A    between atoms: C_16  and  C_18
REMARK    8  A    between atoms: C_16  and  N_29
REMARK    9  A    between atoms: C_30  and  C_32
REMARK                            x       y       z     vdW  Elec       q    Type
REMARK                         _______ _______ _______ _____ _____    ______ ____
ROOT
ATOM      1  C   UNL     1       2.252  -8.555   0.443  0.00  0.00    +0.212 C 
ENDROOT
BRANCH   1   2
ATOM      2  C   UNL     1       3.340  -8.688  -0.590  0.00  0.00    +0.099 A 
ATOM      3  C   UNL     1       3.007  -9.102  -1.954  0.00  0.00    +0.013 A 
ATOM      4  C   UNL     1       1.695  -9.383  -2.339  0.00  0.00    +0.010 A 
ATOM      5  C   UNL     1       1.435  -9.766  -3.625  0.00  0.00    +0.001 A 
ATOM      6  C   UNL     1       2.459  -9.881  -4.556  0.00  0.00    +0.001 A 
ATOM      7  C   UNL     1       3.763  -9.611  -4.205  0.00  0.00    +0.014 A 
ATOM      8  C   UNL     1       4.052  -9.218  -2.899  0.00  0.00    +0.050 A 
ATOM      9  C   UNL     1       5.421  -8.915  -2.462  0.00  0.00    +0.272 A 
ATOM     10  N   UNL     1       5.626  -8.541  -1.182  0.00  0.00    -0.242 N 
ATOM     11  N   UNL     1       4.574  -8.431  -0.272  0.00  0.00    -0.173 NA
ATOM     12  O   UNL     1       6.354  -9.001  -3.240  0.00  0.00    -0.266 OA
ATOM     13  H   UNL     1       6.528  -8.340  -0.887  0.00  0.00    +0.192 HD
ENDBRANCH   1   2
BRANCH   1  15
ATOM     14  N   UNL     1       1.023  -6.817  -0.817  0.00  0.00    -0.205 N 
ATOM     15  C   UNL     1       1.618  -7.192   0.332  0.00  0.00    +0.259 C 
ATOM     16  O   UNL     1       1.643  -6.433   1.278  0.00  0.00    -0.272 OA
ATOM     17  H   UNL     1       1.002  -7.425  -1.573  0.00  0.00    +0.177 HD
BRANCH  14  19
ATOM     18  C   UNL     1      -0.140  -5.190  -2.028  0.00  0.00    +0.142 C 
ATOM     19  N   UNL     1       0.433  -5.551  -0.920  0.00  0.00    -0.188 NA
BRANCH  18  24
ATOM     20  C   UNL     1      -1.318  -1.726  -1.159  0.00  0.00    -0.002 A 
ATOM     21  C   UNL     1      -1.926  -1.349  -2.342  0.00  0.00    +0.007 A 
ATOM     22  C   UNL     1      -1.956  -2.216  -3.421  0.00  0.00    +0.001 A 
ATOM     23  C   UNL     1      -1.377  -3.465  -3.326  0.00  0.00    +0.013 A 
ATOM     24  C   UNL     1      -0.759  -3.857  -2.136  0.00  0.00    +0.036 A 
ATOM     25  C   UNL     1      -0.728  -2.974  -1.048  0.00  0.00    +0.129 A 
BRANCH  25  26
ATOM     26  O   UNL     1      -0.125  -3.343   0.112  0.00  0.00    -0.506 OA
ATOM     27  H   UNL     1      -0.714  -3.785   0.738  0.00  0.00    +0.292 HD
ENDBRANCH  25  26
BRANCH  20  28
ATOM     28  C   UNL     1      -1.293  -0.775   0.010  0.00  0.00    +0.065 C 
BRANCH  28  30
ATOM     29  C   UNL     1      -0.016   1.306   0.009  0.00  0.00    +0.004 C 
ATOM     30  C   UNL     1       0.002  -0.004   0.002  0.00  0.00    -0.030 C 
ENDBRANCH  28  30
ENDBRANCH  20  28
ENDBRANCH  18  24
ENDBRANCH  14  19
ENDBRANCH   1  15
BRANCH   1  31
ATOM     31  N   UNL     1       2.826  -8.719   1.781  0.00  0.00    -0.295 N 
ATOM     32  C   UNL     1       2.988  -9.953   2.299  0.00  0.00    +0.245 C 
ATOM     33  O   UNL     1       2.657 -10.930   1.655  0.00  0.00    -0.270 OA
ATOM     34  H   UNL     1       3.090  -7.939   2.295  0.00  0.00    +0.150 HD
BRANCH  32  35
ATOM     35  C   UNL     1       3.567 -10.118   3.648  0.00  0.00    +0.037 A 
ATOM     36  C   UNL     1       3.943  -8.998   4.392  0.00  0.00    +0.013 A 
ATOM     37  C   UNL     1       4.482  -9.160   5.652  0.00  0.00    +0.001 A 
ATOM     38  C   UNL     1       4.652 -10.428   6.177  0.00  0.00    +0.000 A 
ATOM     39  C   UNL     1       4.283 -11.542   5.445  0.00  0.00    +0.001 A 
ATOM     40  C   UNL     1       3.736 -11.395   4.187  0.00  0.00    +0.013 A 
ENDBRANCH  32  35
ENDBRANCH   1  31
TORSDOF 9
