REMARK  Name = ZINC20912735
REMARK  10 active torsions:
REMARK  status: ('A' for Active; 'I' for Inactive)
REMARK    1  A    between atoms: C_1  and  C_2
REMARK    2  A    between atoms: N_4  and  C_5
REMARK    3  A    between atoms: C_9  and  N_11
REMARK    4  A    between atoms: C_12  and  C_14
REMARK    5  A    between atoms: C_14  and  C_15
REMARK    6  A    between atoms: C_15  and  S_16
REMARK    7  A    between atoms: S_16  and  C_17
REMARK    8  A    between atoms: N_21  and  N_22
REMARK    9  A    between atoms: N_23  and  N_24
REMARK   10  A    between atoms: C_25  and  C_26
REMARK                            x       y       z     vdW  Elec       q    Type
REMARK                         _______ _______ _______ _____ _____    ______ ____
ROOT
ATOM      1  C   UNL     1      -5.070  -2.232  -0.616  0.00  0.00    +0.210 A 
ATOM      2  N   UNL     1      -5.579  -1.032  -0.768  0.00  0.00    -0.119 NA
ATOM      3  N   UNL     1      -4.518  -0.123  -0.882  0.00  0.00    -0.109 NA
ATOM      4  C   UNL     1      -3.397  -0.798  -0.805  0.00  0.00    +0.254 A 
ATOM      5  N   UNL     1      -3.709  -2.119  -0.635  0.00  0.00    -0.211 N 
ATOM      6  N   UNL     1      -2.118  -0.266  -0.877  0.00  0.00    -0.204 N 
ATOM      7  H   UNL     1      -1.242  -0.926  -0.795  0.00  0.00    +0.177 HD
ENDROOT
BRANCH   5   8
ATOM      8  N   UNL     1      -2.817  -3.145  -0.508  0.00  0.00    -0.294 N 
ATOM      9  H   UNL     1      -1.736  -2.941  -0.538  0.00  0.00    +0.163 HD
ATOM     10  H   UNL     1      -3.178  -4.175  -0.376  0.00  0.00    +0.163 HD
ENDBRANCH   5   8
BRANCH   6  11
ATOM     11  N   UNL     1      -1.943   1.113  -1.053  0.00  0.00    -0.187 NA
ATOM     12  C   UNL     1      -0.744   1.613  -1.121  0.00  0.00    +0.139 C 
BRANCH  12  13
ATOM     13  C   UNL     1      -0.560   3.059  -1.306  0.00  0.00    +0.002 A 
ATOM     14  C   UNL     1       0.710   3.595  -1.491  0.00  0.00    +0.010 A 
ATOM     15  C   UNL     1       0.879   4.961  -1.673  0.00  0.00    +0.001 A 
ATOM     16  C   UNL     1      -0.174   5.823  -1.664  0.00  0.00    +0.008 A 
ATOM     17  C   UNL     1      -1.484   5.353  -1.476  0.00  0.00    -0.017 A 
ATOM     18  C   UNL     1      -1.706   3.966  -1.293  0.00  0.00    -0.009 A 
ATOM     19  C   UNL     1      -3.011   3.493  -1.106  0.00  0.00    +0.009 A 
ATOM     20  C   UNL     1      -4.052   4.372  -1.101  0.00  0.00    +0.001 A 
ATOM     21  C   UNL     1      -3.837   5.737  -1.280  0.00  0.00    +0.001 A 
ATOM     22  C   UNL     1      -2.582   6.231  -1.465  0.00  0.00    +0.008 A 
ENDBRANCH  12  13
ENDBRANCH   6  11
BRANCH   1  23
ATOM     23  S   UNL     1      -5.983  -3.726  -0.422  0.00  0.00    -0.084 S 
BRANCH  23  24
ATOM     24  C   UNL     1      -7.670  -3.077  -0.500  0.00  0.00    +0.086 C 
BRANCH  24  25
ATOM     25  C   UNL     1      -8.667  -4.228  -0.349  0.00  0.00    +0.107 C 
BRANCH  25  27
ATOM     26  N   UNL     1     -11.123  -4.524  -0.303  0.00  0.00    -0.285 N 
ATOM     27  C   UNL     1     -10.072  -3.687  -0.414  0.00  0.00    +0.218 C 
ATOM     28  O   UNL     1     -10.258  -2.498  -0.565  0.00  0.00    -0.275 OA
ATOM     29  H   UNL     1     -10.956  -5.610  -0.243  0.00  0.00    +0.155 HD
BRANCH  26  34
ATOM     30  C   UNL     1     -14.680  -4.117   0.553  0.00  0.00    +0.035 A 
ATOM     31  C   UNL     1     -15.000  -2.992  -0.198  0.00  0.00    +0.023 A 
ATOM     32  C   UNL     1     -14.037  -2.383  -0.978  0.00  0.00    +0.004 A 
ATOM     33  C   UNL     1     -12.752  -2.889  -1.014  0.00  0.00    +0.023 A 
ATOM     34  C   UNL     1     -12.425  -4.012  -0.266  0.00  0.00    +0.035 A 
ATOM     35  C   UNL     1     -13.392  -4.630   0.514  0.00  0.00    +0.046 A 
BRANCH  30  39
ATOM     36  C   UNL     1     -16.383  -5.858   3.423  0.00  0.00    +0.109 C 
ATOM     37  C   UNL     1     -15.316  -5.287   2.524  0.00  0.00    +0.214 C 
ATOM     38  O   UNL     1     -14.153  -5.325   2.864  0.00  0.00    -0.276 OA
ATOM     39  N   UNL     1     -15.656  -4.733   1.343  0.00  0.00    -0.286 N 
ATOM     40  H   UNL     1     -16.701  -4.766   1.000  0.00  0.00    +0.155 HD
ENDBRANCH  30  39
ENDBRANCH  26  34
ENDBRANCH  25  27
ENDBRANCH  24  25
ENDBRANCH  23  24
ENDBRANCH   1  23
TORSDOF 9
