REMARK  Name = ZINC13461677
REMARK  15 active torsions:
REMARK  status: ('A' for Active; 'I' for Inactive)
REMARK    1  A    between atoms: C_1  and  C_2
REMARK    2  A    between atoms: C_2  and  N_3
REMARK    3  A    between atoms: N_3  and  C_4
REMARK    4  A    between atoms: N_3  and  S_6
REMARK    5  A    between atoms: C_4  and  C_5
REMARK    6  A    between atoms: S_6  and  C_9
REMARK    7  A    between atoms: C_12  and  N_17
REMARK    8  A    between atoms: C_13  and  C_15
REMARK    9  A    between atoms: N_17  and  C_18
REMARK   10  A    between atoms: C_18  and  C_20
REMARK   11  A    between atoms: C_18  and  C_22
REMARK   12  A    between atoms: C_20  and  O_21
REMARK   13  A    between atoms: C_22  and  C_24
REMARK   14  A    between atoms: C_22  and  O_33
REMARK   15  A    between atoms: C_27  and  N_30
REMARK                            x       y       z     vdW  Elec       q    Type
REMARK                         _______ _______ _______ _____ _____    ______ ____
ROOT
ATOM      1  N   UNK A   1      -3.280   2.292   1.923  0.00  0.00    -0.335 N 
ATOM      2  H   UNK A   1      -3.443   3.008   1.288  0.00  0.00    +0.147 HD
ENDROOT
BRANCH   1   6
ATOM      3  C   UNK A   0      -3.338   3.080   6.013  0.00  0.00    +0.106 A 
ATOM      4  C   UNK A   0      -3.196   1.780   5.554  0.00  0.00    +0.030 A 
ATOM      5  C   UNK A   0      -3.181   1.515   4.200  0.00  0.00    +0.025 A 
ATOM      6  C   UNK A   0      -3.299   2.555   3.286  0.00  0.00    +0.042 A 
ATOM      7  C   UNK A   0      -3.444   3.873   3.748  0.00  0.00    +0.086 A 
ATOM      8  C   UNK A   0      -3.462   4.124   5.123  0.00  0.00    +0.045 A 
BRANCH   3   9
ATOM      9  S   UNK A   0      -3.362   3.399   7.746  0.00  0.00    +0.061 S 
ATOM     10  O   UNK A   0      -2.681   2.317   8.368  0.00  0.00    -0.153 OA
ATOM     11  O   UNK A   0      -2.959   4.751   7.916  0.00  0.00    -0.153 OA
BRANCH   9  12
ATOM     12  N   UNK A   0      -4.941   3.310   8.239  0.00  0.00    -0.177 NA
BRANCH  12  14
ATOM     13  C   UNK A   0      -5.398   1.938  10.211  0.00  0.00    +0.022 C 
ATOM     14  C   UNK A   0      -5.497   2.031   8.687  0.00  0.00    +0.106 C 
ENDBRANCH  12  14
BRANCH  12  15
ATOM     15  C   UNK A   0      -5.780   4.511   8.227  0.00  0.00    +0.106 C 
ATOM     16  C   UNK A   0      -6.573   4.565   6.919  0.00  0.00    +0.022 C 
ENDBRANCH  12  15
ENDBRANCH   9  12
ENDBRANCH   3   9
BRANCH   7  17
ATOM     17  C   UNK A   0      -3.576   4.984   2.791  0.00  0.00    +0.388 C 
ATOM     18  O   UNK A   0      -3.666   4.754   1.601  0.00  0.00    -0.241 OA
ATOM     19  O   UNK A   0      -3.596   6.257   3.234  0.00  0.00    -0.241 OA
ENDBRANCH   7  17
ENDBRANCH   1   6
BRANCH   1  20
ATOM     20  C   UNK A   1      -3.015   0.934   1.443  0.00  0.00    +0.129 C 
BRANCH  20  21
ATOM     21  C   UNK A   1      -4.319   0.134   1.430  0.00  0.00    +0.180 C 
BRANCH  21  22
ATOM     22  O   UNK A   1      -5.218   0.703   0.476  0.00  0.00    -0.393 OA
ATOM     23  H   UNK A   1      -6.067   0.245   0.415  0.00  0.00    +0.209 HD
ENDBRANCH  21  22
ENDBRANCH  20  21
BRANCH  20  24
ATOM     24  C   UNK A   1      -2.442   0.997   0.026  0.00  0.00    +0.167 C 
BRANCH  24  25
ATOM     25  C   UNK A   1      -1.157   1.785   0.038  0.00  0.00    -0.017 A 
ATOM     26  C   UNK A   1       0.058   1.126   0.040  0.00  0.00    +0.008 A 
ATOM     27  C   UNK A   1       1.236   1.849   0.046  0.00  0.00    +0.033 A 
ATOM     28  C   UNK A   1       1.199   3.231   0.055  0.00  0.00    +0.126 A 
ATOM     29  C   UNK A   1      -0.016   3.890   0.058  0.00  0.00    +0.033 A 
ATOM     30  C   UNK A   1      -1.194   3.167   0.052  0.00  0.00    +0.008 A 
BRANCH  28  31
ATOM     31  N   UNK A   1       2.461   4.005   0.060  0.00  0.00    +0.056 N 
ATOM     32  O   UNK A   1       3.531   3.425   0.057  0.00  0.00    -0.126 OA
ATOM     33  O   UNK A   1       2.428   5.223   0.068  0.00  0.00    -0.126 OA
ENDBRANCH  28  31
ENDBRANCH  24  25
BRANCH  24  34
ATOM     34  O   UNK A   1      -3.382   1.633  -0.841  0.00  0.00    -0.385 OA
ATOM     35  H   UNK A   1      -3.606   2.538  -0.583  0.00  0.00    +0.210 HD
ENDBRANCH  24  34
ENDBRANCH  20  24
ENDBRANCH   1  20
TORSDOF 13
