REMARK  Name = ZINC18044101
REMARK  12 active torsions:
REMARK  status: ('A' for Active; 'I' for Inactive)
REMARK    1  A    between atoms: C_1  and  C_2
REMARK    2  A    between atoms: C_2  and  C_3
REMARK    3  A    between atoms: C_3  and  O_4
REMARK    4  A    between atoms: O_4  and  C_5
REMARK    5  A    between atoms: C_8  and  C_14
REMARK    6  A    between atoms: C_10  and  O_11
REMARK    7  A    between atoms: O_11  and  C_12
REMARK    8  A    between atoms: C_12  and  C_13
REMARK    9  A    between atoms: N_22  and  C_25
REMARK   10  A    between atoms: C_28  and  C_31
REMARK   11  A    between atoms: C_31  and  C_32
REMARK   12  A    between atoms: N_34  and  C_35
REMARK                            x       y       z     vdW  Elec       q    Type
REMARK                         _______ _______ _______ _____ _____    ______ ____
ROOT
ATOM      1  C   UNL     1       3.349  -4.483   5.547  0.00  0.00    +0.157 C 
ATOM      2  C   UNL     1       2.510  -4.374   6.814  0.00  0.00    +0.145 C 
ATOM      3  C   UNL     1       3.080  -2.991   7.312  0.00  0.00    +0.249 C 
ATOM      4  C   UNL     1       2.059  -2.580   8.256  0.00  0.00    +0.259 C 
ATOM      5  O   UNL     1       2.214  -1.943   9.275  0.00  0.00    -0.272 OA
ATOM      6  N   UNL     1       0.882  -3.066   7.749  0.00  0.00    -0.208 N 
ATOM      7  C   UNL     1       1.066  -3.988   6.742  0.00  0.00    +0.235 C 
ATOM      8  O   UNL     1       0.241  -4.399   5.955  0.00  0.00    -0.274 OA
ATOM      9  O   UNL     1       4.432  -3.170   7.220  0.00  0.00    -0.257 OA
ATOM     10  N   UNL     1       4.610  -3.767   5.896  0.00  0.00    -0.244 N 
ENDROOT
BRANCH   1  14
ATOM     11  C   UNL     1       1.387  -2.555   2.273  0.00  0.00    +0.162 A 
ATOM     12  C   UNL     1       2.154  -1.814   3.158  0.00  0.00    +0.050 A 
ATOM     13  C   UNL     1       2.787  -2.441   4.215  0.00  0.00    +0.009 A 
ATOM     14  C   UNL     1       2.656  -3.805   4.393  0.00  0.00    -0.018 A 
ATOM     15  C   UNL     1       1.893  -4.550   3.514  0.00  0.00    +0.055 A 
ATOM     16  C   UNL     1       1.250  -3.928   2.455  0.00  0.00    +0.162 A 
BRANCH  11  17
ATOM     17  O   UNL     1       0.763  -1.940   1.233  0.00  0.00    -0.488 OA
BRANCH  17  18
ATOM     18  C   UNL     1       0.948  -0.528   1.108  0.00  0.00    +0.229 C 
BRANCH  18  20
ATOM     19  C   UNL     1       0.374   1.492  -0.244  0.00  0.00    +0.007 C 
ATOM     20  C   UNL     1       0.176  -0.019  -0.111  0.00  0.00    +0.038 C 
ENDBRANCH  18  20
ENDBRANCH  17  18
ENDBRANCH  11  17
BRANCH  16  21
ATOM     21  O   UNL     1       0.494  -4.657   1.593  0.00  0.00    -0.489 OA
BRANCH  21  22
ATOM     22  C   UNL     1       0.399  -6.061   1.841  0.00  0.00    +0.226 C 
ATOM     23  C   UNL     1      -0.487  -6.710   0.775  0.00  0.00    +0.048 C 
ENDBRANCH  21  22
ENDBRANCH  16  21
ENDBRANCH   1  14
BRANCH   6  24
ATOM     24  C   UNL     1      -0.382  -2.677   8.215  0.00  0.00    +0.044 A 
ATOM     25  C   UNL     1      -1.528  -3.221   7.652  0.00  0.00    +0.024 A 
ATOM     26  C   UNL     1      -2.772  -2.836   8.113  0.00  0.00    +0.005 A 
ATOM     27  C   UNL     1      -2.876  -1.909   9.134  0.00  0.00    -0.048 A 
ATOM     28  C   UNL     1      -1.736  -1.365   9.697  0.00  0.00    +0.005 A 
ATOM     29  C   UNL     1      -0.489  -1.751   9.244  0.00  0.00    +0.024 A 
BRANCH  27  30
ATOM     30  C   UNL     1      -4.235  -1.490   9.635  0.00  0.00    +0.032 C 
ATOM     31  C   UNL     1      -4.665  -2.415  10.775  0.00  0.00    +0.009 C 
ENDBRANCH  27  30
ENDBRANCH   6  24
BRANCH  10  32
ATOM     32  C   UNL     1       5.758  -3.691   5.103  0.00  0.00    +0.065 A 
ATOM     33  C   UNL     1       5.788  -4.314   3.862  0.00  0.00    +0.028 A 
ATOM     34  C   UNL     1       6.924  -4.236   3.080  0.00  0.00    +0.002 A 
ATOM     35  C   UNL     1       8.030  -3.540   3.532  0.00  0.00    +0.000 A 
ATOM     36  C   UNL     1       8.003  -2.919   4.767  0.00  0.00    +0.002 A 
ATOM     37  C   UNL     1       6.868  -2.988   5.551  0.00  0.00    +0.028 A 
ENDBRANCH  10  32
TORSDOF 9
