REMARK  Name = ZINC04150936
REMARK  5 active torsions:
REMARK  status: ('A' for Active; 'I' for Inactive)
REMARK    1  A    between atoms: C_2  and  C_3
REMARK    2  A    between atoms: C_3  and  O_4
REMARK    3  A    between atoms: O_4  and  C_5
REMARK    4  A    between atoms: C_6  and  C_13
REMARK    5  A    between atoms: N_14  and  N_15
REMARK                            x       y       z     vdW  Elec       q    Type
REMARK                         _______ _______ _______ _____ _____    ______ ____
ROOT
ATOM      1  C   UNL     1       0.128  -2.830  -0.020  0.00  0.00    +0.143 A 
ATOM      2  C   UNL     1      -1.093  -2.142   0.001  0.00  0.00    +0.038 A 
ATOM      3  C   UNL     1      -2.291  -2.860   0.009  0.00  0.00    +0.027 A 
ATOM      4  C   UNL     1      -2.266  -4.240   0.001  0.00  0.00    +0.015 A 
ATOM      5  C   UNL     1      -1.057  -4.915  -0.014  0.00  0.00    +0.032 A 
ATOM      6  C   UNL     1       0.135  -4.216  -0.021  0.00  0.00    +0.057 A 
ATOM      7  I   UNL     1       1.956  -5.252  -0.043  0.00  0.00    -0.040 I 
ATOM      8  I   UNL     1      -4.063  -5.316   0.012  0.00  0.00    -0.044 I 
ENDROOT
BRANCH   2   9
ATOM      9  C   UNL     1      -1.113  -0.669   0.009  0.00  0.00    +0.146 C 
ATOM     10  N   UNL     1       0.002  -0.004   0.002  0.00  0.00    -0.152 NA
BRANCH  10  11
ATOM     11  N   UNL     1      -0.017   1.397   0.010  0.00  0.00    -0.095 N 
ATOM     12  C   UNL     1       1.054   2.240   0.004  0.00  0.00    +0.255 A 
ATOM     13  N   UNL     1       0.576   3.466   0.015  0.00  0.00    -0.091 NA
ATOM     14  N   UNL     1      -0.708   3.449   0.027  0.00  0.00    -0.020 NA
ATOM     15  N   UNL     1      -1.145   2.236   0.019  0.00  0.00    -0.020 NA
ATOM     16  N   UNL     1       2.389   1.877  -0.011  0.00  0.00    -0.325 N 
ATOM     17  H   UNL     1       2.636   0.939  -0.019  0.00  0.00    +0.145 HD
ATOM     18  H   UNL     1       3.078   2.560  -0.014  0.00  0.00    +0.145 HD
ENDBRANCH  10  11
ENDBRANCH   2   9
BRANCH   1  19
ATOM     19  O   UNL     1       1.298  -2.142  -0.034  0.00  0.00    -0.486 OA
BRANCH  19  20
ATOM     20  C   UNL     1       1.876  -1.819   1.233  0.00  0.00    +0.256 C 
BRANCH  20  22
ATOM     21  C   UNL     1       3.415   0.010   1.732  0.00  0.00    +0.007 C 
ATOM     22  C   UNL     1       3.161  -1.061   1.020  0.00  0.00    +0.006 C 
ENDBRANCH  20  22
ENDBRANCH  19  20
ENDBRANCH   1  19
TORSDOF 5
