REMARK  Name = ZINC09168099
REMARK  13 active torsions:
REMARK  status: ('A' for Active; 'I' for Inactive)
REMARK    1  A    between atoms: C_1  and  C_2
REMARK    2  A    between atoms: C_2  and  C_3
REMARK    3  A    between atoms: C_3  and  N_4
REMARK    4  A    between atoms: N_4  and  C_5
REMARK    5  A    between atoms: N_4  and  S_8
REMARK    6  A    between atoms: C_5  and  C_6
REMARK    7  A    between atoms: C_6  and  C_7
REMARK    8  A    between atoms: S_8  and  C_11
REMARK    9  A    between atoms: C_14  and  C_17
REMARK   10  A    between atoms: C_23  and  C_25
REMARK   11  A    between atoms: C_31  and  O_34
REMARK   12  A    between atoms: O_34  and  C_35
REMARK   13  A    between atoms: C_35  and  C_36
REMARK                            x       y       z     vdW  Elec       q    Type
REMARK                         _______ _______ _______ _____ _____    ______ ____
ROOT
ATOM      1  C   UNL     1       3.892   7.201   0.002  0.00  0.00    +0.252 C 
ATOM      2  O   UNL     1       2.765   7.657   0.014  0.00  0.00    -0.270 OA
ATOM      3  N   UNL     1       4.079   5.866  -0.006  0.00  0.00    -0.234 N 
ATOM      4  C   UNL     1       2.987   5.014  -0.001  0.00  0.00    +0.315 A 
ATOM      5  N   UNL     1       1.725   5.371   0.013  0.00  0.00    -0.092 NA
ATOM      6  N   UNL     1       0.982   4.321   0.014  0.00  0.00    -0.103 NA
ATOM      7  C   UNL     1       1.743   3.250   0.002  0.00  0.00    +0.285 A 
ATOM      8  O   UNL     1       3.028   3.669  -0.003  0.00  0.00    -0.402 OA
ATOM      9  H   UNL     1       4.978   5.502  -0.016  0.00  0.00    +0.160 HD
ENDROOT
BRANCH   7  10
ATOM     10  C   UNL     1       1.282   1.853  -0.000  0.00  0.00    +0.192 A 
ATOM     11  C   UNL     1      -0.018   1.459   0.010  0.00  0.00    +0.063 A 
ATOM     12  C   UNL     1       0.002  -0.004   0.002  0.00  0.00    +0.025 A 
ATOM     13  C   UNL     1      -0.987  -0.991   0.006  0.00  0.00    +0.012 A 
ATOM     14  C   UNL     1      -0.631  -2.310  -0.004  0.00  0.00    +0.004 A 
ATOM     15  C   UNL     1       0.707  -2.678  -0.019  0.00  0.00    +0.049 A 
ATOM     16  C   UNL     1       1.702  -1.717  -0.023  0.00  0.00    +0.163 A 
ATOM     17  C   UNL     1       1.360  -0.366  -0.013  0.00  0.00    +0.177 A 
ATOM     18  O   UNL     1       2.086   0.771  -0.014  0.00  0.00    -0.446 OA
BRANCH  16  19
ATOM     19  O   UNL     1       3.009  -2.090  -0.037  0.00  0.00    -0.489 OA
BRANCH  19  20
ATOM     20  C   UNL     1       3.284  -3.492  -0.048  0.00  0.00    +0.226 C 
ATOM     21  C   UNL     1       4.798  -3.715  -0.063  0.00  0.00    +0.048 C 
ENDBRANCH  19  20
ENDBRANCH  16  19
ENDBRANCH   7  10
BRANCH   1  25
ATOM     22  C   UNL     1       7.240   9.814  -0.014  0.00  0.00    +0.106 A 
ATOM     23  C   UNL     1       5.958  10.336  -0.001  0.00  0.00    +0.029 A 
ATOM     24  C   UNL     1       4.867   9.493   0.004  0.00  0.00    +0.015 A 
ATOM     25  C   UNL     1       5.057   8.110  -0.004  0.00  0.00    +0.037 A 
ATOM     26  C   UNL     1       6.352   7.590  -0.012  0.00  0.00    +0.015 A 
ATOM     27  C   UNL     1       7.435   8.444  -0.023  0.00  0.00    +0.029 A 
BRANCH  22  28
ATOM     28  S   UNL     1       8.629  10.898  -0.022  0.00  0.00    +0.061 S 
ATOM     29  O   UNL     1       9.710  10.169  -0.585  0.00  0.00    -0.153 OA
ATOM     30  O   UNL     1       8.178  12.132  -0.563  0.00  0.00    -0.153 OA
BRANCH  28  31
ATOM     31  N   UNL     1       9.028  11.192   1.558  0.00  0.00    -0.177 NA
BRANCH  31  32
ATOM     32  C   UNL     1       9.986  10.322   2.246  0.00  0.00    +0.109 C 
BRANCH  32  34
ATOM     33  C   UNL     1      12.385  10.026   2.877  0.00  0.00    +0.005 C 
ATOM     34  C   UNL     1      11.385  10.935   2.159  0.00  0.00    +0.014 C 
ENDBRANCH  32  34
ENDBRANCH  31  32
BRANCH  31  35
ATOM     35  C   UNL     1       8.424  12.323   2.268  0.00  0.00    +0.109 C 
BRANCH  35  36
ATOM     36  C   UNL     1       7.201  11.839   3.049  0.00  0.00    +0.014 C 
ATOM     37  C   UNL     1       6.570  13.020   3.791  0.00  0.00    +0.005 C 
ENDBRANCH  35  36
ENDBRANCH  31  35
ENDBRANCH  28  31
ENDBRANCH  22  28
ENDBRANCH   1  25
TORSDOF 10
