REMARK  Name = ZINC63749581
REMARK  8 active torsions:
REMARK  status: ('A' for Active; 'I' for Inactive)
REMARK    1  A    between atoms: C_1  and  O_2
REMARK    2  A    between atoms: O_2  and  C_3
REMARK    3  A    between atoms: C_9  and  C_12
REMARK    4  A    between atoms: C_12  and  C_13
REMARK    5  A    between atoms: C_13  and  N_14
REMARK    6  A    between atoms: C_15  and  C_17
REMARK    7  A    between atoms: C_19  and  S_24
REMARK    8  A    between atoms: S_24  and  N_27
REMARK                            x       y       z     vdW  Elec       q    Type
REMARK                         _______ _______ _______ _____ _____    ______ ____
ROOT
ATOM      1  N   UNL     1      -0.752  -6.781  -1.509  0.00  0.00    -0.311 N 
ATOM      2  C   UNL     1      -1.922  -7.385  -1.796  0.00  0.00    +0.246 C 
ATOM      3  O   UNL     1      -2.618  -6.963  -2.699  0.00  0.00    -0.270 OA
ATOM      4  H   UNL     1      -0.196  -7.118  -0.789  0.00  0.00    +0.149 HD
ENDROOT
BRANCH   2   5
ATOM      5  C   UNL     1      -2.358  -8.561  -1.014  0.00  0.00    +0.057 A 
ATOM      6  C   UNL     1      -1.564  -9.045   0.027  0.00  0.00    +0.043 A 
ATOM      7  C   UNL     1      -1.977 -10.142   0.753  0.00  0.00    +0.106 A 
ATOM      8  C   UNL     1      -3.176 -10.764   0.452  0.00  0.00    +0.030 A 
ATOM      9  C   UNL     1      -3.969 -10.291  -0.578  0.00  0.00    +0.022 A 
ATOM     10  C   UNL     1      -3.571  -9.189  -1.310  0.00  0.00    +0.053 A 
ATOM     11 CL   UNL     1      -4.570  -8.591  -2.597  0.00  0.00    -0.083 Cl
BRANCH   7  12
ATOM     12  S   UNL     1      -0.975 -10.754   2.067  0.00  0.00    +0.061 S 
ATOM     13  O   UNL     1      -1.321 -12.121   2.238  0.00  0.00    -0.153 OA
ATOM     14  O   UNL     1       0.354 -10.333   1.794  0.00  0.00    -0.153 OA
BRANCH  12  15
ATOM     15  N   UNL     1      -1.446  -9.970   3.447  0.00  0.00    -0.177 NA
ATOM     16  C   UNL     1      -0.793  -8.727   3.796  0.00  0.00    +0.109 C 
ATOM     17  C   UNL     1       0.453  -9.022   4.667  0.00  0.00    +0.017 C 
ATOM     18  C   UNL     1       0.045  -9.469   6.007  0.00  0.00    +0.001 C 
ATOM     19  C   UNL     1      -0.743 -10.776   6.021  0.00  0.00    +0.001 C 
ATOM     20  C   UNL     1      -2.202 -10.483   5.777  0.00  0.00    +0.017 C 
ATOM     21  C   UNL     1      -2.518 -10.565   4.269  0.00  0.00    +0.109 C 
ENDBRANCH  12  15
ENDBRANCH   7  12
ENDBRANCH   2   5
BRANCH   1  22
ATOM     22  C   UNL     1      -0.319  -5.616  -2.284  0.00  0.00    +0.109 C 
BRANCH  22  23
ATOM     23  C   UNL     1       1.031  -5.126  -1.758  0.00  0.00    +0.052 C 
BRANCH  23  30
ATOM     24  C   UNL     1       0.606  -0.607  -1.056  0.00  0.00    +0.121 A 
ATOM     25  C   UNL     1       1.172   0.195  -2.062  0.00  0.00    +0.047 A 
ATOM     26  C   UNL     1       1.790  -0.325  -3.144  0.00  0.00    +0.029 A 
ATOM     27  C   UNL     1       1.886  -1.780  -3.299  0.00  0.00    +0.043 A 
ATOM     28  N   UNL     1       2.419  -2.528  -4.232  0.00  0.00    -0.380 N 
ATOM     29  C   UNL     1       2.222  -3.937  -3.871  0.00  0.00    +0.144 C 
ATOM     30  C   UNL     1       1.476  -3.927  -2.555  0.00  0.00    -0.040 C 
ATOM     31  C   UNL     1       1.290  -2.626  -2.239  0.00  0.00    +0.002 A 
ATOM     32  C   UNL     1       0.646  -1.960  -1.102  0.00  0.00    +0.055 A 
ATOM     33  H   UNL     1       2.869  -2.205  -5.029  0.00  0.00    +0.160 HD
BRANCH  24  35
ATOM     34  C   UNL     1      -0.017   1.425   0.010  0.00  0.00    +0.277 C 
ATOM     35  O   UNL     1       0.002  -0.004   0.002  0.00  0.00    -0.495 OA
ENDBRANCH  24  35
ENDBRANCH  23  30
ENDBRANCH  22  23
ENDBRANCH   1  22
TORSDOF 7
