REMARK  Name = ZINC39197445
REMARK  8 active torsions:
REMARK  status: ('A' for Active; 'I' for Inactive)
REMARK    1  A    between atoms: C_1  and  C_2
REMARK    2  A    between atoms: C_2  and  C_3
REMARK    3  A    between atoms: C_8  and  N_9
REMARK    4  A    between atoms: C_10  and  C_28
REMARK    5  A    between atoms: C_12  and  C_14
REMARK    6  A    between atoms: N_16  and  C_17
REMARK    7  A    between atoms: C_17  and  C_19
REMARK    8  A    between atoms: C_17  and  C_20
REMARK                            x       y       z     vdW  Elec       q    Type
REMARK                         _______ _______ _______ _____ _____    ______ ____
ROOT
ATOM      1  N   UNL     1      -1.347  -0.919  -3.086  0.00  0.00    -0.231 N 
ATOM      2  C   UNL     1      -2.094  -0.618  -4.190  0.00  0.00    +0.075 A 
ATOM      3  C   UNL     1      -1.320   0.181  -4.984  0.00  0.00    +0.063 A 
ATOM      4  C   UNL     1      -0.097   0.328  -4.293  0.00  0.00    +0.148 A 
ATOM      5  N   UNL     1      -0.197  -0.354  -3.168  0.00  0.00    -0.161 NA
ENDROOT
BRANCH   2   6
ATOM      6  C   UNL     1      -3.474  -1.071  -4.472  0.00  0.00    +0.001 A 
ATOM      7  C   UNL     1      -4.318  -1.448  -3.427  0.00  0.00    +0.010 A 
ATOM      8  C   UNL     1      -5.598  -1.869  -3.704  0.00  0.00    +0.004 A 
ATOM      9  C   UNL     1      -6.062  -1.921  -5.014  0.00  0.00    -0.044 A 
ATOM     10  C   UNL     1      -5.235  -1.544  -6.051  0.00  0.00    -0.044 A 
ATOM     11  C   UNL     1      -3.943  -1.117  -5.782  0.00  0.00    +0.014 A 
ATOM     12  C   UNL     1      -5.680  -1.561  -7.490  0.00  0.00    +0.035 C 
ATOM     13  C   UNL     1      -6.924  -2.431  -7.658  0.00  0.00    +0.005 C 
ATOM     14  C   UNL     1      -7.966  -1.990  -6.624  0.00  0.00    +0.005 C 
ATOM     15  C   UNL     1      -7.473  -2.399  -5.238  0.00  0.00    +0.035 C 
ENDBRANCH   2   6
BRANCH   1  21
ATOM     16  C   UNL     1      -1.770  -1.217  -0.726  0.00  0.00    -0.022 A 
ATOM     17  C   UNL     1      -2.199  -2.008   0.322  0.00  0.00    +0.006 A 
ATOM     18  C   UNL     1      -2.626  -3.301   0.085  0.00  0.00    +0.000 A 
ATOM     19  C   UNL     1      -2.627  -3.807  -1.202  0.00  0.00    +0.002 A 
ATOM     20  C   UNL     1      -2.201  -3.022  -2.255  0.00  0.00    +0.028 A 
ATOM     21  C   UNL     1      -1.775  -1.720  -2.021  0.00  0.00    +0.069 A 
BRANCH  16  23
ATOM     22  C   UNL     1      -2.439   1.170  -0.777  0.00  0.00    +0.009 C 
ATOM     23  C   UNL     1      -1.304   0.192  -0.467  0.00  0.00    +0.034 C 
ENDBRANCH  16  23
ENDBRANCH   1  21
BRANCH   4  24
ATOM     24  C   UNL     1       1.074   1.106  -4.744  0.00  0.00    +0.265 C 
ATOM     25  O   UNL     1       1.039   1.699  -5.805  0.00  0.00    -0.268 OA
ATOM     26  N   UNL     1       2.182   1.160  -3.978  0.00  0.00    -0.299 N 
ATOM     27  H   UNL     1       2.210   0.688  -3.132  0.00  0.00    +0.150 HD
BRANCH  26  28
ATOM     28  C   UNL     1       3.344   1.932  -4.425  0.00  0.00    +0.156 C 
ATOM     29  C   UNL     1       4.204   1.070  -5.352  0.00  0.00    +0.038 C 
BRANCH  28  30
ATOM     30  C   UNL     1       4.160   2.351  -3.228  0.00  0.00    +0.236 C 
ATOM     31  O   UNL     1       4.035   1.763  -2.175  0.00  0.00    -0.274 OA
ATOM     32  N   UNL     1       5.027   3.377  -3.330  0.00  0.00    -0.300 N 
ATOM     33  C   UNL     1       5.107   4.171  -4.564  0.00  0.00    +0.108 C 
ATOM     34  C   UNL     1       4.936   5.652  -4.210  0.00  0.00    +0.019 C 
ATOM     35  C   UNL     1       5.965   6.039  -3.145  0.00  0.00    +0.003 C 
ATOM     36  C   UNL     1       5.730   5.210  -1.880  0.00  0.00    +0.019 C 
ATOM     37  C   UNL     1       5.906   3.728  -2.206  0.00  0.00    +0.108 C 
ENDBRANCH  28  30
ENDBRANCH  26  28
ENDBRANCH   4  24
TORSDOF 6
