REMARK  Name = ZINC39290678
REMARK  6 active torsions:
REMARK  status: ('A' for Active; 'I' for Inactive)
REMARK    1  A    between atoms: C_4  and  S_7
REMARK    2  A    between atoms: S_7  and  C_8
REMARK    3  A    between atoms: C_16  and  C_18
REMARK    4  A    between atoms: C_18  and  S_29
REMARK    5  A    between atoms: C_19  and  C_20
REMARK    6  A    between atoms: S_29  and  C_32
REMARK                            x       y       z     vdW  Elec       q    Type
REMARK                         _______ _______ _______ _____ _____    ______ ____
ROOT
ATOM      1  C   UNL     1       5.603  -3.908  -1.203  0.00  0.00    +0.099 C 
ATOM      2  C   UNL     1       6.665  -3.118  -1.276  0.00  0.00    +0.033 C 
ENDROOT
BRANCH   1  11
ATOM      3  C   UNL     1       3.420  -3.447  -0.129  0.00  0.00    +0.027 C 
ATOM      4  C   UNL     1       2.557  -4.506   0.135  0.00  0.00    +0.010 A 
ATOM      5  C   UNL     1       1.150  -4.617   0.107  0.00  0.00    +0.011 A 
ATOM      6  C   UNL     1       0.562  -5.801   0.419  0.00  0.00    +0.001 A 
ATOM      7  C   UNL     1       1.316  -6.922   0.769  0.00  0.00    +0.002 A 
ATOM      8  C   UNL     1       2.671  -6.886   0.817  0.00  0.00    +0.026 A 
ATOM      9  C   UNL     1       3.356  -5.685   0.504  0.00  0.00    +0.044 A 
ATOM     10  N   UNL     1       4.644  -5.396   0.476  0.00  0.00    -0.372 N 
ATOM     11  C   UNL     1       4.815  -3.995   0.079  0.00  0.00    +0.166 C 
ATOM     12  H   UNL     1       5.364  -6.013   0.682  0.00  0.00    +0.161 HD
BRANCH   3  13
ATOM     13  S   UNL     1       3.006  -1.906  -0.585  0.00  0.00    -0.091 S 
BRANCH  13  17
ATOM     14  C   UNL     1       4.177   0.641   2.971  0.00  0.00    +0.000 A 
ATOM     15  C   UNL     1       3.702   1.242   1.820  0.00  0.00    +0.001 A 
ATOM     16  C   UNL     1       3.344   0.468   0.733  0.00  0.00    +0.015 A 
ATOM     17  C   UNL     1       3.462  -0.915   0.798  0.00  0.00    +0.013 A 
ATOM     18  C   UNL     1       3.940  -1.515   1.957  0.00  0.00    +0.015 A 
ATOM     19  C   UNL     1       4.296  -0.735   3.040  0.00  0.00    +0.001 A 
ENDBRANCH  13  17
ENDBRANCH   3  13
ENDBRANCH   1  11
BRANCH   2  20
ATOM     20  C   UNL     1       7.293  -2.842  -2.585  0.00  0.00    -0.020 A 
ATOM     21  C   UNL     1       6.534  -2.302  -3.624  0.00  0.00    +0.012 A 
ATOM     22  C   UNL     1       7.121  -2.045  -4.846  0.00  0.00    +0.050 A 
ATOM     23  C   UNL     1       8.465  -2.321  -5.046  0.00  0.00    +0.166 A 
ATOM     24  C   UNL     1       9.229  -2.861  -4.012  0.00  0.00    +0.167 A 
ATOM     25  C   UNL     1       8.646  -3.116  -2.784  0.00  0.00    +0.057 A 
ATOM     26  O   UNL     1      10.506  -3.038  -4.460  0.00  0.00    -0.453 OA
ATOM     27  C   UNL     1      10.420  -2.986  -5.896  0.00  0.00    +0.466 C 
ATOM     28  O   UNL     1       9.266  -2.161  -6.140  0.00  0.00    -0.453 OA
ENDBRANCH   2  20
BRANCH   1  29
ATOM     29  S   UNL     1       5.112  -4.856  -2.605  0.00  0.00    +0.024 S 
ATOM     30  O   UNL     1       6.144  -4.715  -3.572  0.00  0.00    -0.165 OA
ATOM     31  O   UNL     1       4.697  -6.123  -2.113  0.00  0.00    -0.165 OA
BRANCH  29  32
ATOM     32  C   UNL     1       3.680  -4.084  -3.280  0.00  0.00    +0.093 A 
ATOM     33  C   UNL     1       2.430  -4.374  -2.765  0.00  0.00    +0.027 A 
ATOM     34  C   UNL     1       1.306  -3.768  -3.296  0.00  0.00    +0.002 A 
ATOM     35  C   UNL     1       1.432  -2.872  -4.340  0.00  0.00    +0.000 A 
ATOM     36  C   UNL     1       2.682  -2.581  -4.855  0.00  0.00    +0.002 A 
ATOM     37  C   UNL     1       3.806  -3.184  -4.322  0.00  0.00    +0.027 A 
ENDBRANCH  29  32
ENDBRANCH   1  29
TORSDOF 6
