REMARK  Name = ZINC11791077
REMARK  10 active torsions:
REMARK  status: ('A' for Active; 'I' for Inactive)
REMARK    1  A    between atoms: C_1  and  C_2
REMARK    2  A    between atoms: C_3  and  C_4
REMARK    3  A    between atoms: C_4  and  N_5
REMARK    4  A    between atoms: C_8  and  C_12
REMARK    5  A    between atoms: C_8  and  C_20
REMARK    6  A    between atoms: C_12  and  C_13
REMARK    7  A    between atoms: C_25  and  C_27
REMARK    8  A    between atoms: C_25  and  C_28
REMARK    9  A    between atoms: C_25  and  N_65
REMARK   10  A    between atoms: C_28  and  C_29
REMARK                            x       y       z     vdW  Elec       q    Type
REMARK                         _______ _______ _______ _____ _____    ______ ____
ROOT
ATOM      1  N   UNL     1      -1.897   3.209  -0.956  0.00  0.00    -0.212 N 
ATOM      2  C   UNL     1      -0.624   2.776  -1.045  0.00  0.00    +0.248 C 
ATOM      3  O   UNL     1       0.383   3.450  -1.010  0.00  0.00    -0.273 OA
ATOM      4  C   UNL     1      -0.714   1.270  -1.196  0.00  0.00    +0.119 C 
ATOM      5  N   UNL     1      -2.163   1.006  -1.173  0.00  0.00    -0.284 N 
ATOM      6  C   UNL     1      -2.769   2.198  -1.030  0.00  0.00    +0.310 C 
ATOM      7  O   UNL     1      -3.975   2.339  -0.973  0.00  0.00    -0.252 OA
ATOM      8  H   UNL     1      -2.595   0.140  -1.247  0.00  0.00    +0.151 HD
ENDROOT
BRANCH   4   9
ATOM      9  C   UNL     1      -0.106   0.823  -2.527  0.00  0.00    +0.018 C 
ATOM     10  C   UNL     1       1.406   1.062  -2.506  0.00  0.00    -0.013 C 
ATOM     11  C   UNL     1       1.999   0.671  -3.861  0.00  0.00    -0.078 C 
ATOM     12  C   UNL     1      -0.072   1.221  -4.992  0.00  0.00    -0.078 C 
ATOM     13  C   UNL     1      -0.727   1.630  -3.671  0.00  0.00    -0.013 C 
ATOM     14  N   UNL     1       1.378   1.500  -4.915  0.00  0.00    +0.382 N 
ATOM     15  H   UNL     1       1.514   2.491  -4.683  0.00  0.00    -0.081 HD
BRANCH  14  16
ATOM     16  C   UNL     1       2.015   1.221  -6.219  0.00  0.00    -0.066 C 
ATOM     17  C   UNL     1       2.021  -0.283  -6.503  0.00  0.00    -0.013 C 
BRANCH  16  18
ATOM     18  C   UNL     1       3.454   1.739  -6.185  0.00  0.00    +0.040 C 
BRANCH  18  19
ATOM     19  C   UNL     1       3.445   3.235  -6.004  0.00  0.00    +0.040 A 
ATOM     20  C   UNL     1       4.144   3.801  -4.955  0.00  0.00    +0.023 A 
ATOM     21  C   UNL     1       4.134   5.179  -4.802  0.00  0.00    +0.003 A 
ATOM     22  C   UNL     1       3.408   5.939  -5.707  0.00  0.00    +0.020 A 
ATOM     23  C   UNL     1       2.728   5.302  -6.728  0.00  0.00    +0.111 A 
ATOM     24  N   UNL     1       2.765   3.989  -6.846  0.00  0.00    -0.260 NA
ENDBRANCH  18  19
ENDBRANCH  16  18
ENDBRANCH  14  16
ENDBRANCH   4   9
BRANCH   1  25
ATOM     25  C   UNL     1      -2.279   4.615  -0.798  0.00  0.00    +0.206 C 
BRANCH  25  28
ATOM     26  C   UNL     1      -2.502   5.534   3.210  0.00  0.00    +0.106 C 
ATOM     27  C   UNL     1      -2.422   5.205   1.777  0.00  0.00    -0.104 C 
ATOM     28  C   UNL     1      -2.358   4.943   0.635  0.00  0.00    -0.083 C 
ENDBRANCH  25  28
ENDBRANCH   1  25
BRANCH   4  29
ATOM     29  C   UNL     1      -0.019   0.570  -0.027  0.00  0.00    +0.070 C 
BRANCH  29  30
ATOM     30  C   UNL     1      -0.682   0.973   1.265  0.00  0.00    -0.042 A 
ATOM     31  C   UNL     1      -1.744   0.237   1.756  0.00  0.00    +0.004 A 
ATOM     32  C   UNL     1      -2.353   0.606   2.941  0.00  0.00    +0.003 A 
ATOM     33  C   UNL     1      -1.900   1.711   3.637  0.00  0.00    +0.038 A 
ATOM     34  C   UNL     1      -0.836   2.449   3.146  0.00  0.00    +0.124 A 
ATOM     35  C   UNL     1      -0.224   2.075   1.962  0.00  0.00    +0.042 A 
ATOM     36  F   UNL     1      -0.392   3.529   3.825  0.00  0.00    -0.205 F 
ENDBRANCH  29  30
ENDBRANCH   4  29
TORSDOF 8
