REMARK  Name = ZINC37376016
REMARK  6 active torsions:
REMARK  status: ('A' for Active; 'I' for Inactive)
REMARK    1  A    between atoms: C_1  and  C_2
REMARK    2  A    between atoms: C_2  and  C_3
REMARK    3  A    between atoms: C_2  and  N_4
REMARK    4  A    between atoms: C_12  and  C_27
REMARK    5  A    between atoms: C_14  and  N_26
REMARK    6  A    between atoms: N_15  and  C_19
REMARK                            x       y       z     vdW  Elec       q    Type
REMARK                         _______ _______ _______ _____ _____    ______ ____
ROOT
ATOM      1  N   UNL     1      -0.877  -0.630  -0.741  0.00  0.00    +0.383 N 
ATOM      2  C   UNL     1      -1.788  -0.130  -1.778  0.00  0.00    -0.059 C 
ATOM      3  C   UNL     1      -3.232  -0.473  -1.397  0.00  0.00    +0.089 C 
ATOM      4  N   UNL     1      -3.320  -1.922  -1.160  0.00  0.00    -0.303 N 
ATOM      5  C   UNL     1      -2.336  -2.537  -0.256  0.00  0.00    +0.089 C 
ATOM      6  C   UNL     1      -0.934  -2.097  -0.691  0.00  0.00    -0.059 C 
ATOM      7  C   UNL     1      -4.300  -2.684  -1.769  0.00  0.00    +0.220 A 
ATOM      8  N   UNL     1      -4.332  -3.988  -1.512  0.00  0.00    -0.213 NA
ATOM      9  C   UNL     1      -5.239  -4.792  -2.054  0.00  0.00    +0.091 A 
ATOM     10  C   UNL     1      -6.194  -4.230  -2.930  0.00  0.00    +0.086 A 
ATOM     11  C   UNL     1      -7.266  -4.708  -3.674  0.00  0.00    +0.131 A 
ATOM     12  N   UNL     1      -7.805  -3.661  -4.327  0.00  0.00    -0.216 N 
ATOM     13  N   UNL     1      -7.098  -2.493  -4.021  0.00  0.00    -0.144 NA
ATOM     14  C   UNL     1      -6.122  -2.780  -3.188  0.00  0.00    +0.189 A 
ATOM     15  N   UNL     1      -5.153  -2.078  -2.569  0.00  0.00    -0.193 NA
ATOM     16  H   UNL     1      -1.150  -0.253   0.154  0.00  0.00    -0.081 HD
ENDROOT
BRANCH   9  17
ATOM     17  C   UNL     1      -5.249  -6.240  -1.748  0.00  0.00    +0.039 A 
ATOM     18  C   UNL     1      -5.145  -7.175  -2.779  0.00  0.00    +0.013 A 
ATOM     19  C   UNL     1      -5.154  -8.523  -2.489  0.00  0.00    +0.004 A 
ATOM     20  C   UNL     1      -5.266  -8.953  -1.179  0.00  0.00    +0.041 A 
ATOM     21  C   UNL     1      -5.371  -8.034  -0.149  0.00  0.00    +0.159 A 
ATOM     22  C   UNL     1      -5.357  -6.677  -0.426  0.00  0.00    +0.168 A 
ATOM     23  F   UNL     1      -5.452  -5.779   0.579  0.00  0.00    -0.202 F 
ATOM     24  F   UNL     1      -5.480  -8.461   1.128  0.00  0.00    -0.202 F 
ENDBRANCH   9  17
BRANCH  12  25
ATOM     25  C   UNL     1      -8.909  -3.730  -5.185  0.00  0.00    +0.070 A 
ATOM     26  C   UNL     1      -9.103  -4.853  -5.981  0.00  0.00    +0.028 A 
ATOM     27  C   UNL     1     -10.192  -4.920  -6.827  0.00  0.00    +0.005 A 
ATOM     28  C   UNL     1     -11.092  -3.871  -6.883  0.00  0.00    +0.038 A 
ATOM     29  C   UNL     1     -10.903  -2.750  -6.092  0.00  0.00    +0.125 A 
ATOM     30  C   UNL     1      -9.816  -2.680  -5.239  0.00  0.00    +0.066 A 
ATOM     31  F   UNL     1     -11.783  -1.727  -6.149  0.00  0.00    -0.205 F 
ENDBRANCH  12  25
BRANCH   1  33
ATOM     32  C   UNL     1       0.557   1.321  -1.104  0.00  0.00    -0.014 C 
ATOM     33  C   UNL     1       0.495  -0.206  -1.051  0.00  0.00    -0.075 C 
ATOM     34  C   UNL     1       1.444  -0.718   0.035  0.00  0.00    -0.014 C 
ENDBRANCH   1  33
BRANCH  11  35
ATOM     35  N   UNL     1      -7.700  -6.019  -3.732  0.00  0.00    -0.342 N 
ATOM     36  H   UNL     1      -7.236  -6.706  -3.228  0.00  0.00    +0.144 HD
ATOM     37  H   UNL     1      -8.468  -6.252  -4.276  0.00  0.00    +0.144 HD
ENDBRANCH  11  35
TORSDOF 4
