REMARK  Name = ZINC08326873
REMARK  7 active torsions:
REMARK  status: ('A' for Active; 'I' for Inactive)
REMARK    1  A    between atoms: C_1  and  C_2
REMARK    2  A    between atoms: C_2  and  C_3
REMARK    3  A    between atoms: C_3  and  C_5
REMARK    4  A    between atoms: C_3  and  S_6
REMARK    5  A    between atoms: S_6  and  C_7
REMARK    6  A    between atoms: C_18  and  C_20
REMARK    7  A    between atoms: C_23  and  O_26
REMARK                            x       y       z     vdW  Elec       q    Type
REMARK                         _______ _______ _______ _____ _____    ______ ____
ROOT
ATOM      1  C   UNL     1       3.102  -0.498  -2.760  0.00  0.00    +0.171 A 
ATOM      2  N   UNL     1       4.414  -0.270  -3.046  0.00  0.00    -0.302 N 
ATOM      3  H   UNL     1       4.983   0.169  -2.395  0.00  0.00    +0.171 HD
ATOM      4  C   UNL     1       4.924  -0.653  -4.236  0.00  0.00    +0.258 A 
ATOM      5  O   UNL     1       6.100  -0.457  -4.501  0.00  0.00    -0.267 OA
ATOM      6  C   UNL     1       4.081  -1.281  -5.160  0.00  0.00    +0.069 A 
ATOM      7  C   UNL     1       2.754  -1.484  -4.821  0.00  0.00    +0.135 A 
ATOM      8  N   UNL     1       2.305  -1.093  -3.623  0.00  0.00    -0.208 NA
ATOM      9  N   UNL     1       1.904  -2.094  -5.723  0.00  0.00    -0.302 N 
ATOM     10  C   UNL     1       2.221  -2.146  -7.053  0.00  0.00    +0.017 C 
ATOM     11  C   UNL     1       3.493  -1.977  -7.471  0.00  0.00    +0.024 C 
ATOM     12  C   UNL     1       4.611  -1.726  -6.490  0.00  0.00    +0.092 C 
ATOM     13  C   UNL     1       3.820  -2.036  -8.837  0.00  0.00    +0.162 C 
ATOM     14  O   UNL     1       4.972  -1.860  -9.182  0.00  0.00    -0.292 OA
ATOM     15  C   UNL     1       2.773  -2.312  -9.880  0.00  0.00    +0.080 C 
ATOM     16  C   UNL     1       1.653  -3.150  -9.253  0.00  0.00    +0.014 C 
ATOM     17  C   UNL     1       1.106  -2.393  -8.040  0.00  0.00    +0.051 C 
ATOM     18  H   UNL     1       1.075  -2.488  -5.411  0.00  0.00    +0.153 HD
ENDROOT
BRANCH  12  19
ATOM     19  C   UNL     1       5.401  -2.996  -6.306  0.00  0.00    -0.035 A 
ATOM     20  C   UNL     1       4.785  -4.124  -5.796  0.00  0.00    +0.008 A 
ATOM     21  C   UNL     1       5.507  -5.289  -5.626  0.00  0.00    +0.046 A 
ATOM     22  C   UNL     1       6.851  -5.327  -5.968  0.00  0.00    +0.117 A 
ATOM     23  C   UNL     1       7.466  -4.194  -6.481  0.00  0.00    +0.046 A 
ATOM     24  C   UNL     1       6.739  -3.033  -6.653  0.00  0.00    +0.008 A 
BRANCH  22  25
ATOM     25  O   UNL     1       7.564  -6.472  -5.802  0.00  0.00    -0.507 OA
ATOM     26  H   UNL     1       7.554  -7.057  -6.572  0.00  0.00    +0.292 HD
ENDBRANCH  22  25
ENDBRANCH  12  19
BRANCH   1  27
ATOM     27  S   UNL     1       2.460   0.006  -1.198  0.00  0.00    -0.085 S 
BRANCH  27  28
ATOM     28  C   UNL     1       0.718  -0.497  -1.257  0.00  0.00    +0.051 C 
ATOM     29  C   UNL     1       0.630  -2.023  -1.329  0.00  0.00    +0.019 C 
BRANCH  28  31
ATOM     30  C   UNL     1      -0.019   1.526   0.010  0.00  0.00    +0.005 C 
ATOM     31  C   UNL     1       0.002  -0.004   0.002  0.00  0.00    +0.011 C 
ENDBRANCH  28  31
ENDBRANCH  27  28
ENDBRANCH   1  27
TORSDOF 5
