REMARK  Name = ZINC54185105
REMARK  3 active torsions:
REMARK  status: ('A' for Active; 'I' for Inactive)
REMARK    1  A    between atoms: C_3  and  S_8
REMARK    2  A    between atoms: S_8  and  C_9
REMARK    3  A    between atoms: C_12  and  N_18
REMARK                            x       y       z     vdW  Elec       q    Type
REMARK                         _______ _______ _______ _____ _____    ______ ____
ROOT
ATOM      1  C   UNL     1       5.134   1.063   0.107  0.00  0.00    +0.044 A 
ATOM      2  C   UNL     1       4.787  -0.253   0.079  0.00  0.00    +0.019 A 
ATOM      3  C   UNL     1       5.729  -1.277   0.179  0.00  0.00    +0.026 A 
ATOM      4  C   UNL     1       7.061  -1.033   0.312  0.00  0.00    +0.056 A 
ATOM      5  C   UNL     1       7.542   0.350   0.353  0.00  0.00    +0.156 A 
ATOM      6  C   UNL     1       6.546   1.435   0.241  0.00  0.00    +0.150 A 
ATOM      7  N   UNL     1       7.182   2.579   0.294  0.00  0.00    -0.048 NA
ATOM      8  O   UNL     1       8.566   2.304   0.431  0.00  0.00    -0.241 OA
ATOM      9  N   UNL     1       8.728   0.896   0.470  0.00  0.00    -0.047 NA
ENDROOT
BRANCH   4  10
ATOM     10  N   UNL     1       7.964  -2.095   0.408  0.00  0.00    -0.356 N 
ATOM     11  H   UNL     1       7.642  -3.010   0.381  0.00  0.00    +0.142 HD
ATOM     12  H   UNL     1       8.913  -1.918   0.503  0.00  0.00    +0.142 HD
ENDBRANCH   4  10
BRANCH   1  13
ATOM     13  S   UNL     1       3.896   2.310  -0.023  0.00  0.00    -0.087 S 
BRANCH  13  16
ATOM     14  C   UNL     1       0.608   0.349   1.209  0.00  0.00    +0.003 A 
ATOM     15  C   UNL     1       1.795   1.053   1.200  0.00  0.00    +0.015 A 
ATOM     16  C   UNL     1       2.381   1.411  -0.008  0.00  0.00    +0.014 A 
ATOM     17  C   UNL     1       1.770   1.057  -1.205  0.00  0.00    +0.035 A 
ATOM     18  C   UNL     1       0.582   0.351  -1.189  0.00  0.00    +0.042 A 
ATOM     19  C   UNL     1       0.001  -0.002   0.017  0.00  0.00    +0.020 A 
ATOM     20 CL   UNL     1      -0.184  -0.091  -2.683  0.00  0.00    -0.084 Cl
ENDBRANCH  13  16
ENDBRANCH   1  13
TORSDOF 3
