REMARK  Name = ZINC02111275
REMARK  9 active torsions:
REMARK  status: ('A' for Active; 'I' for Inactive)
REMARK    1  A    between atoms: C_1  and  C_2
REMARK    2  A    between atoms: C_6  and  O_28
REMARK    3  A    between atoms: C_12  and  C_13
REMARK    4  A    between atoms: C_13  and  C_14
REMARK    5  A    between atoms: C_19  and  O_27
REMARK    6  A    between atoms: O_28  and  C_29
REMARK    7  A    between atoms: C_29  and  C_30
REMARK    8  A    between atoms: C_35  and  O_36
REMARK    9  A    between atoms: O_36  and  C_37
REMARK                            x       y       z     vdW  Elec       q    Type
REMARK                         _______ _______ _______ _____ _____    ______ ____
ROOT
ATOM      1  C   UNL     1       4.998   0.087  -0.046  0.00  0.00    +0.045 C 
ATOM      2  C   UNL     1       3.689  -0.659  -0.037  0.00  0.00    -0.029 A 
ATOM      3  C   UNL     1       2.414   0.061  -0.021  0.00  0.00    +0.021 A 
ATOM      4  C   UNL     1       2.376   1.460  -0.012  0.00  0.00    +0.015 A 
ATOM      5  C   UNL     1       1.174   2.106   0.002  0.00  0.00    +0.046 A 
ATOM      6  C   UNL     1      -0.017   1.381   0.010  0.00  0.00    +0.125 A 
ATOM      7  C   UNL     1       0.002  -0.004   0.002  0.00  0.00    +0.092 A 
ATOM      8  C   UNL     1       1.215  -0.676  -0.013  0.00  0.00    +0.143 A 
ATOM      9  O   UNL     1       1.256  -2.026  -0.020  0.00  0.00    -0.422 OA
ATOM     10  C   UNL     1       2.421  -2.692  -0.035  0.00  0.00    +0.341 A 
ATOM     11  O   UNL     1       2.409  -3.910  -0.042  0.00  0.00    -0.245 OA
ATOM     12  C   UNL     1       3.659  -2.017  -0.044  0.00  0.00    +0.049 A 
ENDROOT
BRANCH  12  13
ATOM     13  C   UNL     1       4.947  -2.801  -0.061  0.00  0.00    +0.138 C 
BRANCH  13  14
ATOM     14  C   UNL     1       5.390  -3.069   1.354  0.00  0.00    +0.220 C 
ATOM     15  O   UNL     1       4.726  -2.665   2.285  0.00  0.00    -0.275 OA
ATOM     16  N   UNL     1       6.524  -3.760   1.586  0.00  0.00    -0.301 N 
ATOM     17  C   UNL     1       7.340  -4.257   0.469  0.00  0.00    +0.110 C 
ATOM     18  C   UNL     1       7.562  -5.761   0.653  0.00  0.00    +0.054 C 
ATOM     19  C   UNL     1       8.170  -6.019   2.035  0.00  0.00    +0.072 C 
ATOM     20  C   UNL     1       8.409  -7.521   2.208  0.00  0.00    +0.035 C 
ATOM     21  C   UNL     1       7.079  -8.266   2.067  0.00  0.00    +0.003 C 
ATOM     22  C   UNL     1       6.104  -7.779   3.140  0.00  0.00    +0.001 C 
ATOM     23  C   UNL     1       5.870  -6.276   2.974  0.00  0.00    +0.008 C 
ATOM     24  C   UNL     1       7.201  -5.535   3.117  0.00  0.00    +0.038 C 
ATOM     25  C   UNL     1       6.973  -4.025   2.959  0.00  0.00    +0.114 C 
BRANCH  19  26
ATOM     26  O   UNL     1       9.408  -5.315   2.152  0.00  0.00    -0.388 OA
ATOM     27  H   UNL     1      10.070  -5.573   1.497  0.00  0.00    +0.210 HD
ENDBRANCH  19  26
ENDBRANCH  13  14
ENDBRANCH  12  13
BRANCH   6  28
ATOM     28  O   UNL     1      -1.204   2.038   0.019  0.00  0.00    -0.487 OA
BRANCH  28  29
ATOM     29  C   UNL     1      -1.156   3.466   0.026  0.00  0.00    +0.268 C 
BRANCH  29  30
ATOM     30  C   UNL     1      -2.559   4.016   0.036  0.00  0.00    +0.031 A 
ATOM     31  C   UNL     1      -3.639   3.155   0.031  0.00  0.00    +0.010 A 
ATOM     32  C   UNL     1      -4.926   3.660   0.044  0.00  0.00    +0.001 A 
ATOM     33  C   UNL     1      -5.136   5.027   0.053  0.00  0.00    +0.004 A 
ATOM     34  C   UNL     1      -4.059   5.891   0.053  0.00  0.00    +0.046 A 
ATOM     35  C   UNL     1      -2.766   5.388   0.044  0.00  0.00    +0.126 A 
BRANCH  35  36
ATOM     36  O   UNL     1      -1.705   6.237   0.044  0.00  0.00    -0.495 OA
ATOM     37  C   UNL     1      -1.994   7.636   0.053  0.00  0.00    +0.277 C 
ENDBRANCH  35  36
ENDBRANCH  29  30
ENDBRANCH  28  29
ENDBRANCH   6  28
TORSDOF 7
