REMARK  Name = ZINC09560073
REMARK  10 active torsions:
REMARK  status: ('A' for Active; 'I' for Inactive)
REMARK    1  A    between atoms: C_1  and  C_2
REMARK    2  A    between atoms: C_2  and  O_3
REMARK    3  A    between atoms: O_3  and  C_4
REMARK    4  A    between atoms: C_6  and  C_12
REMARK    5  A    between atoms: C_9  and  O_10
REMARK    6  A    between atoms: C_23  and  C_26
REMARK    7  A    between atoms: C_28  and  O_34
REMARK    8  A    between atoms: C_31  and  O_32
REMARK    9  A    between atoms: O_32  and  C_33
REMARK   10  A    between atoms: O_34  and  C_35
REMARK                            x       y       z     vdW  Elec       q    Type
REMARK                         _______ _______ _______ _____ _____    ______ ____
ROOT
ATOM      1  C   UNL     1       0.002  -0.004   0.002  0.00  0.00    +0.063 C 
ATOM      2  C   UNL     1       0.742  -0.511   1.241  0.00  0.00    +0.109 C 
ATOM      3  C   UNL     1       2.215  -0.232   1.085  0.00  0.00    +0.218 C 
ATOM      4  O   UNL     1       2.886   0.038   2.058  0.00  0.00    -0.275 OA
ATOM      5  N   UNL     1       2.785  -0.280  -0.131  0.00  0.00    -0.289 N 
ATOM      6  C   UNL     1       2.055  -0.608  -1.245  0.00  0.00    +0.018 C 
ATOM      7  C   UNL     1       0.711  -0.491  -1.240  0.00  0.00    +0.020 C 
ATOM      8  C   UNL     1      -0.056  -0.815  -2.372  0.00  0.00    +0.162 C 
ATOM      9  O   UNL     1      -1.265  -0.708  -2.326  0.00  0.00    -0.292 OA
ATOM     10  C   UNL     1       0.598  -1.293  -3.641  0.00  0.00    +0.088 C 
ATOM     11  C   UNL     1       2.009  -0.702  -3.726  0.00  0.00    +0.036 C 
ATOM     12  C   UNL     1       2.784  -1.103  -2.469  0.00  0.00    +0.060 C 
ATOM     13  H   UNL     1       3.730  -0.079  -0.222  0.00  0.00    +0.155 HD
ENDROOT
BRANCH   1  16
ATOM     14  C   UNL     1      -1.247   3.562   0.033  0.00  0.00    +0.163 A 
ATOM     15  C   UNL     1      -1.226   2.176   0.020  0.00  0.00    +0.053 A 
ATOM     16  C   UNL     1      -0.018   1.503   0.010  0.00  0.00    -0.035 A 
ATOM     17  C   UNL     1       1.170   2.209   0.003  0.00  0.00    +0.023 A 
ATOM     18  C   UNL     1       1.157   3.592   0.010  0.00  0.00    +0.063 A 
ATOM     19  C   UNL     1      -0.051   4.273   0.025  0.00  0.00    +0.173 A 
ATOM     20 BR   UNL     1       2.785   4.554   0.001  0.00  0.00    -0.046 Br
BRANCH  19  21
ATOM     21  O   UNL     1      -0.067   5.633   0.033  0.00  0.00    -0.503 OA
ATOM     22  H   UNL     1      -0.079   6.031  -0.848  0.00  0.00    +0.292 HD
ENDBRANCH  19  21
BRANCH  14  23
ATOM     23  O   UNL     1      -2.434   4.225   0.048  0.00  0.00    -0.489 OA
BRANCH  23  25
ATOM     24  C   UNL     1      -4.847   4.345   0.072  0.00  0.00    +0.048 C 
ATOM     25  C   UNL     1      -3.621   3.430   0.055  0.00  0.00    +0.226 C 
ENDBRANCH  23  25
ENDBRANCH  14  23
ENDBRANCH   1  16
BRANCH  11  26
ATOM     26  C   UNL     1       2.712  -1.237  -4.947  0.00  0.00    +0.002 A 
ATOM     27  C   UNL     1       2.906  -2.597  -5.091  0.00  0.00    +0.053 A 
ATOM     28  C   UNL     1       3.549  -3.090  -6.217  0.00  0.00    +0.121 A 
ATOM     29  C   UNL     1       4.006  -2.216  -7.193  0.00  0.00    +0.049 A 
ATOM     30  C   UNL     1       3.817  -0.856  -7.046  0.00  0.00    +0.049 A 
ATOM     31  C   UNL     1       3.170  -0.363  -5.922  0.00  0.00    +0.124 A 
BRANCH  31  32
ATOM     32  O   UNL     1       2.984   0.976  -5.777  0.00  0.00    -0.495 OA
ATOM     33  C   UNL     1       3.481   1.816  -6.821  0.00  0.00    +0.277 C 
ENDBRANCH  31  32
BRANCH  28  34
ATOM     34  O   UNL     1       3.735  -4.429  -6.362  0.00  0.00    -0.495 OA
ATOM     35  C   UNL     1       4.409  -4.866  -7.544  0.00  0.00    +0.277 C 
ENDBRANCH  28  34
ENDBRANCH  11  26
TORSDOF 7
