REMARK  Name = ZINC35884908
REMARK  7 active torsions:
REMARK  status: ('A' for Active; 'I' for Inactive)
REMARK    1  A    between atoms: C_4  and  C_7
REMARK    2  A    between atoms: C_7  and  N_8
REMARK    3  A    between atoms: C_10  and  C_21
REMARK    4  A    between atoms: C_12  and  C_15
REMARK    5  A    between atoms: C_21  and  N_22
REMARK    6  A    between atoms: N_22  and  C_23
REMARK    7  A    between atoms: C_29  and  C_31
REMARK                            x       y       z     vdW  Elec       q    Type
REMARK                         _______ _______ _______ _____ _____    ______ ____
ROOT
ATOM      1  N   UNL     1       4.583  -4.835   1.975  0.00  0.00    +0.383 N 
ATOM      2  C   UNL     1       5.778  -3.969   1.802  0.00  0.00    -0.073 C 
ATOM      3  C   UNL     1       5.867  -3.215   3.153  0.00  0.00    -0.005 C 
ATOM      4  C   UNL     1       4.384  -2.960   3.505  0.00  0.00    +0.005 C 
ATOM      5  C   UNL     1       3.594  -4.015   2.708  0.00  0.00    -0.070 C 
ATOM      6  H   UNL     1       4.822  -5.655   2.512  0.00  0.00    -0.081 HD
ENDROOT
BRANCH   4   7
ATOM      7  C   UNL     1       4.159  -3.142   4.984  0.00  0.00    -0.046 A 
ATOM      8  C   UNL     1       4.431  -4.360   5.580  0.00  0.00    +0.004 A 
ATOM      9  C   UNL     1       4.225  -4.527   6.936  0.00  0.00    +0.000 A 
ATOM     10  C   UNL     1       3.747  -3.477   7.697  0.00  0.00    +0.000 A 
ATOM     11  C   UNL     1       3.475  -2.259   7.102  0.00  0.00    +0.000 A 
ATOM     12  C   UNL     1       3.685  -2.091   5.746  0.00  0.00    +0.004 A 
ENDBRANCH   4   7
BRANCH   1  13
ATOM     13  C   UNL     1       4.046  -5.224   0.665  0.00  0.00    -0.043 C 
BRANCH  13  17
ATOM     14  C   UNL     1       0.734  -7.867   1.209  0.00  0.00    +0.000 A 
ATOM     15  C   UNL     1       0.526  -6.502   1.148  0.00  0.00    +0.000 A 
ATOM     16  C   UNL     1       1.598  -5.647   0.972  0.00  0.00    +0.002 A 
ATOM     17  C   UNL     1       2.878  -6.157   0.857  0.00  0.00    -0.064 A 
ATOM     18  C   UNL     1       3.086  -7.522   0.919  0.00  0.00    +0.002 A 
ATOM     19  C   UNL     1       2.014  -8.377   1.094  0.00  0.00    +0.000 A 
ENDBRANCH  13  17
ENDBRANCH   1  13
BRANCH   3  20
ATOM     20  C   UNL     1       6.622  -1.894   2.986  0.00  0.00    +0.110 C 
BRANCH  20  21
ATOM     21  N   UNL     1       7.980  -2.165   2.507  0.00  0.00    -0.294 N 
ATOM     22  C   UNL     1       8.849  -2.837   3.288  0.00  0.00    +0.247 C 
ATOM     23  O   UNL     1       8.551  -3.107   4.435  0.00  0.00    -0.270 OA
BRANCH  21  24
ATOM     24  C   UNL     1       8.393  -1.706   1.178  0.00  0.00    +0.076 C 
ATOM     25  C   UNL     1       8.494  -0.180   1.175  0.00  0.00    +0.022 C 
ATOM     26  C   UNL     1       8.926   0.300  -0.212  0.00  0.00    +0.002 C 
ATOM     27  C   UNL     1       7.893  -0.145  -1.250  0.00  0.00    +0.000 C 
ATOM     28  C   UNL     1       7.792  -1.672  -1.246  0.00  0.00    +0.002 C 
ATOM     29  C   UNL     1       7.360  -2.151   0.141  0.00  0.00    +0.022 C 
ENDBRANCH  21  24
BRANCH  22  30
ATOM     30  C   UNL     1      10.164  -3.245   2.750  0.00  0.00    +0.037 A 
ATOM     31  C   UNL     1      10.264  -3.748   1.452  0.00  0.00    +0.013 A 
ATOM     32  C   UNL     1      11.494  -4.127   0.955  0.00  0.00    +0.001 A 
ATOM     33  C   UNL     1      12.627  -4.010   1.742  0.00  0.00    +0.000 A 
ATOM     34  C   UNL     1      12.534  -3.513   3.029  0.00  0.00    +0.001 A 
ATOM     35  C   UNL     1      11.311  -3.124   3.536  0.00  0.00    +0.013 A 
ENDBRANCH  22  30
ENDBRANCH  20  21
ENDBRANCH   3  20
TORSDOF 7
