REMARK  Name = ZINC38981363
REMARK  7 active torsions:
REMARK  status: ('A' for Active; 'I' for Inactive)
REMARK    1  A    between atoms: C_1  and  C_2
REMARK    2  A    between atoms: C_5  and  C_32
REMARK    3  A    between atoms: C_6  and  S_8
REMARK    4  A    between atoms: S_8  and  N_11
REMARK    5  A    between atoms: C_13  and  N_23
REMARK    6  A    between atoms: N_23  and  C_24
REMARK    7  A    between atoms: C_28  and  C_30
REMARK                            x       y       z     vdW  Elec       q    Type
REMARK                         _______ _______ _______ _____ _____    ______ ____
ROOT
ATOM      1  N   UNL     1      -1.241  -3.942   2.341  0.00  0.00    -0.110 NA
ATOM      2  C   UNL     1      -1.506  -4.473   3.498  0.00  0.00    +0.192 C 
ATOM      3  C   UNL     1      -2.835  -5.149   3.746  0.00  0.00    +0.237 C 
ATOM      4  N   UNL     1      -3.073  -5.731   5.076  0.00  0.00    -0.359 N 
ATOM      5  C   UNL     1      -2.131  -5.636   5.974  0.00  0.00    +0.063 A 
ATOM      6  C   UNL     1      -2.319  -6.201   7.318  0.00  0.00    +0.027 A 
ATOM      7  C   UNL     1      -1.320  -6.084   8.221  0.00  0.00    +0.002 A 
ATOM      8  C   UNL     1      -0.113  -5.439   7.907  0.00  0.00    +0.002 A 
ATOM      9  C   UNL     1       0.132  -4.896   6.695  0.00  0.00    +0.030 A 
ATOM     10  C   UNL     1      -0.846  -4.960   5.670  0.00  0.00    +0.089 A 
ATOM     11  N   UNL     1      -0.600  -4.434   4.488  0.00  0.00    -0.226 NA
ATOM     12  H   UNL     1      -3.911  -6.174   5.282  0.00  0.00    +0.162 HD
ENDROOT
BRANCH   1  13
ATOM     13  S   UNL     1       0.222  -3.211   2.080  0.00  0.00    +0.101 S 
ATOM     14  O   UNL     1       1.205  -4.235   2.143  0.00  0.00    -0.146 OA
ATOM     15  O   UNL     1       0.259  -2.067   2.922  0.00  0.00    -0.146 OA
BRANCH  13  21
ATOM     16  C   UNL     1       0.329   0.690  -1.397  0.00  0.00    +0.044 C 
ATOM     17  C   UNL     1       0.270  -0.791  -1.127  0.00  0.00    -0.049 A 
ATOM     18  C   UNL     1       0.213  -1.684  -2.181  0.00  0.00    +0.004 A 
ATOM     19  C   UNL     1       0.159  -3.043  -1.934  0.00  0.00    +0.005 A 
ATOM     20  C   UNL     1       0.162  -3.509  -0.632  0.00  0.00    -0.024 A 
ATOM     21  C   UNL     1       0.219  -2.617   0.421  0.00  0.00    +0.116 A 
ATOM     22  C   UNL     1       0.278  -1.258   0.174  0.00  0.00    +0.032 A 
ATOM     23  C   UNL     1       0.102  -4.991  -0.363  0.00  0.00    +0.046 C 
ENDBRANCH  13  21
ENDBRANCH   1  13
BRANCH   3  24
ATOM     24  N   UNL     1      -2.983  -6.220   2.758  0.00  0.00    -0.318 N 
ATOM     25  H   UNL     1      -2.234  -6.804   2.559  0.00  0.00    +0.148 HD
BRANCH  24  26
ATOM     26  C   UNL     1      -4.203  -6.402   2.101  0.00  0.00    +0.029 A 
ATOM     27  C   UNL     1      -4.304  -7.316   1.060  0.00  0.00    +0.024 A 
ATOM     28  C   UNL     1      -5.512  -7.493   0.413  0.00  0.00    +0.017 A 
ATOM     29  C   UNL     1      -6.620  -6.761   0.802  0.00  0.00    +0.021 A 
ATOM     30  C   UNL     1      -6.522  -5.850   1.839  0.00  0.00    -0.035 A 
ATOM     31  C   UNL     1      -5.319  -5.673   2.493  0.00  0.00    +0.027 A 
ATOM     32  C   UNL     1      -7.732  -5.055   2.258  0.00  0.00    +0.045 C 
ATOM     33 BR   UNL     1      -8.271  -7.007  -0.086  0.00  0.00    -0.050 Br
ENDBRANCH  24  26
ENDBRANCH   3  24
TORSDOF 4
