REMARK  Name = ZINC20559648
REMARK  8 active torsions:
REMARK  status: ('A' for Active; 'I' for Inactive)
REMARK    1  A    between atoms: C_1  and  C_2
REMARK    2  A    between atoms: C_2  and  C_3
REMARK    3  A    between atoms: C_6  and  C_9
REMARK    4  A    between atoms: C_9  and  C_11
REMARK    5  A    between atoms: C_9  and  N_22
REMARK    6  A    between atoms: C_27  and  C_30
REMARK    7  A    between atoms: C_30  and  C_31
REMARK    8  A    between atoms: N_33  and  C_34
REMARK                            x       y       z     vdW  Elec       q    Type
REMARK                         _______ _______ _______ _____ _____    ______ ____
ROOT
ATOM      1  C   UNL     1      -1.323   2.077   0.022  0.00  0.00    +0.143 C 
ENDROOT
BRANCH   1   2
ATOM      2  C   UNL     1      -0.019   1.323   0.016  0.00  0.00    +0.106 A 
ATOM      3  C   UNL     1      -0.009  -0.040   0.014  0.00  0.00    +0.263 A 
ATOM      4  N   UNL     1       1.190  -0.707   0.003  0.00  0.00    -0.275 N 
ATOM      5  H   UNL     1       1.208  -1.807   0.001  0.00  0.00    +0.173 HD
ATOM      6  C   UNL     1       2.350  -0.024  -0.006  0.00  0.00    +0.329 A 
ATOM      7  O   UNL     1       3.403  -0.631  -0.017  0.00  0.00    -0.247 OA
ATOM      8  N   UNL     1       2.361   1.322  -0.005  0.00  0.00    -0.275 N 
ATOM      9  H   UNL     1       3.318   1.864  -0.012  0.00  0.00    +0.173 HD
ATOM     10  C   UNL     1       1.205   2.015   0.006  0.00  0.00    +0.263 A 
ATOM     11  O   UNL     1       1.221   3.234   0.008  0.00  0.00    -0.267 OA
ATOM     12  O   UNL     1      -1.170  -0.729   0.022  0.00  0.00    -0.267 OA
ENDBRANCH   1   2
BRANCH   1  13
ATOM     13  N   UNL     1      -1.345   3.006   1.155  0.00  0.00    -0.314 N 
ATOM     14  C   UNL     1      -1.741   2.571   2.386  0.00  0.00    +0.148 C 
ATOM     15  N   UNL     1      -2.133   1.353   2.725  0.00  0.00    -0.158 NA
ATOM     16  C   UNL     1      -2.500   1.008   3.931  0.00  0.00    +0.252 C 
ATOM     17  O   UNL     1      -2.857  -0.118   4.217  0.00  0.00    -0.272 OA
ATOM     18  C   UNL     1      -2.441   2.143   4.947  0.00  0.00    +0.150 C 
ATOM     19  S   UNL     1      -1.835   3.491   3.856  0.00  0.00    -0.080 S 
ATOM     20  H   UNL     1      -1.042   4.054   1.014  0.00  0.00    +0.149 HD
BRANCH  18  21
ATOM     21  C   UNL     1      -1.440   1.842   6.064  0.00  0.00    +0.120 C 
BRANCH  21  22
ATOM     22  C   UNL     1      -1.506   2.929   7.104  0.00  0.00    +0.219 C 
ATOM     23  O   UNL     1      -2.278   3.855   6.967  0.00  0.00    -0.275 OA
ATOM     24  N   UNL     1      -0.707   2.874   8.188  0.00  0.00    -0.285 N 
ATOM     25  H   UNL     1      -0.061   1.998   8.352  0.00  0.00    +0.155 HD
BRANCH  24  26
ATOM     26  C   UNL     1      -0.697   3.932   9.106  0.00  0.00    +0.034 A 
ATOM     27  C   UNL     1       0.481   4.284   9.750  0.00  0.00    +0.026 A 
ATOM     28  C   UNL     1       0.490   5.331  10.650  0.00  0.00    +0.040 A 
ATOM     29  C   UNL     1      -0.679   6.023  10.920  0.00  0.00    +0.124 A 
ATOM     30  C   UNL     1      -1.857   5.670  10.283  0.00  0.00    +0.040 A 
ATOM     31  C   UNL     1      -1.869   4.627   9.378  0.00  0.00    +0.026 A 
ATOM     32  F   UNL     1      -0.670   7.043  11.805  0.00  0.00    -0.205 F 
ENDBRANCH  24  26
ENDBRANCH  21  22
ENDBRANCH  18  21
ENDBRANCH   1  13
BRANCH   1  36
ATOM     33  C   UNL     1      -1.719   4.270  -3.623  0.00  0.00    -0.048 A 
ATOM     34  C   UNL     1      -2.375   3.063  -3.467  0.00  0.00    +0.004 A 
ATOM     35  C   UNL     1      -2.248   2.354  -2.287  0.00  0.00    +0.006 A 
ATOM     36  C   UNL     1      -1.463   2.851  -1.264  0.00  0.00    -0.022 A 
ATOM     37  C   UNL     1      -0.810   4.060  -1.417  0.00  0.00    +0.006 A 
ATOM     38  C   UNL     1      -0.934   4.767  -2.599  0.00  0.00    +0.004 A 
BRANCH  33  40
ATOM     39  C   UNL     1      -3.050   5.997  -4.804  0.00  0.00    +0.009 C 
ATOM     40  C   UNL     1      -1.858   5.043  -4.909  0.00  0.00    +0.032 C 
ENDBRANCH  33  40
ENDBRANCH   1  36
TORSDOF 7
