REMARK  Name = ZINC44649537
REMARK  14 active torsions:
REMARK  status: ('A' for Active; 'I' for Inactive)
REMARK    1  A    between atoms: C_1  and  C_2
REMARK    2  A    between atoms: C_4  and  C_34
REMARK    3  A    between atoms: C_5  and  C_33
REMARK    4  A    between atoms: C_6  and  C_8
REMARK    5  A    between atoms: C_8  and  C_10
REMARK    6  A    between atoms: C_10  and  C_12
REMARK    7  A    between atoms: C_10  and  S_13
REMARK    8  A    between atoms: S_13  and  C_14
REMARK    9  A    between atoms: C_17  and  C_26
REMARK   10  A    between atoms: N_18  and  C_19
REMARK   11  A    between atoms: C_19  and  C_20
REMARK   12  A    between atoms: C_26  and  N_27
REMARK   13  A    between atoms: C_34  and  O_36
REMARK   14  A    between atoms: O_36  and  C_37
REMARK                            x       y       z     vdW  Elec       q    Type
REMARK                         _______ _______ _______ _____ _____    ______ ____
ROOT
ATOM      1  C   UNL     1       2.938  -1.741   6.177  0.00  0.00    +0.193 A 
ATOM      2  N   UNL     1       3.982  -1.398   5.459  0.00  0.00    -0.123 NA
ATOM      3  N   UNL     1       5.007  -1.253   6.221  0.00  0.00    -0.135 NA
ATOM      4  C   UNL     1       4.681  -1.493   7.459  0.00  0.00    +0.118 A 
ATOM      5  N   UNL     1       3.350  -1.807   7.477  0.00  0.00    -0.303 N 
ENDROOT
BRANCH   1   6
ATOM      6  S   UNL     1       1.310  -2.050   5.578  0.00  0.00    -0.075 S 
BRANCH   6   7
ATOM      7  C   UNL     1       1.445  -1.793   3.787  0.00  0.00    +0.124 C 
ATOM      8  C   UNL     1       2.374  -2.852   3.188  0.00  0.00    +0.028 C 
BRANCH   7   9
ATOM      9  C   UNL     1       0.081  -1.909   3.158  0.00  0.00    +0.194 C 
ATOM     10  O   UNL     1      -0.782  -2.557   3.702  0.00  0.00    -0.289 OA
BRANCH   9  15
ATOM     11  C   UNL     1      -0.019   1.526   0.010  0.00  0.00    +0.038 C 
ATOM     12  C   UNL     1       0.002  -0.004   0.002  0.00  0.00    +0.140 C 
ATOM     13  C   UNL     1      -1.410  -0.546   0.041  0.00  0.00    +0.065 C 
ATOM     14  C   UNL     1      -1.496  -1.272   1.173  0.00  0.00    -0.010 C 
ATOM     15  C   UNL     1      -0.203  -1.226   1.873  0.00  0.00    +0.106 C 
ATOM     16  N   UNL     1       0.656  -0.509   1.215  0.00  0.00    -0.272 NA
ATOM     17  C   UNL     1      -2.720  -2.011   1.647  0.00  0.00    +0.046 C 
BRANCH  13  18
ATOM     18  C   UNL     1      -2.470  -0.326  -0.952  0.00  0.00    +0.337 C 
ATOM     19  O   UNL     1      -3.566  -0.826  -0.792  0.00  0.00    -0.245 OA
BRANCH  18  20
ATOM     20  O   UNL     1      -2.227   0.432  -2.041  0.00  0.00    -0.465 OA
ATOM     21  C   UNL     1      -3.304   0.604  -2.965  0.00  0.00    +0.280 C 
ENDBRANCH  18  20
ENDBRANCH  13  18
ENDBRANCH   9  15
ENDBRANCH   7   9
ENDBRANCH   6   7
ENDBRANCH   1   6
BRANCH   5  22
ATOM     22  C   UNL     1       2.537  -2.147   8.647  0.00  0.00    +0.160 C 
BRANCH  22  23
ATOM     23  C   UNL     1       2.583  -3.635   8.876  0.00  0.00    -0.028 A 
ATOM     24  C   UNL     1       1.651  -4.457   8.271  0.00  0.00    +0.005 A 
ATOM     25  C   UNL     1       1.693  -5.823   8.481  0.00  0.00    +0.000 A 
ATOM     26  C   UNL     1       2.668  -6.367   9.296  0.00  0.00    +0.000 A 
ATOM     27  C   UNL     1       3.602  -5.545   9.900  0.00  0.00    +0.000 A 
ATOM     28  C   UNL     1       3.562  -4.180   9.687  0.00  0.00    +0.005 A 
ENDBRANCH  22  23
ENDBRANCH   5  22
BRANCH   4  29
ATOM     29  C   UNL     1       5.600  -1.431   8.652  0.00  0.00    -0.001 C 
BRANCH  29  30
ATOM     30  N   UNL     1       5.579  -0.074   9.216  0.00  0.00    +0.384 N 
ATOM     31  C   UNL     1       6.135   0.869   8.238  0.00  0.00    -0.078 C 
ATOM     32  C   UNL     1       6.041   2.294   8.787  0.00  0.00    -0.019 C 
ATOM     33  C   UNL     1       6.835   2.384  10.094  0.00  0.00    -0.004 C 
ATOM     34  C   UNL     1       6.295   1.345  11.081  0.00  0.00    -0.019 C 
ATOM     35  C   UNL     1       6.379  -0.045  10.446  0.00  0.00    -0.078 C 
ATOM     36  H   UNL     1       4.628   0.186   9.428  0.00  0.00    -0.081 HD
ENDBRANCH  29  30
ENDBRANCH   4  29
TORSDOF 10
