REMARK  Name = ZINC19911029
REMARK  8 active torsions:
REMARK  status: ('A' for Active; 'I' for Inactive)
REMARK    1  A    between atoms: C_1  and  N_2
REMARK    2  A    between atoms: N_2  and  C_3
REMARK    3  A    between atoms: N_2  and  C_4
REMARK    4  A    between atoms: C_7  and  C_10
REMARK    5  A    between atoms: C_21  and  C_23
REMARK    6  A    between atoms: C_26  and  N_29
REMARK    7  A    between atoms: N_29  and  C_30
REMARK    8  A    between atoms: N_29  and  C_31
REMARK                            x       y       z     vdW  Elec       q    Type
REMARK                         _______ _______ _______ _____ _____    ______ ____
ROOT
ATOM      1  C   UNL     1       1.147   6.452   0.596  0.00  0.00    +0.172 C 
ATOM      2  C   UNL     1       1.617   5.037   0.818  0.00  0.00    +0.025 C 
ATOM      3  C   UNL     1       0.858   3.978   0.526  0.00  0.00    +0.050 C 
ATOM      4  C   UNL     1       1.410   2.625   0.770  0.00  0.00    +0.039 A 
ATOM      5  C   UNL     1       0.591   1.504   0.820  0.00  0.00    +0.033 A 
ATOM      6  C   UNL     1       1.152   0.259   1.040  0.00  0.00    +0.042 A 
ATOM      7  C   UNL     1       2.519   0.131   1.220  0.00  0.00    +0.023 A 
ATOM      8  C   UNL     1       3.341   1.244   1.174  0.00  0.00    +0.048 A 
ATOM      9  C   UNL     1       2.793   2.493   0.950  0.00  0.00    +0.131 A 
ATOM     10  O   UNL     1       3.564   3.609   0.902  0.00  0.00    -0.479 OA
ATOM     11  C   UNL     1       2.993   4.816   1.403  0.00  0.00    +0.234 C 
ATOM     12 CL   UNL     1       0.138  -1.149   1.097  0.00  0.00    -0.084 Cl
ATOM     13  N   UNL     1      -0.430   4.108  -0.008  0.00  0.00    -0.283 N 
ATOM     14  C   UNL     1      -0.794   5.353  -0.496  0.00  0.00    +0.219 A 
ATOM     15  N   UNL     1      -0.057   6.460  -0.227  0.00  0.00    -0.221 N 
ATOM     16  N   UNL     1      -0.689   7.521  -0.876  0.00  0.00    -0.156 NA
ATOM     17  C   UNL     1      -1.740   7.024  -1.478  0.00  0.00    +0.247 A 
ATOM     18  N   UNL     1      -1.801   5.709  -1.244  0.00  0.00    -0.201 NA
ATOM     19  H   UNL     1      -1.107   3.241  -0.027  0.00  0.00    +0.155 HD
ENDROOT
BRANCH   1  23
ATOM     20  C   UNL     1       0.296   8.270   4.370  0.00  0.00    +0.029 A 
ATOM     21  C   UNL     1       1.262   8.818   3.535  0.00  0.00    +0.023 A 
ATOM     22  C   UNL     1       1.534   8.228   2.316  0.00  0.00    +0.008 A 
ATOM     23  C   UNL     1       0.847   7.093   1.926  0.00  0.00    -0.019 A 
ATOM     24  C   UNL     1      -0.119   6.548   2.752  0.00  0.00    +0.008 A 
ATOM     25  C   UNL     1      -0.393   7.130   3.975  0.00  0.00    +0.023 A 
BRANCH  20  27
ATOM     26  C   UNL     1       0.831   9.987   6.075  0.00  0.00    +0.129 C 
ATOM     27  N   UNL     1       0.018   8.864   5.603  0.00  0.00    -0.336 N 
ATOM     28  C   UNL     1      -1.087   8.364   6.424  0.00  0.00    +0.129 C 
ENDBRANCH  20  27
ENDBRANCH   1  23
BRANCH  11  29
ATOM     29  C   UNL     1       2.886   4.729   2.904  0.00  0.00    -0.003 A 
ATOM     30  C   UNL     1       2.341   3.603   3.493  0.00  0.00    +0.009 A 
ATOM     31  C   UNL     1       2.247   3.518   4.868  0.00  0.00    +0.023 A 
ATOM     32  C   UNL     1       2.690   4.570   5.660  0.00  0.00    +0.029 A 
ATOM     33  C   UNL     1       3.232   5.702   5.065  0.00  0.00    +0.023 A 
ATOM     34  C   UNL     1       3.328   5.779   3.689  0.00  0.00    +0.009 A 
BRANCH  32  35
ATOM     35  N   UNL     1       2.591   4.490   7.051  0.00  0.00    -0.336 N 
ATOM     36  C   UNL     1       3.058   5.600   7.884  0.00  0.00    +0.129 C 
ATOM     37  C   UNL     1       2.019   3.295   7.676  0.00  0.00    +0.129 C 
ENDBRANCH  32  35
ENDBRANCH  11  29
TORSDOF 4
