REMARK  Name = ZINC63479927
REMARK  6 active torsions:
REMARK  status: ('A' for Active; 'I' for Inactive)
REMARK    1  A    between atoms: C_1  and  C_2
REMARK    2  A    between atoms: C_13  and  C_16
REMARK    3  A    between atoms: C_16  and  C_17
REMARK    4  A    between atoms: N_28  and  C_31
REMARK    5  A    between atoms: C_35  and  O_37
REMARK    6  A    between atoms: O_37  and  C_38
REMARK                            x       y       z     vdW  Elec       q    Type
REMARK                         _______ _______ _______ _____ _____    ______ ____
ROOT
ATOM      1  C   UNL     1       0.288   1.927   0.626  0.00  0.00    +0.044 C 
ATOM      2  C   UNL     1       0.379   0.432   0.461  0.00  0.00    -0.050 A 
ATOM      3  C   UNL     1       0.575  -0.116  -0.794  0.00  0.00    +0.005 A 
ATOM      4  C   UNL     1       0.658  -1.483  -0.952  0.00  0.00    +0.024 A 
ATOM      5  C   UNL     1       0.548  -2.324   0.154  0.00  0.00    +0.039 A 
ATOM      6  C   UNL     1       0.353  -1.762   1.412  0.00  0.00    +0.004 A 
ATOM      7  C   UNL     1       0.274  -0.396   1.564  0.00  0.00    +0.011 A 
ATOM      8  C   UNL     1       0.281  -2.916   2.371  0.00  0.00    +0.136 C 
ATOM      9  C   UNL     1      -1.053  -2.941   3.126  0.00  0.00    +0.123 C 
ATOM     10  C   UNL     1      -0.737  -2.291   4.502  0.00  0.00    +0.107 C 
ATOM     11  C   UNL     1       0.762  -1.929   4.433  0.00  0.00    +0.072 C 
ATOM     12  N   UNL     1       1.330  -2.828   3.403  0.00  0.00    -0.295 NA
ATOM     13  C   UNL     1      -1.568  -1.028   4.489  0.00  0.00    +0.232 C 
ATOM     14  O   UNL     1      -1.621  -0.215   5.387  0.00  0.00    -0.274 OA
ATOM     15  N   UNL     1      -2.237  -0.948   3.333  0.00  0.00    -0.210 N 
ATOM     16  C   UNL     1      -2.025  -1.979   2.484  0.00  0.00    +0.233 C 
ATOM     17  O   UNL     1      -2.525  -2.115   1.388  0.00  0.00    -0.274 OA
ATOM     18  C   UNL     1       0.452  -4.144   1.518  0.00  0.00    +0.243 C 
ATOM     19  O   UNL     1       0.456  -5.295   1.899  0.00  0.00    -0.273 OA
ATOM     20  N   UNL     1       0.599  -3.716   0.249  0.00  0.00    -0.283 N 
ATOM     21  H   UNL     1       1.527  -3.736   3.797  0.00  0.00    +0.124 HD
ATOM     22  H   UNL     1       0.726  -4.307  -0.509  0.00  0.00    +0.155 HD
ENDROOT
BRANCH  15  23
ATOM     23  C   UNL     1      -3.095   0.118   3.026  0.00  0.00    +0.047 A 
ATOM     24  C   UNL     1      -2.584   1.399   2.870  0.00  0.00    +0.024 A 
ATOM     25  C   UNL     1      -3.430   2.449   2.568  0.00  0.00    +0.005 A 
ATOM     26  C   UNL     1      -4.786   2.227   2.420  0.00  0.00    +0.046 A 
ATOM     27  C   UNL     1      -5.302   0.948   2.576  0.00  0.00    +0.122 A 
ATOM     28  C   UNL     1      -4.455  -0.109   2.873  0.00  0.00    +0.069 A 
BRANCH  27  29
ATOM     29  O   UNL     1      -6.636   0.731   2.431  0.00  0.00    -0.495 OA
ATOM     30  C   UNL     1      -7.447   1.865   2.119  0.00  0.00    +0.277 C 
ENDBRANCH  27  29
ENDBRANCH  15  23
BRANCH  11  31
ATOM     31  C   UNL     1       1.428  -2.159   5.792  0.00  0.00    +0.052 C 
BRANCH  31  32
ATOM     32  C   UNL     1       2.858  -1.685   5.737  0.00  0.00    -0.040 C 
ATOM     33  C   UNL     1       3.329  -0.477   6.120  0.00  0.00    -0.001 A 
ATOM     34  C   UNL     1       2.677   0.713   6.681  0.00  0.00    +0.010 A 
ATOM     35  C   UNL     1       3.430   1.798   6.971  0.00  0.00    +0.001 A 
ATOM     36  C   UNL     1       4.814   1.816   6.749  0.00  0.00    +0.002 A 
ATOM     37  C   UNL     1       5.484   0.762   6.237  0.00  0.00    +0.026 A 
ATOM     38  C   UNL     1       4.792  -0.433   5.896  0.00  0.00    +0.043 A 
ATOM     39  N   UNL     1       5.208  -1.570   5.393  0.00  0.00    -0.380 N 
ATOM     40  C   UNL     1       4.056  -2.466   5.247  0.00  0.00    +0.144 C 
ATOM     41  H   UNL     1       6.125  -1.784   5.160  0.00  0.00    +0.160 HD
ENDBRANCH  31  32
ENDBRANCH  11  31
TORSDOF 4
