REMARK  Name = ZINC20231727
REMARK  7 active torsions:
REMARK  status: ('A' for Active; 'I' for Inactive)
REMARK    1  A    between atoms: C_4  and  C_7
REMARK    2  A    between atoms: C_7  and  C_8
REMARK    3  A    between atoms: C_7  and  N_14
REMARK    4  A    between atoms: N_17  and  C_20
REMARK    5  A    between atoms: C_20  and  N_21
REMARK    6  A    between atoms: N_29  and  N_30
REMARK    7  A    between atoms: N_30  and  C_31
REMARK                            x       y       z     vdW  Elec       q    Type
REMARK                         _______ _______ _______ _____ _____    ______ ____
ROOT
ATOM      1  C   UNL     1       4.197  -4.604  -4.098  0.00  0.00    +0.201 C 
ENDROOT
BRANCH   1   2
ATOM      2  N   UNL     1       5.531  -4.958  -4.588  0.00  0.00    -0.252 N 
ATOM      3  C   UNL     1       6.104  -4.440  -5.744  0.00  0.00    +0.047 A 
ATOM      4  C   UNL     1       5.632  -3.527  -6.681  0.00  0.00    +0.024 A 
ATOM      5  C   UNL     1       6.416  -3.175  -7.761  0.00  0.00    +0.002 A 
ATOM      6  C   UNL     1       7.677  -3.723  -7.925  0.00  0.00    +0.001 A 
ATOM      7  C   UNL     1       8.163  -4.630  -7.005  0.00  0.00    +0.012 A 
ATOM      8  C   UNL     1       7.380  -4.991  -5.914  0.00  0.00    +0.028 A 
ATOM      9  C   UNL     1       7.593  -5.912  -4.773  0.00  0.00    +0.153 C 
ATOM     10  N   UNL     1       8.654  -6.646  -4.525  0.00  0.00    -0.177 NA
ATOM     11  C   UNL     1       6.359  -5.821  -3.975  0.00  0.00    +0.272 C 
ATOM     12  O   UNL     1       6.128  -6.424  -2.942  0.00  0.00    -0.268 OA
BRANCH  10  13
ATOM     13  N   UNL     1       8.685  -7.403  -3.481  0.00  0.00    -0.237 N 
ATOM     14  H   UNL     1       7.925  -7.430  -2.879  0.00  0.00    +0.174 HD
BRANCH  13  15
ATOM     15  C   UNL     1       9.812  -8.182  -3.217  0.00  0.00    +0.048 A 
ATOM     16  C   UNL     1      10.905  -8.140  -4.075  0.00  0.00    +0.025 A 
ATOM     17  C   UNL     1      12.018  -8.913  -3.811  0.00  0.00    +0.002 A 
ATOM     18  C   UNL     1      12.047  -9.728  -2.694  0.00  0.00    +0.000 A 
ATOM     19  C   UNL     1      10.961  -9.773  -1.838  0.00  0.00    +0.002 A 
ATOM     20  C   UNL     1       9.847  -8.998  -2.092  0.00  0.00    +0.025 A 
ENDBRANCH  13  15
ENDBRANCH  10  13
ENDBRANCH   1   2
BRANCH   1  24
ATOM     21  N   UNL     1       3.611  -1.868  -0.933  0.00  0.00    -0.289 NA
ATOM     22  C   UNL     1       3.199  -1.458  -2.282  0.00  0.00    +0.101 C 
ATOM     23  C   UNL     1       3.030  -2.700  -3.160  0.00  0.00    +0.101 C 
ATOM     24  N   UNL     1       4.297  -3.443  -3.203  0.00  0.00    -0.284 NA
ATOM     25  C   UNL     1       4.709  -3.853  -1.853  0.00  0.00    +0.101 C 
ATOM     26  C   UNL     1       4.878  -2.611  -0.975  0.00  0.00    +0.101 C 
BRANCH  21  27
ATOM     27  C   UNL     1       3.711  -0.707  -0.038  0.00  0.00    +0.117 C 
BRANCH  27  31
ATOM     28  C   UNL     1      -0.017   1.378   0.010  0.00  0.00    +0.000 A 
ATOM     29  C   UNL     1       1.171   2.086   0.002  0.00  0.00    +0.000 A 
ATOM     30  C   UNL     1       2.377   1.411  -0.013  0.00  0.00    +0.005 A 
ATOM     31  C   UNL     1       2.396   0.029  -0.020  0.00  0.00    -0.026 A 
ATOM     32  C   UNL     1       1.208  -0.679  -0.012  0.00  0.00    +0.005 A 
ATOM     33  C   UNL     1       0.002  -0.004   0.002  0.00  0.00    +0.000 A 
ENDBRANCH  27  31
BRANCH  27  34
ATOM     34  C   UNL     1       4.044  -1.175   1.356  0.00  0.00    -0.026 A 
ATOM     35  C   UNL     1       3.455  -2.320   1.860  0.00  0.00    +0.005 A 
ATOM     36  C   UNL     1       3.760  -2.748   3.138  0.00  0.00    +0.000 A 
ATOM     37  C   UNL     1       4.654  -2.033   3.912  0.00  0.00    +0.000 A 
ATOM     38  C   UNL     1       5.243  -0.888   3.408  0.00  0.00    +0.000 A 
ATOM     39  C   UNL     1       4.941  -0.462   2.128  0.00  0.00    +0.005 A 
ENDBRANCH  27  34
ENDBRANCH  21  27
ENDBRANCH   1  24
TORSDOF 7
