REMARK  Name = ZINC09399774
REMARK  8 active torsions:
REMARK  status: ('A' for Active; 'I' for Inactive)
REMARK    1  A    between atoms: C_1  and  S_2
REMARK    2  A    between atoms: S_2  and  C_3
REMARK    3  A    between atoms: N_11  and  C_12
REMARK    4  A    between atoms: C_12  and  C_14
REMARK    5  A    between atoms: N_19  and  S_20
REMARK    6  A    between atoms: S_20  and  C_23
REMARK    7  A    between atoms: N_29  and  C_30
REMARK    8  A    between atoms: C_30  and  C_31
REMARK                            x       y       z     vdW  Elec       q    Type
REMARK                         _______ _______ _______ _____ _____    ______ ____
ROOT
ATOM      1  C   UNL     1      -1.339  -0.617  -1.938  0.00  0.00    +0.257 C 
ATOM      2  O   UNL     1      -0.680   0.213  -2.535  0.00  0.00    -0.272 OA
ENDROOT
BRANCH   1  11
ATOM      3  C   UNL     1      -3.433  -0.322  -8.651  0.00  0.00    +0.009 A 
ATOM      4  C   UNL     1      -4.341  -1.310  -8.282  0.00  0.00    +0.017 A 
ATOM      5  C   UNL     1      -4.385  -1.789  -6.996  0.00  0.00    +0.028 A 
ATOM      6  C   UNL     1      -3.513  -1.295  -6.013  0.00  0.00    +0.058 A 
ATOM      7  C   UNL     1      -2.609  -0.299  -6.410  0.00  0.00    +0.040 A 
ATOM      8  C   UNL     1      -2.560   0.184  -7.695  0.00  0.00    +0.032 A 
ATOM      9  S   UNL     1      -1.708   0.050  -4.921  0.00  0.00    -0.052 S 
ATOM     10  C   UNL     1      -2.510  -1.071  -3.869  0.00  0.00    +0.167 A 
ATOM     11  N   UNL     1      -2.284  -1.298  -2.577  0.00  0.00    -0.155 NA
ATOM     12  N   UNL     1      -3.421  -1.668  -4.682  0.00  0.00    -0.317 N 
BRANCH   3  14
ATOM     13  C   UNL     1      -4.689  -0.667 -11.150  0.00  0.00    +0.090 C 
ATOM     14  S   UNL     1      -3.392   0.280 -10.307  0.00  0.00    -0.129 S 
ENDBRANCH   3  14
BRANCH  12  15
ATOM     15  C   UNL     1      -4.309  -2.704  -4.149  0.00  0.00    +0.151 C 
BRANCH  15  16
ATOM     16  C   UNL     1      -3.614  -3.434  -3.029  0.00  0.00    -0.013 C 
ATOM     17  C   UNL     1      -4.181  -3.519  -1.851  0.00  0.00    +0.005 C 
ENDBRANCH  15  16
ENDBRANCH  12  15
ENDBRANCH   1  11
BRANCH   1  18
ATOM     18  C   UNL     1      -1.083  -0.873  -0.476  0.00  0.00    +0.168 C 
ATOM     19  C   UNL     1      -0.627  -2.333  -0.267  0.00  0.00    +0.031 C 
ATOM     20  C   UNL     1       0.455  -2.204   0.837  0.00  0.00    +0.019 C 
ATOM     21  C   UNL     1       1.116  -0.851   0.466  0.00  0.00    +0.110 C 
ATOM     22  N   UNL     1       0.002  -0.004   0.002  0.00  0.00    -0.164 NA
BRANCH  22  23
ATOM     23  S   UNL     1      -0.020   1.652   0.011  0.00  0.00    +0.068 S 
ATOM     24  O   UNL     1       1.336   2.076   0.001  0.00  0.00    -0.152 OA
ATOM     25  O   UNL     1      -0.952   2.051  -0.985  0.00  0.00    -0.152 OA
BRANCH  23  26
ATOM     26  C   UNL     1      -0.694   2.155   1.560  0.00  0.00    +0.144 A 
ATOM     27  C   UNL     1      -0.053   2.410   2.726  0.00  0.00    +0.038 A 
ATOM     28  C   UNL     1      -0.793   2.797   3.828  0.00  0.00    +0.030 A 
ATOM     29  C   UNL     1      -2.140   2.910   3.708  0.00  0.00    +0.080 A 
ATOM     30  S   UNL     1      -2.396   2.470   1.996  0.00  0.00    -0.057 S 
ATOM     31 CL   UNL     1      -3.310   3.371   4.905  0.00  0.00    -0.076 Cl
ENDBRANCH  23  26
ENDBRANCH  22  23
ENDBRANCH   1  18
TORSDOF 7
