REMARK  Name = ZINC14461559
REMARK  8 active torsions:
REMARK  status: ('A' for Active; 'I' for Inactive)
REMARK    1  A    between atoms: C_1  and  C_2
REMARK    2  A    between atoms: C_2  and  N_3
REMARK    3  A    between atoms: N_3  and  C_4
REMARK    4  A    between atoms: N_3  and  C_6
REMARK    5  A    between atoms: C_4  and  C_5
REMARK    6  A    between atoms: C_9  and  C_12
REMARK    7  A    between atoms: C_23  and  S_28
REMARK    8  A    between atoms: S_28  and  N_31
REMARK                            x       y       z     vdW  Elec       q    Type
REMARK                         _______ _______ _______ _____ _____    ______ ____
ROOT
ATOM      1  C   UNL     1      -2.513   0.976   0.019  0.00  0.00    +0.105 C 
ATOM      2  C   UNL     1      -3.083   0.933   1.440  0.00  0.00    +0.029 C 
ATOM      3  C   UNL     1      -2.215  -0.069   2.256  0.00  0.00    +0.033 C 
ATOM      4  C   UNL     1      -2.797  -1.420   1.887  0.00  0.00    -0.030 C 
ATOM      5  C   UNL     1      -4.022  -1.285   1.441  0.00  0.00    -0.023 C 
ATOM      6  C   UNL     1      -4.423   0.171   1.445  0.00  0.00    +0.049 C 
ATOM      7  C   UNL     1      -5.288   0.503   0.271  0.00  0.00    -0.018 A 
ATOM      8  C   UNL     1      -6.613   0.090   0.281  0.00  0.00    +0.034 A 
ATOM      9  C   UNL     1      -7.446   0.379  -0.780  0.00  0.00    +0.106 A 
ATOM     10  C   UNL     1      -6.970   1.087  -1.869  0.00  0.00    +0.030 A 
ATOM     11  C   UNL     1      -5.654   1.503  -1.891  0.00  0.00    +0.025 A 
ATOM     12  C   UNL     1      -4.814   1.211  -0.823  0.00  0.00    +0.031 A 
ATOM     13  N   UNL     1      -3.482   1.638  -0.861  0.00  0.00    -0.336 N 
ATOM     14  H   UNL     1      -3.206   2.353  -1.455  0.00  0.00    +0.147 HD
ENDROOT
BRANCH   1  18
ATOM     15  C   UNL     1       1.155   3.171   0.008  0.00  0.00    +0.030 A 
ATOM     16  C   UNL     1       1.174   1.782   0.000  0.00  0.00    +0.023 A 
ATOM     17  C   UNL     1      -0.013   1.076   0.008  0.00  0.00    +0.007 A 
ATOM     18  C   UNL     1      -1.220   1.750   0.017  0.00  0.00    -0.027 A 
ATOM     19  C   UNL     1      -1.243   3.133   0.031  0.00  0.00    +0.007 A 
ATOM     20  C   UNL     1      -0.060   3.845   0.023  0.00  0.00    +0.023 A 
BRANCH  15  21
ATOM     21  N   UNL     1       2.353   3.888   0.000  0.00  0.00    -0.330 N 
BRANCH  21  23
ATOM     22  C   UNL     1       2.337   5.855   1.453  0.00  0.00    +0.024 C 
ATOM     23  C   UNL     1       2.330   5.353   0.008  0.00  0.00    +0.102 C 
ENDBRANCH  21  23
BRANCH  21  24
ATOM     24  C   UNL     1       3.633   3.175  -0.017  0.00  0.00    +0.102 C 
ATOM     25  C   UNL     1       4.064   2.935  -1.465  0.00  0.00    +0.024 C 
ENDBRANCH  21  24
ENDBRANCH  15  21
ENDBRANCH   1  18
BRANCH   9  26
ATOM     26  S   UNL     1      -9.125  -0.156  -0.748  0.00  0.00    +0.061 S 
ATOM     27  O   UNL     1      -9.471  -0.325   0.620  0.00  0.00    -0.153 OA
ATOM     28  O   UNL     1      -9.844   0.711  -1.614  0.00  0.00    -0.153 OA
BRANCH  26  29
ATOM     29  N   UNL     1      -9.173  -1.661  -1.438  0.00  0.00    -0.177 NA
ATOM     30  C   UNL     1      -9.390  -1.815  -2.883  0.00  0.00    +0.109 C 
ATOM     31  C   UNL     1      -8.258  -2.680  -3.457  0.00  0.00    +0.017 C 
ATOM     32  C   UNL     1      -8.191  -4.001  -2.687  0.00  0.00    +0.003 C 
ATOM     33  C   UNL     1      -7.883  -3.720  -1.214  0.00  0.00    +0.017 C 
ATOM     34  C   UNL     1      -9.006  -2.867  -0.616  0.00  0.00    +0.109 C 
ENDBRANCH  26  29
ENDBRANCH   9  26
TORSDOF 6
