REMARK  Name = ZINC33315128
REMARK  7 active torsions:
REMARK  status: ('A' for Active; 'I' for Inactive)
REMARK    1  A    between atoms: C_1  and  C_2
REMARK    2  A    between atoms: C_2  and  C_28
REMARK    3  A    between atoms: C_8  and  O_26
REMARK    4  A    between atoms: C_11  and  N_21
REMARK    5  A    between atoms: N_15  and  C_16
REMARK    6  A    between atoms: O_26  and  C_27
REMARK    7  A    between atoms: N_30  and  C_31
REMARK                            x       y       z     vdW  Elec       q    Type
REMARK                         _______ _______ _______ _____ _____    ______ ____
ROOT
ATOM      1  C   UNL     1       1.408   3.462  -0.523  0.00  0.00    +0.043 C 
ATOM      2  C   UNL     1       1.411   1.984  -0.126  0.00  0.00    +0.129 C 
ATOM      3  C   UNL     1      -0.021   1.556   0.192  0.00  0.00    +0.157 C 
ATOM      4  N   UNL     1      -0.075   0.092   0.301  0.00  0.00    -0.332 N 
ATOM      5  C   UNL     1      -0.897  -0.690   1.047  0.00  0.00    +0.052 A 
ATOM      6  C   UNL     1      -1.920  -0.375   1.943  0.00  0.00    +0.030 A 
ATOM      7  C   UNL     1      -2.579  -1.429   2.547  0.00  0.00    +0.047 A 
ATOM      8  C   UNL     1      -2.253  -2.756   2.289  0.00  0.00    +0.121 A 
ATOM      9  C   UNL     1      -1.240  -3.099   1.407  0.00  0.00    +0.057 A 
ATOM     10  C   UNL     1      -0.561  -2.045   0.786  0.00  0.00    +0.028 A 
ATOM     11  C   UNL     1       0.533  -2.029  -0.173  0.00  0.00    +0.084 A 
ATOM     12  C   UNL     1       0.799  -0.722  -0.432  0.00  0.00    +0.130 A 
ATOM     13  C   UNL     1       1.817  -0.131  -1.310  0.00  0.00    +0.266 C 
ATOM     14  O   UNL     1       2.464  -0.809  -2.087  0.00  0.00    -0.268 OA
ATOM     15  N   UNL     1       2.000   1.206  -1.210  0.00  0.00    -0.278 N 
ENDROOT
BRANCH  15  16
ATOM     16  C   UNL     1       2.813   1.891  -2.218  0.00  0.00    +0.078 C 
ATOM     17  C   UNL     1       2.261   1.599  -3.629  0.00  0.00    +0.022 C 
ATOM     18  C   UNL     1       3.526   1.479  -4.514  0.00  0.00    +0.002 C 
ATOM     19  C   UNL     1       4.527   0.751  -3.583  0.00  0.00    +0.002 C 
ATOM     20  C   UNL     1       4.254   1.352  -2.189  0.00  0.00    +0.022 C 
ENDBRANCH  15  16
BRANCH  11  21
ATOM     21  N   UNL     1       1.181  -3.137  -0.720  0.00  0.00    -0.321 N 
ATOM     22  C   UNL     1       1.160  -3.503  -2.037  0.00  0.00    +0.091 A 
ATOM     23  C   UNL     1       1.902  -4.621  -2.174  0.00  0.00    +0.019 A 
ATOM     24  C   UNL     1       2.393  -4.964  -0.898  0.00  0.00    +0.019 A 
ATOM     25  C   UNL     1       1.937  -4.040  -0.027  0.00  0.00    +0.091 A 
ENDBRANCH  11  21
BRANCH   2  26
ATOM     26  C   UNL     1       2.256   1.816   1.110  0.00  0.00    +0.238 C 
ATOM     27  O   UNL     1       2.440   2.759   1.851  0.00  0.00    -0.273 OA
ATOM     28  N   UNL     1       2.807   0.619   1.392  0.00  0.00    -0.311 N 
ATOM     29  H   UNL     1       2.639  -0.235   0.720  0.00  0.00    +0.149 HD
BRANCH  28  30
ATOM     30  C   UNL     1       3.628   0.456   2.594  0.00  0.00    +0.073 C 
ATOM     31  C   UNL     1       5.066   0.881   2.291  0.00  0.00    +0.022 C 
ATOM     32  C   UNL     1       5.924   0.711   3.546  0.00  0.00    +0.002 C 
ATOM     33  C   UNL     1       5.907  -0.756   3.980  0.00  0.00    +0.000 C 
ATOM     34  C   UNL     1       4.469  -1.182   4.284  0.00  0.00    +0.002 C 
ATOM     35  C   UNL     1       3.611  -1.011   3.028  0.00  0.00    +0.022 C 
ENDBRANCH  28  30
ENDBRANCH   2  26
BRANCH   8  36
ATOM     36  O   UNL     1      -2.945  -3.742   2.919  0.00  0.00    -0.495 OA
ATOM     37  C   UNL     1      -3.979  -3.337   3.819  0.00  0.00    +0.277 C 
ENDBRANCH   8  36
TORSDOF 5
