REMARK  Name = ZINC09970380
REMARK  12 active torsions:
REMARK  status: ('A' for Active; 'I' for Inactive)
REMARK    1  A    between atoms: C_1  and  C_2
REMARK    2  A    between atoms: C_2  and  C_21
REMARK    3  A    between atoms: C_4  and  C_20
REMARK    4  A    between atoms: C_5  and  C_18
REMARK    5  A    between atoms: C_5  and  O_19
REMARK    6  A    between atoms: C_6  and  C_16
REMARK    7  A    between atoms: C_6  and  O_17
REMARK    8  A    between atoms: C_7  and  C_14
REMARK    9  A    between atoms: C_7  and  O_15
REMARK   10  A    between atoms: C_8  and  C_12
REMARK   11  A    between atoms: C_8  and  O_13
REMARK   12  A    between atoms: C_9  and  C_11
REMARK                            x       y       z     vdW  Elec       q    Type
REMARK                         _______ _______ _______ _____ _____    ______ ____
ROOT
ATOM      1  C   UNL     1       2.635  -0.986  -0.894  0.00  0.00    +0.074 C 
ATOM      2  C   UNL     1       1.745   0.178  -1.343  0.00  0.00    +0.166 C 
ATOM      3  O   UNL     1       0.437   0.059  -0.736  0.00  0.00    -0.337 OA
ATOM      4  C   UNL     1       0.126   1.383  -0.268  0.00  0.00    +0.132 C 
ATOM      5  C   UNL     1      -0.873   1.488   0.853  0.00  0.00    +0.126 C 
ATOM      6  C   UNL     1      -0.851   2.849   1.535  0.00  0.00    +0.125 C 
ATOM      7  C   UNL     1       0.409   3.675   1.500  0.00  0.00    +0.125 C 
ATOM      8  C   UNL     1       1.499   3.333   0.489  0.00  0.00    +0.126 C 
ATOM      9  C   UNL     1       1.516   1.856   0.186  0.00  0.00    +0.132 C 
ATOM     10  O   UNL     1       2.314   1.445  -0.940  0.00  0.00    -0.337 OA
ATOM     11  C   UNL     1       2.017   1.107   1.432  0.00  0.00    +0.048 C 
ATOM     12  C   UNL     1       2.866   3.701   1.119  0.00  0.00    +0.047 C 
ATOM     13  C   UNL     1      -0.004   5.146   1.254  0.00  0.00    +0.047 C 
ATOM     14  C   UNL     1      -2.011   3.702   0.984  0.00  0.00    +0.047 C 
ATOM     15  C   UNL     1      -2.283   1.277   0.249  0.00  0.00    +0.047 C 
ATOM     16  C   UNL     1      -0.394   2.175  -1.476  0.00  0.00    +0.048 C 
ATOM     17  C   UNL     1       1.628   0.119  -2.872  0.00  0.00    +0.074 C 
ENDROOT
BRANCH   8  18
ATOM     18  O   UNL     1       1.360   4.124  -0.694  0.00  0.00    -0.383 OA
ATOM     19  H   UNL     1       1.346   5.077  -0.530  0.00  0.00    +0.210 HD
ENDBRANCH   8  18
BRANCH   7  20
ATOM     20  O   UNL     1       0.997   3.644   2.817  0.00  0.00    -0.383 OA
ATOM     21  H   UNL     1       0.377   3.850   3.530  0.00  0.00    +0.210 HD
ENDBRANCH   7  20
BRANCH   6  22
ATOM     22  O   UNL     1      -1.164   2.623   2.933  0.00  0.00    -0.383 OA
ATOM     23  H   UNL     1      -1.312   3.434   3.438  0.00  0.00    +0.210 HD
ENDBRANCH   6  22
BRANCH   5  24
ATOM     24  O   UNL     1      -0.680   0.445   1.818  0.00  0.00    -0.383 OA
ATOM     25  H   UNL     1      -1.302   0.473   2.558  0.00  0.00    +0.210 HD
ENDBRANCH   5  24
TORSDOF 4
