REMARK  Name = ZINC08878369
REMARK  10 active torsions:
REMARK  status: ('A' for Active; 'I' for Inactive)
REMARK    1  A    between atoms: C_1  and  C_2
REMARK    2  A    between atoms: C_2  and  C_3
REMARK    3  A    between atoms: C_3  and  C_5
REMARK    4  A    between atoms: C_3  and  C_6
REMARK    5  A    between atoms: C_11  and  N_12
REMARK    6  A    between atoms: C_14  and  C_19
REMARK    7  A    between atoms: N_21  and  C_22
REMARK    8  A    between atoms: C_22  and  C_23
REMARK    9  A    between atoms: C_26  and  S_29
REMARK   10  A    between atoms: S_29  and  N_32
REMARK                            x       y       z     vdW  Elec       q    Type
REMARK                         _______ _______ _______ _____ _____    ______ ____
ROOT
ATOM      1  C   UNL     1       0.585  -0.664  -1.018  0.00  0.00    +0.218 C 
ATOM      2  O   UNL     1       1.093  -0.046  -1.929  0.00  0.00    -0.275 OA
ATOM      3  N   UNL     1       0.002  -0.004   0.002  0.00  0.00    -0.311 N 
ATOM      4  H   UNL     1      -0.404  -0.499   0.731  0.00  0.00    +0.149 HD
ENDROOT
BRANCH   1   7
ATOM      5  N   UNL     1       0.263  -2.919  -3.279  0.00  0.00    -0.270 N 
ATOM      6  C   UNL     1       1.322  -2.708  -2.285  0.00  0.00    +0.127 C 
ATOM      7  C   UNL     1       0.606  -2.171  -1.026  0.00  0.00    +0.101 C 
ATOM      8  C   UNL     1      -0.820  -2.743  -1.207  0.00  0.00    +0.110 C 
ATOM      9  C   UNL     1      -0.950  -2.949  -2.700  0.00  0.00    +0.221 C 
ATOM     10  O   UNL     1      -1.997  -3.116  -3.290  0.00  0.00    -0.275 OA
BRANCH   5  16
ATOM     11  C   UNL     1       0.499  -1.957  -5.481  0.00  0.00    -0.023 A 
ATOM     12  C   UNL     1       0.720  -2.110  -6.836  0.00  0.00    +0.006 A 
ATOM     13  C   UNL     1       0.929  -3.370  -7.367  0.00  0.00    +0.000 A 
ATOM     14  C   UNL     1       0.917  -4.481  -6.543  0.00  0.00    +0.002 A 
ATOM     15  C   UNL     1       0.703  -4.334  -5.186  0.00  0.00    +0.024 A 
ATOM     16  C   UNL     1       0.487  -3.070  -4.652  0.00  0.00    +0.040 A 
BRANCH  11  17
ATOM     17  C   UNL     1       0.271  -0.584  -4.905  0.00  0.00    +0.017 C 
ATOM     18  C   UNL     1      -0.965   0.043  -5.554  0.00  0.00    +0.012 C 
BRANCH  17  20
ATOM     19  C   UNL     1       1.315   1.648  -4.489  0.00  0.00    +0.004 C 
ATOM     20  C   UNL     1       1.493   0.295  -5.180  0.00  0.00    +0.004 C 
ENDBRANCH  17  20
ENDBRANCH  11  17
ENDBRANCH   5  16
ENDBRANCH   1   7
BRANCH   3  21
ATOM     21  C   UNL     1      -0.018   1.461   0.010  0.00  0.00    +0.139 C 
BRANCH  21  22
ATOM     22  C   UNL     1      -0.723   1.947   1.250  0.00  0.00    -0.030 A 
ATOM     23  C   UNL     1      -2.088   2.164   1.228  0.00  0.00    +0.007 A 
ATOM     24  C   UNL     1      -2.736   2.606   2.367  0.00  0.00    +0.029 A 
ATOM     25  C   UNL     1      -2.017   2.839   3.525  0.00  0.00    +0.105 A 
ATOM     26  C   UNL     1      -0.651   2.626   3.545  0.00  0.00    +0.029 A 
ATOM     27  C   UNL     1      -0.004   2.181   2.407  0.00  0.00    +0.007 A 
BRANCH  25  28
ATOM     28  S   UNL     1      -2.842   3.406   4.974  0.00  0.00    +0.056 S 
ATOM     29  O   UNL     1      -4.200   3.005   4.853  0.00  0.00    -0.153 OA
ATOM     30  O   UNL     1      -2.031   3.026   6.078  0.00  0.00    -0.153 OA
BRANCH  28  31
ATOM     31  N   UNL     1      -2.832   5.061   4.928  0.00  0.00    -0.204 NA
ATOM     32  H   UNL     1      -3.552   5.562   5.341  0.00  0.00    +0.144 HD
ATOM     33  H   UNL     1      -2.105   5.529   4.488  0.00  0.00    +0.144 HD
ENDBRANCH  28  31
ENDBRANCH  25  28
ENDBRANCH  21  22
ENDBRANCH   3  21
TORSDOF 8
