REMARK  Name = ZINC41586574
REMARK  9 active torsions:
REMARK  status: ('A' for Active; 'I' for Inactive)
REMARK    1  A    between atoms: C_1  and  C_2
REMARK    2  A    between atoms: C_2  and  O_3
REMARK    3  A    between atoms: O_3  and  C_4
REMARK    4  A    between atoms: C_4  and  C_6
REMARK    5  A    between atoms: N_11  and  C_13
REMARK    6  A    between atoms: C_13  and  C_14
REMARK    7  A    between atoms: C_15  and  O_33
REMARK    8  A    between atoms: C_23  and  C_26
REMARK    9  A    between atoms: C_24  and  C_25
REMARK                            x       y       z     vdW  Elec       q    Type
REMARK                         _______ _______ _______ _____ _____    ______ ____
ROOT
ATOM      1  C   UNL     1       2.620  -6.455  -4.920  0.00  0.00    +0.020 A 
ATOM      2  C   UNL     1       1.804  -6.653  -6.024  0.00  0.00    +0.122 A 
ATOM      3  C   UNL     1       2.331  -7.163  -7.208  0.00  0.00    +0.046 A 
ATOM      4  C   UNL     1       3.654  -7.487  -7.296  0.00  0.00    +0.015 A 
ATOM      5  C   UNL     1       4.489  -7.317  -6.183  0.00  0.00    +0.022 A 
ATOM      6  C   UNL     1       3.967  -6.767  -4.996  0.00  0.00    +0.144 A 
ATOM      7  O   UNL     1       4.786  -6.532  -3.942  0.00  0.00    -0.421 OA
ATOM      8  C   UNL     1       5.891  -7.308  -3.845  0.00  0.00    +0.345 A 
ATOM      9  O   UNL     1       6.290  -7.702  -2.764  0.00  0.00    -0.244 OA
ATOM     10  C   UNL     1       6.594  -7.660  -5.089  0.00  0.00    +0.070 A 
ATOM     11  C   UNL     1       5.860  -7.680  -6.248  0.00  0.00    -0.025 A 
ATOM     12  C   UNL     1       6.497  -8.062  -7.559  0.00  0.00    +0.045 C 
ENDROOT
BRANCH  10  13
ATOM     13  C   UNL     1       8.038  -7.990  -5.089  0.00  0.00    -0.011 A 
ATOM     14  C   UNL     1       8.463  -9.272  -5.437  0.00  0.00    +0.010 A 
ATOM     15  C   UNL     1       9.809  -9.575  -5.434  0.00  0.00    +0.020 A 
ATOM     16  C   UNL     1      10.738  -8.608  -5.087  0.00  0.00    +0.041 A 
ATOM     17  C   UNL     1      10.322  -7.334  -4.741  0.00  0.00    +0.020 A 
ATOM     18  C   UNL     1       8.978  -7.019  -4.745  0.00  0.00    +0.010 A 
ATOM     19 CL   UNL     1      12.430  -8.996  -5.086  0.00  0.00    -0.084 Cl
ENDBRANCH  10  13
BRANCH   2  20
ATOM     20  O   UNL     1       0.484  -6.349  -5.949  0.00  0.00    -0.506 OA
ATOM     21  H   UNL     1       0.275  -5.439  -6.203  0.00  0.00    +0.292 HD
ENDBRANCH   2  20
BRANCH   1  22
ATOM     22  C   UNL     1       2.043  -5.897  -3.645  0.00  0.00    -0.036 C 
BRANCH  22  27
ATOM     23  C   UNL     1       1.468  -2.353  -2.550  0.00  0.00    +0.081 C 
ATOM     24  C   UNL     1       2.919  -1.864  -2.583  0.00  0.00    +0.011 C 
ATOM     25  C   UNL     1       3.635  -2.500  -3.778  0.00  0.00    -0.018 C 
ATOM     26  C   UNL     1       3.539  -4.024  -3.670  0.00  0.00    -0.078 C 
ATOM     27  N   UNL     1       2.129  -4.430  -3.670  0.00  0.00    +0.383 N 
ATOM     28  C   UNL     1       1.452  -3.882  -2.488  0.00  0.00    -0.064 C 
ATOM     29  H   UNL     1       1.680  -4.083  -4.504  0.00  0.00    -0.081 HD
BRANCH  23  30
ATOM     30  C   UNL     1       0.775  -1.794  -1.334  0.00  0.00    +0.308 C 
ATOM     31  O   UNL     1       0.314  -2.540  -0.504  0.00  0.00    -0.251 OA
BRANCH  30  32
ATOM     32  O   UNL     1       0.671  -0.465  -1.174  0.00  0.00    -0.465 OA
BRANCH  32  34
ATOM     33  C   UNL     1      -0.019   1.526   0.010  0.00  0.00    +0.048 C 
ATOM     34  C   UNL     1       0.002  -0.004   0.002  0.00  0.00    +0.229 C 
ENDBRANCH  32  34
ENDBRANCH  30  32
ENDBRANCH  23  30
ENDBRANCH  22  27
ENDBRANCH   1  22
TORSDOF 7
