REMARK  Name = ZINC12009965
REMARK  3 active torsions:
REMARK  status: ('A' for Active; 'I' for Inactive)
REMARK    1  A    between atoms: C_7  and  C_15
REMARK    2  A    between atoms: N_17  and  C_18
REMARK    3  A    between atoms: C_20  and  C_34
REMARK                            x       y       z     vdW  Elec       q    Type
REMARK                         _______ _______ _______ _____ _____    ______ ____
ROOT
ATOM      1  C   UNL     1       1.181   2.057   0.002  0.00  0.00    +0.132 A 
ATOM      2  C   UNL     1       2.429   1.525  -0.007  0.00  0.00    +0.077 A 
ATOM      3  C   UNL     1       3.353   2.592  -0.015  0.00  0.00    +0.130 A 
ATOM      4  N   UNL     1       2.676   3.722  -0.003  0.00  0.00    -0.159 NA
ATOM      5  N   UNL     1       1.309   3.417   0.008  0.00  0.00    -0.184 N 
ATOM      6  C   UNL     1       0.273   4.330   0.022  0.00  0.00    +0.234 A 
ATOM      7  N   UNL     1       0.555   5.660   0.032  0.00  0.00    -0.291 N 
ATOM      8  H   UNL     1       1.477   5.962   0.029  0.00  0.00    +0.172 HD
ATOM      9  C   UNL     1      -0.453   6.556   0.041  0.00  0.00    +0.256 A 
ATOM     10  O   UNL     1      -0.220   7.754   0.045  0.00  0.00    -0.267 OA
ATOM     11  C   UNL     1      -1.780   6.085   0.050  0.00  0.00    +0.038 A 
ATOM     12  C   UNL     1      -2.004   4.740   0.045  0.00  0.00    +0.053 A 
ATOM     13  N   UNL     1      -0.968   3.897   0.030  0.00  0.00    -0.217 NA
ATOM     14  C   UNL     1      -3.492   4.464   0.056  0.00  0.00    +0.056 C 
ATOM     15  C   UNL     1      -4.144   5.789   0.506  0.00  0.00    +0.011 C 
ATOM     16  C   UNL     1      -3.094   6.833   0.067  0.00  0.00    +0.043 C 
ENDROOT
BRANCH   3  17
ATOM     17  C   UNL     1       4.825   2.464  -0.029  0.00  0.00    +0.155 A 
ATOM     18  C   UNL     1       5.715   3.491  -0.037  0.00  0.00    +0.051 A 
ATOM     19  C   UNL     1       7.001   2.914  -0.046  0.00  0.00    +0.042 A 
ATOM     20  C   UNL     1       6.833   1.577  -0.052  0.00  0.00    +0.196 A 
ATOM     21  O   UNL     1       5.517   1.308  -0.042  0.00  0.00    -0.461 OA
ENDBRANCH   3  17
BRANCH   1  24
ATOM     22  C   UNL     1       0.002  -0.004   0.002  0.00  0.00    +0.230 C 
ATOM     23  O   UNL     1       1.060  -0.596  -0.011  0.00  0.00    -0.274 OA
ATOM     24  N   UNL     1      -0.016   1.344   0.009  0.00  0.00    -0.269 N 
ATOM     25  H   UNL     1      -0.863   1.817   0.016  0.00  0.00    +0.156 HD
BRANCH  22  32
ATOM     26  C   UNL     1      -0.340  -4.200  -1.246  0.00  0.00    +0.001 A 
ATOM     27  C   UNL     1      -0.435  -4.962  -0.096  0.00  0.00    +0.004 A 
ATOM     28  C   UNL     1      -0.807  -4.372   1.095  0.00  0.00    +0.046 A 
ATOM     29  C   UNL     1      -1.087  -3.010   1.141  0.00  0.00    +0.133 A 
ATOM     30  C   UNL     1      -0.993  -2.250  -0.013  0.00  0.00    +0.011 A 
ATOM     31  C   UNL     1      -0.618  -2.847  -1.203  0.00  0.00    +0.008 A 
ATOM     32  C   UNL     1      -1.293  -0.775   0.010  0.00  0.00    +0.142 C 
ATOM     33  C   UNL     1      -2.076  -0.417   1.244  0.00  0.00    +0.011 A 
ATOM     34  C   UNL     1      -2.767   0.782   1.284  0.00  0.00    +0.008 A 
ATOM     35  C   UNL     1      -3.491   1.130   2.407  0.00  0.00    +0.001 A 
ATOM     36  C   UNL     1      -3.528   0.281   3.498  0.00  0.00    +0.004 A 
ATOM     37  C   UNL     1      -2.843  -0.914   3.463  0.00  0.00    +0.046 A 
ATOM     38  C   UNL     1      -2.114  -1.269   2.334  0.00  0.00    +0.133 A 
ATOM     39  O   UNL     1      -1.448  -2.449   2.320  0.00  0.00    -0.455 OA
ENDBRANCH  22  32
ENDBRANCH   1  24
TORSDOF 3
