REMARK  Name = ZINC06383147
REMARK  3 active torsions:
REMARK  status: ('A' for Active; 'I' for Inactive)
REMARK    1  A    between atoms: C_11  and  C_13
REMARK    2  A    between atoms: C_18  and  N_19
REMARK    3  A    between atoms: C_20  and  C_22
REMARK                            x       y       z     vdW  Elec       q    Type
REMARK                         _______ _______ _______ _____ _____    ______ ____
ROOT
ATOM      1  C   UNL     1       2.418   1.306   0.709  0.00  0.00    +0.039 A 
ATOM      2  C   UNL     1       3.654   1.956   0.716  0.00  0.00    +0.013 A 
ATOM      3  C   UNL     1       3.821   3.125   0.004  0.00  0.00    +0.001 A 
ATOM      4  C   UNL     1       2.767   3.659  -0.719  0.00  0.00    +0.002 A 
ATOM      5  C   UNL     1       1.540   3.025  -0.739  0.00  0.00    +0.024 A 
ATOM      6  C   UNL     1       1.353   1.851  -0.024  0.00  0.00    +0.044 A 
ENDROOT
BRANCH   1  17
ATOM      7  C   UNL     1       0.426  -4.096   3.406  0.00  0.00    +0.001 A 
ATOM      8  C   UNL     1      -0.557  -3.578   2.573  0.00  0.00    +0.002 A 
ATOM      9  C   UNL     1      -0.353  -2.417   1.883  0.00  0.00    +0.028 A 
ATOM     10  C   UNL     1       0.860  -1.735   2.013  0.00  0.00    +0.078 A 
ATOM     11  C   UNL     1       1.862  -2.261   2.861  0.00  0.00    +0.065 A 
ATOM     12  C   UNL     1       1.633  -3.447   3.556  0.00  0.00    +0.015 A 
ATOM     13  C   UNL     1       3.128  -1.524   2.981  0.00  0.00    +0.259 A 
ATOM     14  O   UNL     1       4.028  -1.927   3.695  0.00  0.00    -0.267 OA
ATOM     15  N   UNL     1       3.256  -0.381   2.267  0.00  0.00    -0.306 N 
ATOM     16  H   UNL     1       4.186   0.203   2.325  0.00  0.00    +0.170 HD
ATOM     17  C   UNL     1       2.233   0.055   1.469  0.00  0.00    +0.143 A 
ATOM     18  N   UNL     1       1.096  -0.584   1.353  0.00  0.00    -0.229 NA
ENDBRANCH   1  17
BRANCH   6  19
ATOM     19  N   UNL     1       0.114   1.212  -0.038  0.00  0.00    -0.284 N 
ATOM     20  C   UNL     1      -1.019   1.940  -0.079  0.00  0.00    +0.223 C 
ATOM     21  O   UNL     1      -0.961   3.147  -0.181  0.00  0.00    -0.275 OA
ATOM     22  H   UNL     1       0.061   0.113  -0.016  0.00  0.00    +0.155 HD
BRANCH  20  23
ATOM     23  C   UNL     1      -2.359   1.254   0.000  0.00  0.00    +0.048 C 
ATOM     24  C   UNL     1      -2.461   0.486   1.320  0.00  0.00    +0.019 C 
ATOM     25  C   UNL     1      -3.821  -0.210   1.401  0.00  0.00    -0.009 C 
ATOM     26  C   UNL     1      -4.935   0.837   1.333  0.00  0.00    +0.007 C 
ATOM     27  C   UNL     1      -4.833   1.605   0.013  0.00  0.00    -0.009 C 
ATOM     28  C   UNL     1      -3.473   2.301  -0.068  0.00  0.00    +0.019 C 
ATOM     29  C   UNL     1      -4.977   0.630  -1.157  0.00  0.00    +0.007 C 
ATOM     30  C   UNL     1      -3.863  -0.417  -1.089  0.00  0.00    -0.009 C 
ATOM     31  C   UNL     1      -3.965  -1.185   0.230  0.00  0.00    +0.007 C 
ATOM     32  C   UNL     1      -2.503   0.279  -1.170  0.00  0.00    +0.019 C 
ENDBRANCH  20  23
ENDBRANCH   6  19
TORSDOF 3
