REMARK  Name = ZINC53550152
REMARK  7 active torsions:
REMARK  status: ('A' for Active; 'I' for Inactive)
REMARK    1  A    between atoms: C_1  and  C_2
REMARK    2  A    between atoms: C_2  and  C_3
REMARK    3  A    between atoms: C_13  and  C_15
REMARK    4  A    between atoms: C_15  and  S_16
REMARK    5  A    between atoms: S_16  and  C_17
REMARK    6  A    between atoms: C_20  and  C_24
REMARK    7  A    between atoms: C_21  and  N_23
REMARK                            x       y       z     vdW  Elec       q    Type
REMARK                         _______ _______ _______ _____ _____    ______ ____
ROOT
ATOM      1  C   UNL     1       0.718  -0.497  -1.257  0.00  0.00    -0.006 C 
ATOM      2  C   UNL     1       0.637  -2.025  -1.328  0.00  0.00    +0.010 C 
ATOM      3  C   UNL     1       1.129  -2.515  -2.692  0.00  0.00    +0.056 C 
ATOM      4  C   UNL     1       2.502  -1.917  -2.959  0.00  0.00    +0.054 A 
ATOM      5  C   UNL     1       2.929  -0.830  -2.266  0.00  0.00    +0.015 A 
ATOM      6  S   UNL     1       4.542  -0.550  -2.942  0.00  0.00    -0.057 S 
ATOM      7  C   UNL     1       4.543  -1.826  -4.043  0.00  0.00    +0.165 A 
ATOM      8  N   UNL     1       3.367  -2.384  -3.855  0.00  0.00    -0.229 NA
ATOM      9  N   UNL     1       5.543  -2.197  -4.934  0.00  0.00    -0.264 N 
ATOM     10  C   UNL     1       5.363  -3.258  -5.746  0.00  0.00    +0.229 C 
ATOM     11  O   UNL     1       4.327  -3.888  -5.699  0.00  0.00    -0.275 OA
ATOM     12  C   UNL     1       2.196  -0.078  -1.206  0.00  0.00    +0.048 C 
ATOM     13  H   UNL     1       6.371  -1.694  -4.971  0.00  0.00    +0.157 HD
ENDROOT
BRANCH   1  15
ATOM     14  C   UNL     1      -0.019   1.526   0.010  0.00  0.00    +0.004 C 
ATOM     15  C   UNL     1       0.002  -0.004   0.002  0.00  0.00    +0.000 C 
ENDBRANCH   1  15
BRANCH  10  16
ATOM     16  C   UNL     1       6.447  -3.661  -6.711  0.00  0.00    +0.173 C 
BRANCH  16  17
ATOM     17  S   UNL     1       5.907  -5.112  -7.656  0.00  0.00    -0.077 S 
BRANCH  17  18
ATOM     18  C   UNL     1       7.265  -5.455  -8.725  0.00  0.00    +0.190 A 
ATOM     19  N   UNL     1       8.343  -4.681  -8.664  0.00  0.00    -0.229 NA
ATOM     20  C   UNL     1       9.385  -4.900  -9.445  0.00  0.00    +0.136 A 
ATOM     21  C   UNL     1       9.344  -5.966 -10.350  0.00  0.00    +0.109 A 
ATOM     22  C   UNL     1       8.181  -6.766 -10.386  0.00  0.00    +0.138 A 
ATOM     23  N   UNL     1       7.181  -6.479  -9.562  0.00  0.00    -0.206 NA
BRANCH  22  24
ATOM     24  N   UNL     1       8.088  -7.830 -11.260  0.00  0.00    -0.342 N 
ATOM     25  H   UNL     1       8.825  -8.034 -11.857  0.00  0.00    +0.144 HD
ATOM     26  H   UNL     1       7.285  -8.374 -11.278  0.00  0.00    +0.144 HD
ENDBRANCH  22  24
BRANCH  21  27
ATOM     27  C   UNL     1      10.452  -6.238 -11.217  0.00  0.00    +0.104 C 
ATOM     28  N   UNL     1      11.330  -6.454 -11.904  0.00  0.00    -0.191 NA
ENDBRANCH  21  27
ENDBRANCH  17  18
ENDBRANCH  16  17
ENDBRANCH  10  16
TORSDOF 6
