REMARK  Name = ZINC20907579
REMARK  8 active torsions:
REMARK  status: ('A' for Active; 'I' for Inactive)
REMARK    1  A    between atoms: C_9  and  O_33
REMARK    2  A    between atoms: C_10  and  C_11
REMARK    3  A    between atoms: N_12  and  N_13
REMARK    4  A    between atoms: C_16  and  S_19
REMARK    5  A    between atoms: S_19  and  C_20
REMARK    6  A    between atoms: C_20  and  C_21
REMARK    7  A    between atoms: C_21  and  C_22
REMARK    8  A    between atoms: N_24  and  C_25
REMARK                            x       y       z     vdW  Elec       q    Type
REMARK                         _______ _______ _______ _____ _____    ______ ____
ROOT
ATOM      1  N   UNL     1     -10.929  -0.570  -0.799  0.00  0.00    -0.205 N 
ATOM      2  C   UNL     1      -9.570  -0.318  -0.685  0.00  0.00    +0.232 A 
ATOM      3  N   UNL     1      -8.984   0.916  -0.628  0.00  0.00    -0.186 NA
ATOM      4  C   UNL     1      -7.634   0.738  -0.518  0.00  0.00    +0.210 A 
ATOM      5  N   UNL     1      -7.395  -0.552  -0.512  0.00  0.00    -0.144 NA
ATOM      6  N   UNL     1      -8.622  -1.220  -0.613  0.00  0.00    -0.245 N 
ATOM      7  H   UNL     1     -11.642   0.266  -0.852  0.00  0.00    +0.177 HD
ATOM      8  H   UNL     1      -8.878  -2.290  -0.638  0.00  0.00    +0.192 HD
ENDROOT
BRANCH   1  10
ATOM      9  C   UNL     1     -12.669  -2.128  -0.953  0.00  0.00    +0.142 C 
ATOM     10  N   UNL     1     -11.395  -1.891  -0.846  0.00  0.00    -0.187 NA
BRANCH   9  20
ATOM     11  C   UNL     1     -17.280  -4.401  -1.349  0.00  0.00    +0.001 A 
ATOM     12  C   UNL     1     -16.855  -3.075  -1.305  0.00  0.00    +0.001 A 
ATOM     13  C   UNL     1     -15.532  -2.768  -1.194  0.00  0.00    +0.009 A 
ATOM     14  C   UNL     1     -14.586  -3.797  -1.122  0.00  0.00    -0.006 A 
ATOM     15  C   UNL     1     -15.014  -5.147  -1.167  0.00  0.00    -0.017 A 
ATOM     16  C   UNL     1     -16.387  -5.427  -1.283  0.00  0.00    +0.008 A 
ATOM     17  C   UNL     1     -14.063  -6.178  -1.096  0.00  0.00    +0.012 A 
ATOM     18  C   UNL     1     -12.737  -5.896  -0.985  0.00  0.00    +0.046 A 
ATOM     19  C   UNL     1     -12.267  -4.585  -0.943  0.00  0.00    +0.126 A 
ATOM     20  C   UNL     1     -13.157  -3.513  -1.003  0.00  0.00    +0.044 A 
BRANCH  19  21
ATOM     21  O   UNL     1     -10.933  -4.349  -0.837  0.00  0.00    -0.506 OA
ATOM     22  H   UNL     1     -10.559  -3.316  -0.803  0.00  0.00    +0.292 HD
ENDBRANCH  19  21
ENDBRANCH   9  20
ENDBRANCH   1  10
BRANCH   4  23
ATOM     23  S   UNL     1      -6.426   2.016  -0.410  0.00  0.00    -0.084 S 
BRANCH  23  24
ATOM     24  C   UNL     1      -4.852   1.123  -0.286  0.00  0.00    +0.086 C 
BRANCH  24  25
ATOM     25  C   UNL     1      -3.703   2.127  -0.184  0.00  0.00    +0.107 C 
BRANCH  25  26
ATOM     26  C   UNL     1      -2.395   1.385  -0.081  0.00  0.00    +0.218 C 
ATOM     27  O   UNL     1      -2.384   0.172  -0.088  0.00  0.00    -0.275 OA
ATOM     28  N   UNL     1      -1.238   2.069   0.019  0.00  0.00    -0.284 N 
ATOM     29  H   UNL     1      -1.254   3.165   0.117  0.00  0.00    +0.155 HD
BRANCH  28  30
ATOM     30  C   UNL     1      -0.016   1.385  -0.001  0.00  0.00    +0.052 A 
ATOM     31  C   UNL     1       0.076   0.144  -0.617  0.00  0.00    +0.026 A 
ATOM     32  C   UNL     1       1.283  -0.526  -0.641  0.00  0.00    +0.022 A 
ATOM     33  C   UNL     1       2.401   0.038  -0.053  0.00  0.00    +0.042 A 
ATOM     34  C   UNL     1       2.313   1.275   0.561  0.00  0.00    +0.041 A 
ATOM     35  C   UNL     1       1.108   1.950   0.589  0.00  0.00    +0.064 A 
ATOM     36 CL   UNL     1       0.997   3.502   1.359  0.00  0.00    -0.082 Cl
ATOM     37 CL   UNL     1       3.917  -0.807  -0.085  0.00  0.00    -0.083 Cl
ENDBRANCH  28  30
ENDBRANCH  25  26
ENDBRANCH  24  25
ENDBRANCH  23  24
ENDBRANCH   4  23
TORSDOF 8
