REMARK  Name = ZINC41586657
REMARK  13 active torsions:
REMARK  status: ('A' for Active; 'I' for Inactive)
REMARK    1  A    between atoms: C_1  and  C_2
REMARK    2  A    between atoms: C_2  and  O_3
REMARK    3  A    between atoms: O_3  and  C_4
REMARK    4  A    between atoms: C_4  and  C_6
REMARK    5  A    between atoms: C_9  and  O_12
REMARK    6  A    between atoms: O_12  and  C_13
REMARK    7  A    between atoms: C_22  and  O_37
REMARK    8  A    between atoms: C_23  and  C_24
REMARK    9  A    between atoms: C_24  and  N_25
REMARK   10  A    between atoms: C_29  and  C_32
REMARK   11  A    between atoms: C_32  and  O_34
REMARK   12  A    between atoms: O_34  and  C_35
REMARK   13  A    between atoms: C_35  and  C_36
REMARK                            x       y       z     vdW  Elec       q    Type
REMARK                         _______ _______ _______ _____ _____    ______ ____
ROOT
ATOM      1  C   UNL     1       3.638  -5.283   5.911  0.00  0.00    +0.210 A 
ATOM      2  C   UNL     1       3.200  -6.142   4.969  0.00  0.00    +0.245 A 
ATOM      3  O   UNL     1       3.347  -7.469   5.075  0.00  0.00    -0.459 OA
ATOM      4  C   UNL     1       3.946  -8.048   6.135  0.00  0.00    +0.143 A 
ATOM      5  C   UNL     1       4.443  -7.247   7.179  0.00  0.00    +0.068 A 
ATOM      6  C   UNL     1       4.291  -5.786   7.072  0.00  0.00    +0.235 A 
ATOM      7  O   UNL     1       4.705  -5.039   7.942  0.00  0.00    -0.283 OA
ATOM      8  C   UNL     1       5.066  -7.835   8.281  0.00  0.00    +0.019 A 
ATOM      9  C   UNL     1       5.193  -9.193   8.342  0.00  0.00    +0.046 A 
ATOM     10  C   UNL     1       4.704  -9.994   7.312  0.00  0.00    +0.122 A 
ATOM     11  C   UNL     1       4.083  -9.426   6.213  0.00  0.00    +0.020 A 
ENDROOT
BRANCH  10  12
ATOM     12  O   UNL     1       4.838 -11.343   7.388  0.00  0.00    -0.506 OA
ATOM     13  H   UNL     1       4.097 -11.788   7.822  0.00  0.00    +0.292 HD
ENDBRANCH  10  12
BRANCH   1  14
ATOM     14  O   UNL     1       3.461  -3.943   5.751  0.00  0.00    -0.449 OA
BRANCH  14  18
ATOM     15  C   UNL     1       0.899  -2.003   8.341  0.00  0.00    +0.059 A 
ATOM     16  C   UNL     1       1.025  -3.394   8.391  0.00  0.00    +0.018 A 
ATOM     17  C   UNL     1       1.881  -4.037   7.525  0.00  0.00    +0.047 A 
ATOM     18  C   UNL     1       2.619  -3.305   6.602  0.00  0.00    +0.129 A 
ATOM     19  C   UNL     1       2.497  -1.921   6.550  0.00  0.00    +0.047 A 
ATOM     20  C   UNL     1       1.639  -1.270   7.408  0.00  0.00    +0.018 A 
BRANCH  15  21
ATOM     21  C   UNL     1      -0.016  -1.310   9.267  0.00  0.00    +0.339 C 
ATOM     22  O   UNL     1      -0.128  -0.101   9.219  0.00  0.00    -0.245 OA
BRANCH  21  23
ATOM     23  O   UNL     1      -0.728  -2.017  10.166  0.00  0.00    -0.461 OA
BRANCH  23  25
ATOM     24  C   UNL     1      -2.314  -2.246  11.975  0.00  0.00    +0.048 C 
ATOM     25  C   UNL     1      -1.595  -1.281  11.031  0.00  0.00    +0.229 C 
ENDBRANCH  23  25
ENDBRANCH  21  23
ENDBRANCH  15  21
ENDBRANCH  14  18
ENDBRANCH   1  14
BRANCH  11  26
ATOM     26  C   UNL     1       3.558 -10.302   5.104  0.00  0.00    -0.036 C 
BRANCH  26  27
ATOM     27  N   UNL     1       4.609 -10.502   4.098  0.00  0.00    +0.383 N 
ATOM     28  C   UNL     1       4.932  -9.217   3.468  0.00  0.00    -0.078 C 
ATOM     29  C   UNL     1       6.083  -9.405   2.477  0.00  0.00    -0.018 C 
ATOM     30  C   UNL     1       5.664 -10.411   1.402  0.00  0.00    +0.011 C 
ATOM     31  C   UNL     1       5.258 -11.725   2.076  0.00  0.00    +0.081 C 
ATOM     32  C   UNL     1       4.138 -11.451   3.082  0.00  0.00    -0.064 C 
ATOM     33  H   UNL     1       5.435 -10.873   4.545  0.00  0.00    -0.081 HD
BRANCH  31  34
ATOM     34  C   UNL     1       4.771 -12.697   1.032  0.00  0.00    +0.308 C 
ATOM     35  O   UNL     1       3.645 -13.130   1.089  0.00  0.00    -0.251 OA
BRANCH  34  36
ATOM     36  O   UNL     1       5.590 -13.082   0.040  0.00  0.00    -0.465 OA
BRANCH  36  37
ATOM     37  C   UNL     1       5.062 -14.005  -0.914  0.00  0.00    +0.229 C 
ATOM     38  C   UNL     1       6.132 -14.324  -1.960  0.00  0.00    +0.048 C 
ENDBRANCH  36  37
ENDBRANCH  34  36
ENDBRANCH  31  34
ENDBRANCH  26  27
ENDBRANCH  11  26
TORSDOF 11
