REMARK  Name = ZINC09088161
REMARK  5 active torsions:
REMARK  status: ('A' for Active; 'I' for Inactive)
REMARK    1  A    between atoms: C_1  and  C_2
REMARK    2  A    between atoms: C_5  and  C_8
REMARK    3  A    between atoms: N_13  and  C_14
REMARK    4  A    between atoms: C_14  and  N_16
REMARK    5  A    between atoms: C_17  and  C_19
REMARK                            x       y       z     vdW  Elec       q    Type
REMARK                         _______ _______ _______ _____ _____    ______ ____
ROOT
ATOM      1  C   UNL     1       0.042  -4.251  -0.020  0.00  0.00    +0.055 A 
ATOM      2  C   UNL     1       0.051  -4.952  -1.175  0.00  0.00    +0.074 A 
ATOM      3  S   UNL     1       0.083  -6.635  -0.588  0.00  0.00    -0.060 S 
ATOM      4  C   UNL     1       0.083  -6.334   1.065  0.00  0.00    +0.162 A 
ATOM      5  N   UNL     1       0.064  -4.974   1.141  0.00  0.00    -0.335 N 
ATOM      6  N   UNL     1       0.102  -7.214   2.063  0.00  0.00    -0.169 NA
ATOM      7  H   UNL     1       0.063  -4.527   2.002  0.00  0.00    +0.168 HD
ENDROOT
BRANCH   1  12
ATOM      8  C   UNL     1      -0.061   1.503   0.014  0.00  0.00    +0.044 C 
ATOM      9  C   UNL     1      -0.035  -0.004   0.005  0.00  0.00    -0.050 A 
ATOM     10  C   UNL     1      -0.032  -0.685  -1.199  0.00  0.00    +0.004 A 
ATOM     11  C   UNL     1      -0.007  -2.065  -1.214  0.00  0.00    +0.010 A 
ATOM     12  C   UNL     1       0.015  -2.772  -0.011  0.00  0.00    -0.001 A 
ATOM     13  C   UNL     1       0.012  -2.079   1.200  0.00  0.00    +0.010 A 
ATOM     14  C   UNL     1      -0.007  -0.699   1.201  0.00  0.00    +0.004 A 
ENDBRANCH   1  12
BRANCH   6  15
ATOM     15  C   UNL     1       0.020  -8.521   1.802  0.00  0.00    +0.163 C 
ATOM     16  S   UNL     1       0.028  -9.072   0.181  0.00  0.00    -0.016 S 
BRANCH  15  17
ATOM     17  N   UNL     1      -0.069  -9.406   2.814  0.00  0.00    -0.260 N 
ATOM     18  C   UNL     1      -0.152 -10.726   2.550  0.00  0.00    +0.285 C 
ATOM     19  O   UNL     1      -0.146 -11.117   1.398  0.00  0.00    -0.266 OA
ATOM     20  H   UNL     1      -0.073  -9.094   3.732  0.00  0.00    +0.157 HD
BRANCH  18  21
ATOM     21  C   UNL     1      -0.249 -11.688   3.651  0.00  0.00    +0.189 A 
ATOM     22  C   UNL     1      -0.333 -13.046   3.526  0.00  0.00    +0.054 A 
ATOM     23  C   UNL     1      -0.406 -13.568   4.826  0.00  0.00    +0.042 A 
ATOM     24  C   UNL     1      -0.365 -12.519   5.678  0.00  0.00    +0.196 A 
ATOM     25  O   UNL     1      -0.265 -11.389   4.967  0.00  0.00    -0.458 OA
ENDBRANCH  18  21
ENDBRANCH  15  17
ENDBRANCH   6  15
TORSDOF 4
