REMARK  Name = ZINC64343333
REMARK  9 active torsions:
REMARK  status: ('A' for Active; 'I' for Inactive)
REMARK    1  A    between atoms: C_1  and  C_2
REMARK    2  A    between atoms: C_2  and  C_3
REMARK    3  A    between atoms: C_3  and  C_4
REMARK    4  A    between atoms: C_3  and  C_5
REMARK    5  A    between atoms: C_3  and  C_6
REMARK    6  A    between atoms: C_14  and  S_18
REMARK    7  A    between atoms: S_18  and  C_19
REMARK    8  A    between atoms: C_19  and  C_20
REMARK    9  A    between atoms: N_22  and  C_23
REMARK                            x       y       z     vdW  Elec       q    Type
REMARK                         _______ _______ _______ _____ _____    ______ ____
ROOT
ATOM      1  C   UNL     1       0.962  -2.195  -1.515  0.00  0.00    -0.004 C 
ATOM      2  C   UNL     1      -0.498  -2.604  -1.659  0.00  0.00    +0.008 C 
ATOM      3  C   UNL     1      -0.629  -4.126  -1.523  0.00  0.00    +0.033 C 
ATOM      4  C   UNL     1       0.617  -4.724  -2.172  0.00  0.00    -0.042 C 
ATOM      5  C   UNL     1       1.156  -5.893  -1.830  0.00  0.00    +0.071 C 
ATOM      6  C   UNL     1       2.411  -6.318  -2.506  0.00  0.00    +0.112 C 
ATOM      7  N   UNL     1       3.016  -7.443  -2.221  0.00  0.00    -0.217 NA
ATOM      8  C   UNL     1       2.463  -8.227  -1.282  0.00  0.00    +0.182 C 
ATOM      9  N   UNL     1       1.357  -7.952  -0.619  0.00  0.00    -0.151 NA
ATOM     10  C   UNL     1       0.624  -6.843  -0.794  0.00  0.00    +0.272 C 
ATOM     11  O   UNL     1      -0.395  -6.621  -0.160  0.00  0.00    -0.268 OA
ATOM     12  S   UNL     1       2.770  -5.018  -3.643  0.00  0.00    -0.097 S 
ATOM     13  C   UNL     1       1.321  -3.948  -3.284  0.00  0.00    +0.080 C 
ATOM     14  C   UNL     1       1.802  -2.619  -2.712  0.00  0.00    +0.023 C 
ENDROOT
BRANCH   1  15
ATOM     15  C   UNL     1       1.039  -0.674  -1.369  0.00  0.00    -0.032 C 
ATOM     16  C   UNL     1       0.322  -0.248  -0.086  0.00  0.00    +0.011 C 
ATOM     17  C   UNL     1       0.367  -0.011  -2.573  0.00  0.00    +0.011 C 
BRANCH  15  19
ATOM     18  C   UNL     1       2.582   1.279  -1.155  0.00  0.00    +0.004 C 
ATOM     19  C   UNL     1       2.505  -0.242  -1.301  0.00  0.00    +0.003 C 
ENDBRANCH  15  19
ENDBRANCH   1  15
BRANCH   8  20
ATOM     20  S   UNL     1       3.281  -9.741  -0.904  0.00  0.00    -0.079 S 
BRANCH  20  21
ATOM     21  C   UNL     1       2.244 -10.491   0.382  0.00  0.00    +0.173 C 
BRANCH  21  22
ATOM     22  C   UNL     1       2.839 -11.811   0.800  0.00  0.00    +0.227 C 
ATOM     23  O   UNL     1       3.862 -12.207   0.282  0.00  0.00    -0.275 OA
ATOM     24  N   UNL     1       2.235 -12.552   1.750  0.00  0.00    -0.285 N 
ATOM     25  H   UNL     1       1.453 -12.207   2.209  0.00  0.00    +0.155 HD
BRANCH  24  26
ATOM     26  C   UNL     1       2.736 -13.818   2.075  0.00  0.00    +0.035 A 
ATOM     27  C   UNL     1       1.864 -14.843   2.418  0.00  0.00    +0.025 A 
ATOM     28  C   UNL     1       2.360 -16.092   2.737  0.00  0.00    +0.023 A 
ATOM     29  C   UNL     1       3.724 -16.322   2.716  0.00  0.00    +0.059 A 
ATOM     30  C   UNL     1       4.596 -15.302   2.375  0.00  0.00    +0.061 A 
ATOM     31  C   UNL     1       4.104 -14.052   2.049  0.00  0.00    +0.044 A 
ATOM     32 CL   UNL     1       6.307 -15.594   2.350  0.00  0.00    -0.082 Cl
ATOM     33 CL   UNL     1       4.344 -17.893   3.118  0.00  0.00    -0.082 Cl
ENDBRANCH  24  26
ENDBRANCH  21  22
ENDBRANCH  20  21
ENDBRANCH   8  20
TORSDOF 6
