REMARK  Name = ZINC03232331
REMARK  5 active torsions:
REMARK  status: ('A' for Active; 'I' for Inactive)
REMARK    1  A    between atoms: C_1  and  C_2
REMARK    2  A    between atoms: C_2  and  C_23
REMARK    3  A    between atoms: C_9  and  N_22
REMARK    4  A    between atoms: C_10  and  C_20
REMARK    5  A    between atoms: C_11  and  C_14
REMARK                            x       y       z     vdW  Elec       q    Type
REMARK                         _______ _______ _______ _____ _____    ______ ____
ROOT
ATOM      1  C   UNL     1       1.333   3.593  -0.139  0.00  0.00    +0.012 C 
ATOM      2  C   UNL     1       1.397   2.071  -0.000  0.00  0.00    -0.021 C 
ATOM      3  C   UNL     1      -0.018   1.499   0.010  0.00  0.00    +0.081 C 
ATOM      4  C   UNL     1       0.002  -0.004   0.002  0.00  0.00    +0.112 C 
ATOM      5  C   UNL     1       1.078  -0.711  -0.482  0.00  0.00    +0.076 C 
ATOM      6  C   UNL     1       2.271  -0.015  -0.964  0.00  0.00    +0.169 C 
ATOM      7  O   UNL     1       3.304  -0.615  -1.179  0.00  0.00    -0.292 OA
ATOM      8  C   UNL     1       2.174   1.481  -1.185  0.00  0.00    +0.086 C 
ATOM      9  C   UNL     1       1.012  -2.184  -0.531  0.00  0.00    +0.056 C 
ATOM     10  C   UNL     1      -0.204  -2.786  -0.345  0.00  0.00    +0.098 C 
ATOM     11  C   UNL     1      -1.425  -1.922  -0.145  0.00  0.00    +0.280 C 
ATOM     12  O   UNL     1      -1.052  -0.679   0.501  0.00  0.00    -0.479 OA
ATOM     13  C   UNL     1       2.105   1.706   1.306  0.00  0.00    +0.012 C 
ENDROOT
BRANCH  11  14
ATOM     14  C   UNL     1      -2.050  -1.622  -1.483  0.00  0.00    +0.152 A 
ATOM     15  C   UNL     1      -3.117  -2.248  -2.011  0.00  0.00    +0.050 A 
ATOM     16  C   UNL     1      -3.362  -1.651  -3.269  0.00  0.00    +0.057 A 
ATOM     17  C   UNL     1      -2.424  -0.700  -3.438  0.00  0.00    +0.170 A 
ATOM     18  O   UNL     1      -1.632  -0.688  -2.354  0.00  0.00    -0.449 OA
ATOM     19 BR   UNL     1      -2.251   0.426  -4.947  0.00  0.00    -0.008 Br
ENDBRANCH  11  14
BRANCH   9  20
ATOM     20  N   UNL     1       2.146  -2.935  -0.759  0.00  0.00    -0.356 N 
ATOM     21  H   UNL     1       2.080  -4.033  -0.794  0.00  0.00    +0.142 HD
ATOM     22  H   UNL     1       3.115  -2.437  -0.907  0.00  0.00    +0.142 HD
ENDBRANCH   9  20
BRANCH  10  23
ATOM     23  C   UNL     1      -0.316  -4.213  -0.341  0.00  0.00    +0.101 C 
ATOM     24  N   UNL     1      -0.404  -5.346  -0.338  0.00  0.00    -0.191 NA
ENDBRANCH  10  23
TORSDOF 3
