REMARK  Name = ZINC06387102
REMARK  12 active torsions:
REMARK  status: ('A' for Active; 'I' for Inactive)
REMARK    1  A    between atoms: C_1  and  C_2
REMARK    2  A    between atoms: C_2  and  O_3
REMARK    3  A    between atoms: O_3  and  C_4
REMARK    4  A    between atoms: C_6  and  C_14
REMARK    5  A    between atoms: C_9  and  O_10
REMARK    6  A    between atoms: O_10  and  C_11
REMARK    7  A    between atoms: C_11  and  C_12
REMARK    8  A    between atoms: C_14  and  C_16
REMARK    9  A    between atoms: C_14  and  N_27
REMARK   10  A    between atoms: C_25  and  O_26
REMARK   11  A    between atoms: N_27  and  C_28
REMARK   12  A    between atoms: C_30  and  C_33
REMARK                            x       y       z     vdW  Elec       q    Type
REMARK                         _______ _______ _______ _____ _____    ______ ____
ROOT
ATOM      1  C   UNL     1       1.518   0.052   6.149  0.00  0.00    +0.136 C 
ENDROOT
BRANCH   1   2
ATOM      2  C   UNL     1       2.578  -1.010   6.016  0.00  0.00    +0.021 A 
ATOM      3  C   UNL     1       2.222  -2.352   6.131  0.00  0.00    +0.010 A 
ATOM      4  C   UNL     1       3.155  -3.336   6.011  0.00  0.00    +0.010 A 
ATOM      5  C   UNL     1       4.498  -2.998   5.779  0.00  0.00    +0.004 A 
ATOM      6  C   UNL     1       5.492  -3.988   5.655  0.00  0.00    +0.011 A 
ATOM      7  C   UNL     1       6.777  -3.586   5.431  0.00  0.00    +0.020 A 
ATOM      8  C   UNL     1       7.073  -2.228   5.331  0.00  0.00    +0.111 A 
ATOM      9  N   UNL     1       6.145  -1.310   5.446  0.00  0.00    -0.251 NA
ATOM     10  C   UNL     1       4.869  -1.636   5.667  0.00  0.00    +0.113 A 
ATOM     11  C   UNL     1       3.874  -0.643   5.791  0.00  0.00    +0.148 A 
BRANCH  11  12
ATOM     12  O   UNL     1       4.204   0.670   5.688  0.00  0.00    -0.504 OA
ATOM     13  H   UNL     1       4.441   1.084   6.530  0.00  0.00    +0.292 HD
ENDBRANCH  11  12
ENDBRANCH   1   2
BRANCH   1  16
ATOM     14  C   UNL     1       0.891   1.972   2.956  0.00  0.00    +0.164 A 
ATOM     15  C   UNL     1       1.363   1.630   4.213  0.00  0.00    +0.055 A 
ATOM     16  C   UNL     1       1.004   0.422   4.782  0.00  0.00    -0.018 A 
ATOM     17  C   UNL     1       0.173  -0.447   4.099  0.00  0.00    +0.029 A 
ATOM     18  C   UNL     1      -0.305  -0.109   2.845  0.00  0.00    +0.086 A 
ATOM     19  C   UNL     1       0.056   1.098   2.268  0.00  0.00    +0.180 A 
ATOM     20 CL   UNL     1      -1.354  -1.200   1.994  0.00  0.00    -0.080 Cl
BRANCH  14  21
ATOM     21  O   UNL     1       1.244   3.160   2.396  0.00  0.00    -0.489 OA
BRANCH  21  23
ATOM     22  C   UNL     1       2.389   5.289   2.373  0.00  0.00    +0.048 C 
ATOM     23  C   UNL     1       2.104   4.008   3.160  0.00  0.00    +0.226 C 
ENDBRANCH  21  23
ENDBRANCH  14  21
BRANCH  19  24
ATOM     24  O   UNL     1      -0.409   1.430   1.033  0.00  0.00    -0.487 OA
BRANCH  24  25
ATOM     25  C   UNL     1       0.386   1.035  -0.087  0.00  0.00    +0.226 C 
ATOM     26  C   UNL     1      -0.293   1.492  -1.380  0.00  0.00    +0.048 C 
ENDBRANCH  24  25
ENDBRANCH  19  24
ENDBRANCH   1  16
BRANCH   1  27
ATOM     27  N   UNL     1       0.413  -0.459   6.965  0.00  0.00    -0.320 N 
ATOM     28  H   UNL     1      -0.352  -0.874   6.538  0.00  0.00    +0.148 HD
BRANCH  27  29
ATOM     29  C   UNL     1       0.463  -0.348   8.349  0.00  0.00    +0.097 A 
ATOM     30  C   UNL     1       1.616   0.133   8.962  0.00  0.00    +0.045 A 
ATOM     31  C   UNL     1       1.651   0.238  10.341  0.00  0.00    -0.046 A 
ATOM     32  C   UNL     1       0.527  -0.143  11.063  0.00  0.00    +0.021 A 
ATOM     33  C   UNL     1      -0.583  -0.611  10.390  0.00  0.00    +0.084 A 
ATOM     34  C   UNL     1       2.880   0.753  11.043  0.00  0.00    +0.044 C 
ATOM     35  N   UNL     1      -0.655  -0.722   9.037  0.00  0.00    -0.350 N 
ATOM     36  H   UNL     1      -1.498  -1.065   8.562  0.00  0.00    +0.166 HD
ENDBRANCH  27  29
ENDBRANCH   1  27
TORSDOF 9
