REMARK  Name = ZINC28979674
REMARK  9 active torsions:
REMARK  status: ('A' for Active; 'I' for Inactive)
REMARK    1  A    between atoms: C_1  and  C_2
REMARK    2  A    between atoms: C_2  and  C_3
REMARK    3  A    between atoms: C_2  and  O_4
REMARK    4  A    between atoms: O_4  and  C_5
REMARK    5  A    between atoms: C_10  and  C_11
REMARK    6  A    between atoms: C_20  and  N_24
REMARK    7  A    between atoms: N_24  and  S_25
REMARK    8  A    between atoms: S_25  and  C_28
REMARK    9  A    between atoms: C_29  and  C_30
REMARK                            x       y       z     vdW  Elec       q    Type
REMARK                         _______ _______ _______ _____ _____    ______ ____
ROOT
ATOM      1  C   UNL     1       2.392   3.931   0.455  0.00  0.00    +0.004 A 
ATOM      2  C   UNL     1       3.224   3.620   1.537  0.00  0.00    +0.013 A 
ATOM      3  C   UNL     1       4.381   4.355   1.708  0.00  0.00    +0.044 A 
ATOM      4  C   UNL     1       4.680   5.372   0.806  0.00  0.00    +0.128 A 
ATOM      5  N   UNL     1       3.871   5.640  -0.207  0.00  0.00    -0.239 NA
ATOM      6  C   UNL     1       2.761   4.959  -0.408  0.00  0.00    +0.121 A 
ATOM      7  N   UNL     1       5.846   6.117   0.972  0.00  0.00    -0.255 N 
ATOM      8  C   UNL     1       6.866   5.843   1.990  0.00  0.00    +0.117 C 
ATOM      9  C   UNL     1       7.711   7.133   2.084  0.00  0.00    +0.049 C 
ATOM     10  C   UNL     1       7.502   7.749   0.682  0.00  0.00    +0.164 C 
ATOM     11  C   UNL     1       6.183   7.176   0.215  0.00  0.00    +0.240 C 
ATOM     12  O   UNL     1       5.524   7.609  -0.706  0.00  0.00    -0.273 OA
ENDROOT
BRANCH   1  18
ATOM     13  C   UNL     1      -0.066   3.850   0.022  0.00  0.00    +0.129 A 
ATOM     14  C   UNL     1      -1.232   3.132  -0.189  0.00  0.00    +0.046 A 
ATOM     15  C   UNL     1      -1.202   1.750  -0.201  0.00  0.00    +0.004 A 
ATOM     16  C   UNL     1      -0.012   1.076   0.007  0.00  0.00    +0.001 A 
ATOM     17  C   UNL     1       1.157   1.778   0.219  0.00  0.00    +0.012 A 
ATOM     18  C   UNL     1       1.139   3.171   0.228  0.00  0.00    +0.025 A 
BRANCH  13  19
ATOM     19  O   UNL     1      -0.093   5.208   0.029  0.00  0.00    -0.489 OA
BRANCH  19  21
ATOM     20  C   UNL     1      -1.312   7.227   0.558  0.00  0.00    +0.051 C 
ATOM     21  C   UNL     1      -1.375   5.832  -0.067  0.00  0.00    +0.167 C 
ATOM     22  C   UNL     1      -1.776   5.950  -1.539  0.00  0.00    +0.051 C 
ENDBRANCH  19  21
ENDBRANCH  13  19
ENDBRANCH   1  18
BRANCH  10  23
ATOM     23  N   UNL     1       8.581   7.343  -0.223  0.00  0.00    -0.179 NA
ATOM     24  H   UNL     1       9.134   6.410  -0.035  0.00  0.00    +0.149 HD
BRANCH  23  25
ATOM     25  S   UNL     1       9.136   8.394  -1.375  0.00  0.00    +0.052 S 
ATOM     26  O   UNL     1      10.184   7.726  -2.064  0.00  0.00    -0.154 OA
ATOM     27  O   UNL     1       7.990   8.905  -2.044  0.00  0.00    -0.154 OA
BRANCH  25  28
ATOM     28  C   UNL     1       9.874   9.752  -0.530  0.00  0.00    +0.154 C 
ATOM     29  C   UNL     1      11.179   9.978  -0.646  0.00  0.00    +0.035 C 
BRANCH  29  30
ATOM     30  C   UNL     1      11.795  11.112   0.059  0.00  0.00    +0.015 A 
ATOM     31  C   UNL     1      13.107  11.513   0.071  0.00  0.00    +0.017 A 
ATOM     32  C   UNL     1      13.453  12.619   0.814  0.00  0.00    +0.028 A 
ATOM     33  C   UNL     1      12.489  13.278   1.510  0.00  0.00    +0.079 A 
ATOM     34  S   UNL     1      11.029  12.329   1.117  0.00  0.00    -0.077 S 
ATOM     35 CL   UNL     1      12.638  14.684   2.518  0.00  0.00    -0.076 Cl
ENDBRANCH  29  30
ENDBRANCH  25  28
ENDBRANCH  23  25
ENDBRANCH  10  23
TORSDOF 7
