REMARK  Name = ZINC05505024
REMARK  6 active torsions:
REMARK  status: ('A' for Active; 'I' for Inactive)
REMARK    1  A    between atoms: C_1  and  C_2
REMARK    2  A    between atoms: C_3  and  C_18
REMARK    3  A    between atoms: C_4  and  C_10
REMARK    4  A    between atoms: N_20  and  C_21
REMARK    5  A    between atoms: C_26  and  O_27
REMARK    6  A    between atoms: O_27  and  C_28
REMARK                            x       y       z     vdW  Elec       q    Type
REMARK                         _______ _______ _______ _____ _____    ______ ____
ROOT
ATOM      1  C   UNL     1       2.465  -3.426   0.022  0.00  0.00    +0.061 C 
ATOM      2  C   UNL     1       3.724  -2.599  -0.033  0.00  0.00    +0.019 C 
ATOM      3  C   UNL     1       3.639  -1.254   0.033  0.00  0.00    +0.056 C 
ATOM      4  C   UNL     1       4.928  -0.461  -0.032  0.00  0.00    +0.147 C 
ATOM      5  N   UNL     1       6.179  -1.230  -0.151  0.00  0.00    -0.288 N 
ATOM      6  C   UNL     1       6.103  -2.574  -0.205  0.00  0.00    +0.304 C 
ATOM      7  O   UNL     1       7.130  -3.217  -0.308  0.00  0.00    -0.252 OA
ATOM      8  N   UNL     1       4.934  -3.224  -0.149  0.00  0.00    -0.273 N 
ATOM      9  H   UNL     1       7.037  -0.778  -0.194  0.00  0.00    +0.151 HD
ATOM     10  H   UNL     1       4.947  -4.193  -0.192  0.00  0.00    +0.156 HD
ENDROOT
BRANCH   4  11
ATOM     11  C   UNL     1       5.021   0.378   1.216  0.00  0.00    +0.048 A 
ATOM     12  C   UNL     1       5.290  -0.221   2.435  0.00  0.00    +0.131 A 
ATOM     13  C   UNL     1       5.380   0.551   3.580  0.00  0.00    +0.039 A 
ATOM     14  C   UNL     1       5.190   1.918   3.509  0.00  0.00    +0.006 A 
ATOM     15  C   UNL     1       4.915   2.517   2.294  0.00  0.00    +0.039 A 
ATOM     16  C   UNL     1       4.830   1.747   1.146  0.00  0.00    +0.131 A 
ATOM     17  F   UNL     1       4.562   2.332  -0.041  0.00  0.00    -0.205 F 
ATOM     18  F   UNL     1       5.471  -1.558   2.505  0.00  0.00    -0.205 F 
ENDBRANCH   4  11
BRANCH   3  19
ATOM     19  C   UNL     1       2.385  -0.606   0.152  0.00  0.00    +0.248 C 
ATOM     20  O   UNL     1       1.833  -0.160  -0.838  0.00  0.00    -0.270 OA
ATOM     21  N   UNL     1       1.803  -0.481   1.361  0.00  0.00    -0.279 N 
ATOM     22  H   UNL     1       2.268  -0.785   2.157  0.00  0.00    +0.155 HD
BRANCH  21  23
ATOM     23  C   UNL     1       0.528   0.087   1.470  0.00  0.00    +0.076 A 
ATOM     24  C   UNL     1      -0.045   0.724   0.379  0.00  0.00    +0.027 A 
ATOM     25  C   UNL     1      -1.302   1.288   0.490  0.00  0.00    +0.002 A 
ATOM     26  C   UNL     1      -1.996   1.209   1.683  0.00  0.00    +0.004 A 
ATOM     27  C   UNL     1      -1.432   0.576   2.775  0.00  0.00    +0.047 A 
ATOM     28  C   UNL     1      -0.170   0.013   2.674  0.00  0.00    +0.141 A 
BRANCH  28  29
ATOM     29  O   UNL     1       0.387  -0.610   3.747  0.00  0.00    -0.493 OA
ATOM     30  C   UNL     1      -0.387  -0.648   4.948  0.00  0.00    +0.277 C 
ENDBRANCH  28  29
ENDBRANCH  21  23
ENDBRANCH   3  19
TORSDOF 4
