REMARK  Name = ZINC36371479
REMARK  14 active torsions:
REMARK  status: ('A' for Active; 'I' for Inactive)
REMARK    1  A    between atoms: C_1  and  C_2
REMARK    2  A    between atoms: C_2  and  C_4
REMARK    3  A    between atoms: C_2  and  C_10
REMARK    4  A    between atoms: C_4  and  C_5
REMARK    5  A    between atoms: C_5  and  C_6
REMARK    6  A    between atoms: C_6  and  C_7
REMARK    7  A    between atoms: C_7  and  C_8
REMARK    8  A    between atoms: C_7  and  C_9
REMARK    9  A    between atoms: C_16  and  C_44
REMARK   10  A    between atoms: C_23  and  N_38
REMARK   11  A    between atoms: C_27  and  C_37
REMARK   12  A    between atoms: C_30  and  O_33
REMARK   13  A    between atoms: O_33  and  C_34
REMARK   14  A    between atoms: C_34  and  C_36
REMARK                            x       y       z     vdW  Elec       q    Type
REMARK                         _______ _______ _______ _____ _____    ______ ____
ROOT
ATOM      1  C   UNL     1       0.540  -0.571  -1.264  0.00  0.00    -0.002 C 
ATOM      2  C   UNL     1       0.349  -2.091  -1.495  0.00  0.00    +0.004 C 
ATOM      3  C   UNL     1      -0.197  -2.244  -2.947  0.00  0.00    +0.004 C 
ATOM      4  C   UNL     1       0.159  -0.889  -3.578  0.00  0.00    -0.003 C 
ATOM      5  C   UNL     1      -0.237   0.074  -2.437  0.00  0.00    -0.026 C 
ATOM      6  C   UNL     1       0.184   1.482  -2.756  0.00  0.00    +0.007 C 
ATOM      7  C   UNL     1      -0.188   1.873  -4.189  0.00  0.00    +0.005 C 
ATOM      8  C   UNL     1      -1.089   0.852  -4.868  0.00  0.00    +0.001 C 
ATOM      9  C   UNL     1      -0.444  -0.535  -4.902  0.00  0.00    -0.013 C 
ATOM     10  C   UNL     1      -1.477  -1.547  -5.398  0.00  0.00    -0.041 C 
ATOM     11  C   UNL     1      -2.083  -1.049  -6.684  0.00  0.00    -0.042 C 
ATOM     12  C   UNL     1      -2.047   0.179  -7.082  0.00  0.00    -0.065 C 
ATOM     13  C   UNL     1      -1.442   1.306  -6.281  0.00  0.00    -0.008 C 
ATOM     14  C   UNL     1      -0.246   1.849  -7.048  0.00  0.00    +0.015 C 
ATOM     15  C   UNL     1      -0.233   1.291  -8.471  0.00  0.00    +0.046 C 
ATOM     16  C   UNL     1      -1.588   1.406  -9.159  0.00  0.00    +0.180 C 
ATOM     17  C   UNL     1      -2.638   0.558  -8.429  0.00  0.00    +0.075 C 
ATOM     18  C   UNL     1      -2.489   2.419  -6.153  0.00  0.00    +0.016 C 
ATOM     19  C   UNL     1      -1.718  -0.004  -2.072  0.00  0.00    +0.012 C 
ENDROOT
BRANCH  10  20
ATOM     20  N   UNL     1      -0.817  -2.823  -5.703  0.00  0.00    +0.384 N 
ATOM     21  C   UNL     1       0.095  -2.642  -6.839  0.00  0.00    -0.078 C 
ATOM     22  C   UNL     1       0.845  -3.948  -7.109  0.00  0.00    -0.019 C 
ATOM     23  C   UNL     1      -0.165  -5.052  -7.435  0.00  0.00    -0.004 C 
ATOM     24  C   UNL     1      -1.157  -5.182  -6.275  0.00  0.00    -0.019 C 
ATOM     25  C   UNL     1      -1.833  -3.830  -6.035  0.00  0.00    -0.078 C 
ATOM     26  H   UNL     1      -0.292  -3.130  -4.898  0.00  0.00    -0.081 HD
ENDBRANCH  10  20
BRANCH   1  28
ATOM     27  C   UNL     1       0.097   1.360   0.254  0.00  0.00    +0.008 C 
ATOM     28  C   UNL     1      -0.086  -0.147   0.062  0.00  0.00    -0.010 C 
BRANCH  28  29
ATOM     29  C   UNL     1       0.595  -0.894   1.210  0.00  0.00    +0.003 C 
BRANCH  29  30
ATOM     30  C   UNL     1      -0.114  -0.564   2.525  0.00  0.00    +0.001 C 
BRANCH  30  31
ATOM     31  C   UNL     1       0.568  -1.312   3.673  0.00  0.00    +0.003 C 
BRANCH  31  32
ATOM     32  C   UNL     1      -0.141  -0.982   4.988  0.00  0.00    -0.017 C 
ATOM     33  C   UNL     1      -1.572  -1.522   4.946  0.00  0.00    +0.007 C 
ATOM     34  C   UNL     1       0.615  -1.628   6.151  0.00  0.00    +0.007 C 
ENDBRANCH  31  32
ENDBRANCH  30  31
ENDBRANCH  29  30
ENDBRANCH  28  29
ENDBRANCH   1  28
BRANCH  16  35
ATOM     35  O   UNL     1      -2.004   2.772  -9.196  0.00  0.00    -0.461 OA
BRANCH  35  36
ATOM     36  C   UNL     1      -1.635   3.492 -10.267  0.00  0.00    +0.304 C 
ATOM     37  O   UNL     1      -0.979   2.979 -11.143  0.00  0.00    -0.251 OA
ATOM     38  C   UNL     1      -2.037   4.940 -10.376  0.00  0.00    +0.136 C 
ENDBRANCH  35  36
ENDBRANCH  16  35
TORSDOF 8
