REMARK  Name = ZINC52550568
REMARK  6 active torsions:
REMARK  status: ('A' for Active; 'I' for Inactive)
REMARK    1  A    between atoms: C_4  and  C_10
REMARK    2  A    between atoms: N_13  and  C_16
REMARK    3  A    between atoms: C_16  and  C_18
REMARK    4  A    between atoms: C_16  and  C_37
REMARK    5  A    between atoms: C_24  and  C_26
REMARK    6  A    between atoms: C_27  and  C_28
REMARK                            x       y       z     vdW  Elec       q    Type
REMARK                         _______ _______ _______ _____ _____    ______ ____
ROOT
ATOM      1  C   UNL     1       7.060   6.391  -0.047  0.00  0.00    +0.050 C 
ENDROOT
BRANCH   1   2
ATOM      2  C   UNL     1       7.611   5.986   1.321  0.00  0.00    -0.011 C 
ATOM      3  C   UNL     1       6.452   5.603   2.245  0.00  0.00    +0.021 C 
ATOM      4  C   UNL     1       7.010   5.165   3.603  0.00  0.00    +0.108 C 
ATOM      5  N   UNL     1       7.872   6.233   4.127  0.00  0.00    -0.298 N 
ATOM      6  C   UNL     1       8.963   6.739   3.282  0.00  0.00    +0.108 C 
ATOM      7  C   UNL     1       8.383   7.160   1.928  0.00  0.00    +0.021 C 
ATOM      8  C   UNL     1       7.666   6.740   5.359  0.00  0.00    +0.239 C 
ATOM      9  O   UNL     1       6.697   6.390   6.006  0.00  0.00    -0.271 OA
BRANCH   8  10
ATOM     10  C   UNL     1       8.608   7.711   5.918  0.00  0.00    +0.068 C 
ATOM     11  C   UNL     1       8.450   8.152   7.183  0.00  0.00    +0.013 C 
BRANCH  11  12
ATOM     12  C   UNL     1       9.396   9.128   7.745  0.00  0.00    -0.019 A 
ATOM     13  C   UNL     1      10.458   9.604   6.968  0.00  0.00    +0.049 A 
ATOM     14  C   UNL     1      11.343  10.519   7.500  0.00  0.00    +0.162 A 
ATOM     15  C   UNL     1      11.181  10.968   8.804  0.00  0.00    +0.193 A 
ATOM     16  C   UNL     1      10.130  10.498   9.580  0.00  0.00    +0.162 A 
ATOM     17  C   UNL     1       9.235   9.588   9.056  0.00  0.00    +0.049 A 
ATOM     18  F   UNL     1       9.979  10.939  10.848  0.00  0.00    -0.202 F 
ATOM     19  F   UNL     1      12.051  11.864   9.320  0.00  0.00    -0.199 F 
ATOM     20  F   UNL     1      12.369  10.979   6.752  0.00  0.00    -0.202 F 
ENDBRANCH  11  12
ENDBRANCH   8  10
ENDBRANCH   1   2
BRANCH   1  24
ATOM     21  C   UNL     1       5.580   3.213  -2.469  0.00  0.00    +0.014 C 
ATOM     22  C   UNL     1       4.851   4.559  -2.466  0.00  0.00    -0.011 C 
ATOM     23  C   UNL     1       5.795   5.643  -1.941  0.00  0.00    -0.077 C 
ATOM     24  N   UNL     1       6.217   5.310  -0.575  0.00  0.00    +0.389 N 
ATOM     25  C   UNL     1       6.979   4.056  -0.581  0.00  0.00    -0.077 C 
ATOM     26  C   UNL     1       6.081   2.911  -1.054  0.00  0.00    -0.011 C 
ATOM     27  H   UNL     1       5.403   5.205   0.011  0.00  0.00    -0.081 HD
BRANCH  21  31
ATOM     28  C   UNL     1       5.633   0.236  -5.969  0.00  0.00    +0.020 A 
ATOM     29  C   UNL     1       5.806   1.188  -5.014  0.00  0.00    +0.013 A 
ATOM     30  C   UNL     1       4.772   1.310  -3.979  0.00  0.00    +0.018 A 
ATOM     31  C   UNL     1       4.632   2.127  -2.911  0.00  0.00    -0.037 C 
ATOM     32  C   UNL     1       3.332   1.730  -2.249  0.00  0.00    +0.146 C 
ATOM     33  N   UNL     1       2.789   0.631  -3.055  0.00  0.00    -0.365 N 
ATOM     34  C   UNL     1       3.613   0.391  -4.046  0.00  0.00    +0.134 A 
ATOM     35  N   UNL     1       3.566  -0.510  -5.051  0.00  0.00    -0.238 NA
ATOM     36  C   UNL     1       4.505  -0.590  -5.953  0.00  0.00    +0.113 A 
ATOM     37  H   UNL     1       1.959   0.160  -2.884  0.00  0.00    +0.161 HD
ENDBRANCH  21  31
ENDBRANCH   1  24
BRANCH   1  38
ATOM     38  C   UNL     1       8.204   6.644  -0.995  0.00  0.00    +0.343 C 
ATOM     39  O   UNL     1       8.470   5.828  -1.861  0.00  0.00    -0.248 OA
ATOM     40  O   UNL     1       8.865   7.664  -0.895  0.00  0.00    -0.248 OA
ENDBRANCH   1  38
TORSDOF 6
