REMARK  Name = ZINC44960387
REMARK  13 active torsions:
REMARK  status: ('A' for Active; 'I' for Inactive)
REMARK    1  A    between atoms: C_1  and  C_2
REMARK    2  A    between atoms: C_2  and  O_3
REMARK    3  A    between atoms: O_3  and  C_4
REMARK    4  A    between atoms: C_4  and  C_6
REMARK    5  A    between atoms: C_12  and  N_14
REMARK    6  A    between atoms: C_15  and  C_17
REMARK    7  A    between atoms: N_23  and  C_24
REMARK    8  A    between atoms: C_24  and  C_25
REMARK    9  A    between atoms: C_27  and  C_33
REMARK   10  A    between atoms: C_30  and  O_31
REMARK   11  A    between atoms: O_31  and  C_32
REMARK   12  A    between atoms: C_33  and  C_34
REMARK   13  A    between atoms: C_33  and  C_35
REMARK                            x       y       z     vdW  Elec       q    Type
REMARK                         _______ _______ _______ _____ _____    ______ ____
ROOT
ATOM      1  C   UNL     1       2.447  -5.953  -0.353  0.00  0.00    +0.020 C 
ATOM      2  C   UNL     1       3.859  -5.901   0.235  0.00  0.00    -0.006 C 
ATOM      3  C   UNL     1       4.838  -6.558  -0.742  0.00  0.00    -0.003 C 
ATOM      4  C   UNL     1       4.379  -7.992  -1.023  0.00  0.00    -0.019 C 
ATOM      5  C   UNL     1       2.948  -7.966  -1.565  0.00  0.00    -0.077 C 
ATOM      6  N   UNL     1       2.057  -7.351  -0.574  0.00  0.00    +0.390 N 
ATOM      7  H   UNL     1       2.121  -7.859   0.296  0.00  0.00    -0.080 HD
ENDROOT
BRANCH   1   9
ATOM      8  N   UNL     1       1.246  -3.982   0.537  0.00  0.00    -0.313 N 
ATOM      9  C   UNL     1       1.480  -5.308   0.606  0.00  0.00    +0.200 C 
ATOM     10  O   UNL     1       0.911  -5.981   1.439  0.00  0.00    -0.278 OA
ATOM     11  H   UNL     1       1.701  -3.444  -0.130  0.00  0.00    +0.149 HD
BRANCH   8  17
ATOM     12  C   UNL     1      -0.254  -2.075   0.844  0.00  0.00    +0.118 C 
ATOM     13  C   UNL     1       0.893  -1.108   0.548  0.00  0.00    +0.016 C 
ATOM     14  C   UNL     1       1.619  -0.764   1.851  0.00  0.00    +0.001 C 
ATOM     15  C   UNL     1       2.179  -2.043   2.475  0.00  0.00    +0.002 C 
ATOM     16  C   UNL     1       1.032  -3.011   2.771  0.00  0.00    +0.023 C 
ATOM     17  C   UNL     1       0.306  -3.355   1.469  0.00  0.00    +0.087 C 
BRANCH  12  18
ATOM     18  C   UNL     1      -0.969  -2.414  -0.439  0.00  0.00    +0.312 C 
ATOM     19  O   UNL     1      -1.024  -3.561  -0.815  0.00  0.00    -0.250 OA
BRANCH  18  20
ATOM     20  O   UNL     1      -1.544  -1.442  -1.164  0.00  0.00    -0.465 OA
BRANCH  20  22
ATOM     21  C   UNL     1      -2.793  -0.600  -3.054  0.00  0.00    +0.048 C 
ATOM     22  C   UNL     1      -2.204  -1.835  -2.369  0.00  0.00    +0.229 C 
ENDBRANCH  20  22
ENDBRANCH  18  20
ENDBRANCH  12  18
ENDBRANCH   8  17
ENDBRANCH   1   9
BRANCH   6  23
ATOM     23  C   UNL     1       0.673  -7.400  -1.065  0.00  0.00    -0.038 C 
BRANCH  23  24
ATOM     24  C   UNL     1       0.223  -8.835  -1.155  0.00  0.00    -0.022 A 
ATOM     25  C   UNL     1      -0.470  -9.410  -0.108  0.00  0.00    +0.009 A 
ATOM     26  C   UNL     1      -0.883 -10.727  -0.190  0.00  0.00    -0.044 A 
ATOM     27  C   UNL     1      -0.604 -11.472  -1.321  0.00  0.00    +0.007 A 
ATOM     28  C   UNL     1       0.088 -10.902  -2.371  0.00  0.00    +0.046 A 
ATOM     29  C   UNL     1       0.499  -9.579  -2.293  0.00  0.00    +0.121 A 
BRANCH  26  30
ATOM     30  C   UNL     1      -1.639 -11.351   0.955  0.00  0.00    +0.013 C 
ATOM     31  C   UNL     1      -3.013 -11.813   0.468  0.00  0.00    +0.012 C 
ATOM     32  C   UNL     1      -0.856 -12.553   1.487  0.00  0.00    +0.012 C 
ENDBRANCH  26  30
BRANCH  29  33
ATOM     33  O   UNL     1       1.176  -9.014  -3.328  0.00  0.00    -0.495 OA
ATOM     34  C   UNL     1       1.425  -9.839  -4.468  0.00  0.00    +0.277 C 
ENDBRANCH  29  33
ENDBRANCH  23  24
ENDBRANCH   6  23
TORSDOF 9
