REMARK  Name = ZINC67606096
REMARK  8 active torsions:
REMARK  status: ('A' for Active; 'I' for Inactive)
REMARK    1  A    between atoms: C_1  and  C_2
REMARK    2  A    between atoms: C_2  and  C_3
REMARK    3  A    between atoms: C_3  and  C_5
REMARK    4  A    between atoms: C_3  and  N_8
REMARK    5  A    between atoms: C_5  and  C_6
REMARK    6  A    between atoms: C_5  and  C_7
REMARK    7  A    between atoms: C_13  and  C_25
REMARK    8  A    between atoms: C_16  and  C_19
REMARK                            x       y       z     vdW  Elec       q    Type
REMARK                         _______ _______ _______ _____ _____    ______ ____
ROOT
ATOM      1  N   UNL     1       0.980   1.978  -2.439  0.00  0.00    -0.296 N 
ATOM      2  C   UNL     1       0.107   1.109  -2.984  0.00  0.00    +0.303 C 
ATOM      3  O   UNL     1       0.026  -0.024  -2.550  0.00  0.00    -0.253 OA
ATOM      4  N   UNL     1      -0.677   1.495  -4.010  0.00  0.00    -0.280 N 
ATOM      5  C   UNL     1      -1.717   0.603  -4.546  0.00  0.00    +0.140 C 
ATOM      6  C   UNL     1      -3.035   1.382  -4.613  0.00  0.00    +0.133 C 
ATOM      7  O   UNL     1      -2.823   2.607  -5.320  0.00  0.00    -0.366 OA
ATOM      8  C   UNL     1      -1.895   3.493  -4.690  0.00  0.00    +0.166 C 
ATOM      9  C   UNL     1      -0.522   2.824  -4.623  0.00  0.00    +0.145 C 
ATOM     10  C   UNL     1      -3.521   1.688  -3.195  0.00  0.00    +0.039 C 
ATOM     11  H   UNL     1       1.091   2.861  -2.825  0.00  0.00    +0.151 HD
ENDROOT
BRANCH   8  12
ATOM     12  C   UNL     1      -1.798   4.769  -5.485  0.00  0.00    -0.017 A 
ATOM     13  C   UNL     1      -1.901   4.734  -6.864  0.00  0.00    +0.006 A 
ATOM     14  C   UNL     1      -1.812   5.905  -7.593  0.00  0.00    +0.000 A 
ATOM     15  C   UNL     1      -1.620   7.111  -6.945  0.00  0.00    +0.000 A 
ATOM     16  C   UNL     1      -1.518   7.146  -5.567  0.00  0.00    +0.000 A 
ATOM     17  C   UNL     1      -1.611   5.976  -4.837  0.00  0.00    +0.006 A 
ENDBRANCH   8  12
BRANCH   1  18
ATOM     18  C   UNL     1       1.763   1.590  -1.263  0.00  0.00    +0.077 C 
BRANCH  18  19
ATOM     19  C   UNL     1       2.171   2.843  -0.485  0.00  0.00    +0.003 C 
ATOM     20  C   UNL     1       0.916   3.595  -0.037  0.00  0.00    +0.009 C 
ATOM     21  C   UNL     1       2.988   2.438   0.743  0.00  0.00    +0.009 C 
ENDBRANCH  18  19
BRANCH  18  23
ATOM     22  C   UNL     1       2.612  -0.477  -2.380  0.00  0.00    +0.006 C 
ATOM     23  C   UNL     1       3.018   0.838  -1.711  0.00  0.00    +0.019 C 
ENDBRANCH  18  23
ENDBRANCH   1  18
TORSDOF 4
