REMARK  Name = ZINC20356598
REMARK  6 active torsions:
REMARK  status: ('A' for Active; 'I' for Inactive)
REMARK    1  A    between atoms: C_1  and  C_2
REMARK    2  A    between atoms: C_2  and  O_3
REMARK    3  A    between atoms: O_3  and  C_4
REMARK    4  A    between atoms: C_7  and  C_13
REMARK    5  A    between atoms: C_8  and  N_10
REMARK    6  A    between atoms: C_16  and  C_18
REMARK                            x       y       z     vdW  Elec       q    Type
REMARK                         _______ _______ _______ _____ _____    ______ ____
ROOT
ATOM      1  C   UNL     1      -4.243  -9.493   0.660  0.00  0.00    +0.063 C 
ATOM      2  C   UNL     1      -5.318  -9.320   1.533  0.00  0.00    +0.084 C 
ATOM      3  C   UNL     1      -5.618  -7.998   2.160  0.00  0.00    +0.153 C 
ATOM      4  N   UNL     1      -5.396  -6.859   1.569  0.00  0.00    -0.283 NA
ATOM      5  N   UNL     1      -6.167  -8.107   3.460  0.00  0.00    -0.150 N 
ATOM      6  C   UNL     1      -6.801  -9.286   3.785  0.00  0.00    +0.182 C 
ATOM      7  N   UNL     1      -6.880 -10.374   3.062  0.00  0.00    -0.152 NA
ATOM      8  C   UNL     1      -6.228 -10.436   1.884  0.00  0.00    +0.273 C 
ATOM      9  O   UNL     1      -6.379 -11.384   1.129  0.00  0.00    -0.268 OA
ATOM     10  S   UNL     1      -7.440  -8.941   5.403  0.00  0.00    -0.018 S 
ATOM     11  C   UNL     1      -6.745  -7.305   5.590  0.00  0.00    +0.182 C 
ATOM     12  N   UNL     1      -6.131  -7.128   4.430  0.00  0.00    -0.149 NA
ATOM     13  N   UNL     1      -6.828  -6.449   6.663  0.00  0.00    -0.308 N 
ATOM     14  C   UNL     1      -6.186  -5.128   6.619  0.00  0.00    +0.107 C 
ATOM     15  C   UNL     1      -7.230  -4.060   6.957  0.00  0.00    +0.019 C 
ATOM     16  C   UNL     1      -7.882  -4.397   8.300  0.00  0.00    +0.003 C 
ATOM     17  C   UNL     1      -8.589  -5.750   8.201  0.00  0.00    +0.019 C 
ATOM     18  C   UNL     1      -7.565  -6.835   7.874  0.00  0.00    +0.107 C 
ATOM     19  H   UNL     1      -5.610  -6.028   2.022  0.00  0.00    +0.188 HD
ENDROOT
BRANCH   1  23
ATOM     20  C   UNL     1      -1.789  -7.174  -0.427  0.00  0.00    +0.138 A 
ATOM     21  C   UNL     1      -2.046  -6.667   0.860  0.00  0.00    +0.050 A 
ATOM     22  C   UNL     1      -2.994  -7.468   1.429  0.00  0.00    +0.050 A 
ATOM     23  C   UNL     1      -3.314  -8.466   0.483  0.00  0.00    +0.129 A 
ATOM     24  O   UNL     1      -2.571  -8.252  -0.624  0.00  0.00    -0.455 OA
BRANCH  20  28
ATOM     25  C   UNL     1       0.933  -5.593  -3.182  0.00  0.00    +0.123 A 
ATOM     26  C   UNL     1      -0.100  -4.794  -2.689  0.00  0.00    +0.046 A 
ATOM     27  C   UNL     1      -0.990  -5.303  -1.792  0.00  0.00    +0.017 A 
ATOM     28  C   UNL     1      -0.866  -6.638  -1.362  0.00  0.00    +0.048 A 
ATOM     29  C   UNL     1       0.178  -7.439  -1.863  0.00  0.00    +0.140 A 
ATOM     30  C   UNL     1       1.058  -6.919  -2.764  0.00  0.00    +0.079 A 
BRANCH  29  31
ATOM     31  N   UNL     1       0.316  -8.844  -1.416  0.00  0.00    +0.057 N 
ATOM     32  O   UNL     1       1.213  -9.629  -1.978  0.00  0.00    -0.126 OA
ATOM     33  O   UNL     1      -0.458  -9.310  -0.458  0.00  0.00    -0.126 OA
ENDBRANCH  29  31
BRANCH  25  34
ATOM     34  O   UNL     1       1.814  -5.081  -4.075  0.00  0.00    -0.492 OA
BRANCH  34  36
ATOM     35  C   UNL     1       2.711  -3.321  -5.466  0.00  0.00    +0.048 C 
ATOM     36  C   UNL     1       1.629  -3.718  -4.460  0.00  0.00    +0.225 C 
ENDBRANCH  34  36
ENDBRANCH  25  34
ENDBRANCH  20  28
ENDBRANCH   1  23
TORSDOF 5
