REMARK  Name = ZINC52095163
REMARK  3 active torsions:
REMARK  status: ('A' for Active; 'I' for Inactive)
REMARK    1  A    between atoms: C_1  and  C_2
REMARK    2  A    between atoms: C_5  and  C_7
REMARK    3  A    between atoms: C_7  and  C_9
REMARK                            x       y       z     vdW  Elec       q    Type
REMARK                         _______ _______ _______ _____ _____    ______ ____
ROOT
ATOM      1  C   UNL     1       1.777  -4.310  -1.319  0.00  0.00    -0.013 A 
ATOM      2  C   UNL     1       3.147  -4.145  -1.375  0.00  0.00    +0.034 A 
ATOM      3  C   UNL     1       3.822  -4.373  -2.564  0.00  0.00    +0.067 A 
ATOM      4  C   UNL     1       3.114  -4.770  -3.701  0.00  0.00    +0.068 A 
ATOM      5  C   UNL     1       1.739  -4.933  -3.636  0.00  0.00    +0.043 A 
ATOM      6  C   UNL     1       1.075  -4.709  -2.445  0.00  0.00    +0.025 A 
ATOM      7 BR   UNL     1      -0.799  -4.939  -2.354  0.00  0.00    -0.050 Br
ATOM      8  N   UNL     1       4.048  -4.920  -4.724  0.00  0.00    -0.306 N 
ATOM      9  H   UNL     1       3.852  -5.189  -5.636  0.00  0.00    +0.170 HD
ATOM     10  C   UNL     1       5.267  -4.629  -4.233  0.00  0.00    +0.325 A 
ATOM     11  O   UNL     1       6.304  -4.661  -4.868  0.00  0.00    -0.247 OA
ATOM     12  N   UNL     1       5.164  -4.295  -2.932  0.00  0.00    -0.306 N 
ATOM     13  H   UNL     1       5.898  -4.043  -2.351  0.00  0.00    +0.170 HD
ENDROOT
BRANCH   1  14
ATOM     14  C   UNL     1       1.043  -4.062  -0.027  0.00  0.00    +0.124 C 
ATOM     15 BR   UNL     1       2.277  -4.305   1.484  0.00  0.00    -0.077 Br
BRANCH  14  20
ATOM     16  C   UNL     1      -0.018   1.503   0.010  0.00  0.00    +0.051 C 
ATOM     17  C   UNL     1       0.002  -0.004   0.002  0.00  0.00    -0.013 A 
ATOM     18  C   UNL     1      -1.039  -0.872   0.002  0.00  0.00    +0.011 A 
ATOM     19  C   UNL     1      -0.780  -2.230  -0.007  0.00  0.00    +0.013 A 
ATOM     20  C   UNL     1       0.507  -2.653  -0.016  0.00  0.00    +0.008 A 
ATOM     21  S   UNL     1       1.404  -1.109  -0.018  0.00  0.00    -0.097 S 
ENDBRANCH  14  20
ENDBRANCH   1  14
TORSDOF 2
