REMARK  Name = ZINC39266220
REMARK  9 active torsions:
REMARK  status: ('A' for Active; 'I' for Inactive)
REMARK    1  A    between atoms: C_4  and  C_7
REMARK    2  A    between atoms: C_7  and  O_8
REMARK    3  A    between atoms: O_8  and  C_9
REMARK    4  A    between atoms: C_16  and  C_33
REMARK    5  A    between atoms: N_18  and  C_21
REMARK    6  A    between atoms: C_21  and  C_22
REMARK    7  A    between atoms: N_24  and  C_25
REMARK    8  A    between atoms: C_25  and  C_26
REMARK    9  A    between atoms: C_26  and  C_27
REMARK                            x       y       z     vdW  Elec       q    Type
REMARK                         _______ _______ _______ _____ _____    ______ ____
ROOT
ATOM      1  C   UNL     1       5.691  -1.544   1.343  0.00  0.00    +0.404 C 
ATOM      2  O   UNL     1       6.416  -1.675   0.377  0.00  0.00    -0.226 OA
ATOM      3  N   UNL     1       6.063  -2.045   2.538  0.00  0.00    -0.251 N 
ATOM      4  C   UNL     1       5.340  -1.865   3.811  0.00  0.00    +0.112 C 
ATOM      5  C   UNL     1       5.769  -3.069   4.686  0.00  0.00    +0.022 C 
ATOM      6  C   UNL     1       7.260  -3.232   4.285  0.00  0.00    +0.039 C 
ATOM      7  C   UNL     1       7.251  -2.868   2.789  0.00  0.00    +0.139 C 
ATOM      8  C   UNL     1       7.428  -4.055   1.843  0.00  0.00    +0.139 C 
ATOM      9  N   UNL     1       8.662  -3.359   1.460  0.00  0.00    -0.281 N 
ATOM     10  C   UNL     1       8.545  -2.291   2.281  0.00  0.00    +0.243 C 
ATOM     11  O   UNL     1       9.201  -1.297   2.509  0.00  0.00    -0.273 OA
ENDROOT
BRANCH   8  12
ATOM     12  C   UNL     1       6.393  -4.132   0.750  0.00  0.00    -0.024 A 
ATOM     13  C   UNL     1       6.788  -4.294  -0.565  0.00  0.00    +0.005 A 
ATOM     14  C   UNL     1       5.840  -4.364  -1.568  0.00  0.00    +0.000 A 
ATOM     15  C   UNL     1       4.496  -4.273  -1.256  0.00  0.00    +0.000 A 
ATOM     16  C   UNL     1       4.101  -4.112   0.059  0.00  0.00    +0.000 A 
ATOM     17  C   UNL     1       5.050  -4.046   1.062  0.00  0.00    +0.005 A 
ENDBRANCH   8  12
BRANCH   1  18
ATOM     18  O   UNL     1       4.516  -0.897   1.221  0.00  0.00    -0.445 OA
BRANCH  18  19
ATOM     19  C   UNL     1       4.186  -0.391  -0.074  0.00  0.00    +0.269 C 
BRANCH  19  23
ATOM     20  C   UNL     1       0.388   1.557   0.082  0.00  0.00    +0.000 A 
ATOM     21  C   UNL     1       1.544   2.276   0.323  0.00  0.00    +0.000 A 
ATOM     22  C   UNL     1       2.773   1.645   0.273  0.00  0.00    +0.007 A 
ATOM     23  C   UNL     1       2.846   0.296  -0.018  0.00  0.00    -0.010 A 
ATOM     24  C   UNL     1       1.690  -0.423  -0.259  0.00  0.00    +0.007 A 
ATOM     25  C   UNL     1       0.461   0.208  -0.210  0.00  0.00    +0.000 A 
ENDBRANCH  19  23
ENDBRANCH  18  19
ENDBRANCH   1  18
BRANCH   9  26
ATOM     26  C   UNL     1       9.700  -3.712   0.488  0.00  0.00    +0.204 C 
BRANCH  26  27
ATOM     27  C   UNL     1       9.438  -2.994  -0.810  0.00  0.00    +0.230 C 
ATOM     28  O   UNL     1       8.471  -2.270  -0.918  0.00  0.00    -0.274 OA
ATOM     29  N   UNL     1      10.279  -3.155  -1.851  0.00  0.00    -0.314 N 
ATOM     30  H   UNL     1      11.053  -3.733  -1.764  0.00  0.00    +0.149 HD
BRANCH  29  31
ATOM     31  C   UNL     1      10.025  -2.456  -3.113  0.00  0.00    +0.108 C 
BRANCH  31  32
ATOM     32  C   UNL     1      11.120  -2.809  -4.122  0.00  0.00    +0.049 C 
BRANCH  32  33
ATOM     33  C   UNL     1      10.858  -2.091  -5.420  0.00  0.00    -0.072 C 
ATOM     34  C   UNL     1      11.458  -0.962  -5.621  0.00  0.00    -0.028 C 
ATOM     35  C   UNL     1      11.290  -0.128  -6.857  0.00  0.00    +0.027 C 
ATOM     36  C   UNL     1      10.681  -0.968  -7.981  0.00  0.00    +0.004 C 
ATOM     37  C   UNL     1       9.449  -1.697  -7.429  0.00  0.00    +0.005 C 
ATOM     38  C   UNL     1       9.922  -2.732  -6.403  0.00  0.00    +0.030 C 
ENDBRANCH  32  33
ENDBRANCH  31  32
ENDBRANCH  29  31
ENDBRANCH  26  27
ENDBRANCH   9  26
TORSDOF 9
