REMARK  Name = ZINC39486236
REMARK  8 active torsions:
REMARK  status: ('A' for Active; 'I' for Inactive)
REMARK    1  A    between atoms: C_1  and  S_2
REMARK    2  A    between atoms: S_2  and  C_3
REMARK    3  A    between atoms: C_7  and  C_9
REMARK    4  A    between atoms: C_19  and  S_32
REMARK    5  A    between atoms: C_21  and  C_23
REMARK    6  A    between atoms: C_23  and  C_25
REMARK    7  A    between atoms: C_30  and  O_31
REMARK    8  A    between atoms: S_32  and  C_33
REMARK                            x       y       z     vdW  Elec       q    Type
REMARK                         _______ _______ _______ _____ _____    ______ ____
ROOT
ATOM      1  C   UNL     1       2.020  -3.535   3.295  0.00  0.00    +0.062 C 
ATOM      2  C   UNL     1       1.363  -3.839   4.614  0.00  0.00    -0.025 A 
ATOM      3  C   UNL     1       0.151  -3.246   4.911  0.00  0.00    +0.054 A 
ATOM      4  C   UNL     1      -0.484  -3.507   6.117  0.00  0.00    +0.167 A 
ATOM      5  C   UNL     1       0.099  -4.375   7.043  0.00  0.00    +0.167 A 
ATOM      6  C   UNL     1       1.309  -4.973   6.757  0.00  0.00    +0.061 A 
ATOM      7  C   UNL     1       1.948  -4.705   5.540  0.00  0.00    +0.026 A 
ATOM      8  C   UNL     1       3.245  -5.338   5.244  0.00  0.00    +0.177 C 
ATOM      9  O   UNL     1       3.869  -5.924   6.104  0.00  0.00    -0.291 OA
ATOM     10  C   UNL     1       3.773  -5.231   3.829  0.00  0.00    +0.128 C 
ATOM     11  C   UNL     1       3.523  -3.793   3.355  0.00  0.00    +0.092 C 
ATOM     12  O   UNL     1      -0.717  -4.461   8.134  0.00  0.00    -0.453 OA
ATOM     13  C   UNL     1      -1.598  -3.326   8.043  0.00  0.00    +0.466 C 
ATOM     14  O   UNL     1      -1.662  -3.053   6.631  0.00  0.00    -0.453 OA
ENDROOT
BRANCH   1  19
ATOM     15  C   UNL     1       0.877  -0.427   1.472  0.00  0.00    +0.008 A 
ATOM     16  C   UNL     1       1.350   0.574   2.313  0.00  0.00    +0.015 A 
ATOM     17  C   UNL     1       2.035   0.239   3.464  0.00  0.00    +0.001 A 
ATOM     18  C   UNL     1       2.250  -1.090   3.781  0.00  0.00    +0.004 A 
ATOM     19  C   UNL     1       1.782  -2.088   2.946  0.00  0.00    -0.038 A 
ATOM     20  C   UNL     1       1.090  -1.761   1.796  0.00  0.00    +0.019 A 
BRANCH  15  22
ATOM     21  C   UNL     1      -0.022   1.810   0.012  0.00  0.00    +0.090 C 
ATOM     22  S   UNL     1       0.002  -0.004   0.002  0.00  0.00    -0.129 S 
ENDBRANCH  15  22
ENDBRANCH   1  19
BRANCH  11  23
ATOM     23  C   UNL     1       4.121  -3.606   1.984  0.00  0.00    +0.172 C 
ATOM     24  O   UNL     1       3.430  -3.747   0.997  0.00  0.00    -0.292 OA
BRANCH  23  25
ATOM     25  C   UNL     1       5.539  -3.253   1.843  0.00  0.00    +0.059 A 
ATOM     26  C   UNL     1       6.342  -3.095   2.980  0.00  0.00    +0.015 A 
ATOM     27  C   UNL     1       7.671  -2.764   2.840  0.00  0.00    +0.001 A 
ATOM     28  C   UNL     1       8.219  -2.587   1.579  0.00  0.00    +0.004 A 
ATOM     29  C   UNL     1       7.440  -2.738   0.449  0.00  0.00    +0.046 A 
ATOM     30  C   UNL     1       6.100  -3.077   0.568  0.00  0.00    +0.127 A 
BRANCH  30  31
ATOM     31  O   UNL     1       5.335  -3.232  -0.541  0.00  0.00    -0.506 OA
ATOM     32  H   UNL     1       4.903  -2.420  -0.837  0.00  0.00    +0.292 HD
ENDBRANCH  30  31
ENDBRANCH  23  25
ENDBRANCH  11  23
BRANCH  10  33
ATOM     33  S   UNL     1       2.897  -6.399   2.753  0.00  0.00    -0.152 S 
ATOM     34  C   UNL     1       3.371  -8.028   3.396  0.00  0.00    +0.085 C 
ENDBRANCH  10  33
TORSDOF 6
