REMARK  Name = ZINC64343572
REMARK  7 active torsions:
REMARK  status: ('A' for Active; 'I' for Inactive)
REMARK    1  A    between atoms: C_1  and  C_2
REMARK    2  A    between atoms: C_2  and  C_4
REMARK    3  A    between atoms: C_2  and  O_15
REMARK    4  A    between atoms: N_6  and  C_7
REMARK    5  A    between atoms: C_8  and  C_12
REMARK    6  A    between atoms: O_15  and  C_16
REMARK    7  A    between atoms: C_16  and  C_18
REMARK                            x       y       z     vdW  Elec       q    Type
REMARK                         _______ _______ _______ _____ _____    ______ ____
ROOT
ATOM      1  C   UNL     1      -0.019   1.526   0.010  0.00  0.00    +0.062 C 
ATOM      2  C   UNL     1       0.002  -0.004   0.002  0.00  0.00    +0.259 C 
ENDROOT
BRANCH   2   3
ATOM      3  C   UNL     1      -1.412  -0.526   0.013  0.00  0.00    +0.258 C 
ATOM      4  O   UNL     1      -1.836  -1.147  -0.939  0.00  0.00    -0.271 OA
ATOM      5  N   UNL     1      -2.204  -0.302   1.079  0.00  0.00    -0.276 N 
ATOM      6  H   UNL     1      -1.865   0.195   1.840  0.00  0.00    +0.155 HD
BRANCH   5   7
ATOM      7  C   UNL     1      -3.505  -0.782   1.089  0.00  0.00    +0.084 A 
ATOM      8  C   UNL     1      -4.458  -0.644   2.088  0.00  0.00    +0.065 A 
ATOM      9  C   UNL     1      -5.747  -1.247   1.840  0.00  0.00    +0.022 A 
ATOM     10  C   UNL     1      -5.881  -1.879   0.659  0.00  0.00    +0.048 A 
ATOM     11  S   UNL     1      -4.291  -1.657  -0.108  0.00  0.00    -0.081 S 
BRANCH   8  12
ATOM     12  C   UNL     1      -4.171   0.077   3.333  0.00  0.00    +0.244 C 
ATOM     13  O   UNL     1      -3.073   0.573   3.510  0.00  0.00    -0.270 OA
ATOM     14  N   UNL     1      -5.122   0.190   4.281  0.00  0.00    -0.325 N 
ATOM     15  H   UNL     1      -5.997  -0.205   4.140  0.00  0.00    +0.145 HD
ATOM     16  H   UNL     1      -4.932   0.667   5.104  0.00  0.00    +0.145 HD
ENDBRANCH   8  12
ENDBRANCH   5   7
ENDBRANCH   2   3
BRANCH   2  17
ATOM     17  O   UNL     1       0.671  -0.465  -1.174  0.00  0.00    -0.449 OA
BRANCH  17  18
ATOM     18  C   UNL     1       2.004  -0.651  -1.087  0.00  0.00    +0.338 C 
ATOM     19  O   UNL     1       2.582  -0.429  -0.040  0.00  0.00    -0.245 OA
BRANCH  18  20
ATOM     20  C   UNL     1       2.756  -1.123  -2.252  0.00  0.00    +0.065 C 
ATOM     21  C   UNL     1       4.110  -1.367  -2.327  0.00  0.00    +0.010 A 
ATOM     22  C   UNL     1       5.162  -1.258  -1.383  0.00  0.00    +0.010 A 
ATOM     23  C   UNL     1       6.428  -1.571  -1.736  0.00  0.00    +0.001 A 
ATOM     24  C   UNL     1       6.764  -2.011  -3.027  0.00  0.00    +0.002 A 
ATOM     25  C   UNL     1       5.837  -2.150  -3.999  0.00  0.00    +0.026 A 
ATOM     26  C   UNL     1       4.432  -1.830  -3.699  0.00  0.00    +0.043 A 
ATOM     27  N   UNL     1       3.354  -1.871  -4.431  0.00  0.00    -0.380 N 
ATOM     28  C   UNL     1       2.206  -1.448  -3.623  0.00  0.00    +0.156 C 
ATOM     29  H   UNL     1       3.317  -2.143  -5.361  0.00  0.00    +0.160 HD
ENDBRANCH  18  20
ENDBRANCH  17  18
ENDBRANCH   2  17
TORSDOF 6
