REMARK  Name = ZINC08773096
REMARK  4 active torsions:
REMARK  status: ('A' for Active; 'I' for Inactive)
REMARK    1  A    between atoms: C_1  and  C_2
REMARK    2  A    between atoms: C_2  and  C_3
REMARK    3  A    between atoms: C_23  and  C_31
REMARK    4  A    between atoms: C_31  and  C_33
REMARK                            x       y       z     vdW  Elec       q    Type
REMARK                         _______ _______ _______ _____ _____    ______ ____
ROOT
ATOM      1  C   UNL     1      -1.352  -0.458  -0.107  0.00  0.00    -0.026 A 
ATOM      2  C   UNL     1      -1.905  -0.825   1.103  0.00  0.00    +0.005 A 
ATOM      3  C   UNL     1      -3.188  -1.337   1.158  0.00  0.00    +0.001 A 
ATOM      4  C   UNL     1      -3.922  -1.482  -0.006  0.00  0.00    +0.004 A 
ATOM      5  C   UNL     1      -3.374  -1.117  -1.214  0.00  0.00    -0.026 A 
ATOM      6  C   UNL     1      -2.087  -0.595  -1.283  0.00  0.00    +0.039 A 
ATOM      7  N   UNL     1      -1.758  -0.294  -2.606  0.00  0.00    -0.286 N 
ATOM      8  C   UNL     1      -2.761  -0.577  -3.456  0.00  0.00    +0.212 C 
ATOM      9  O   UNL     1      -2.755  -0.418  -4.659  0.00  0.00    -0.277 OA
ATOM     10  C   UNL     1      -3.890  -1.142  -2.630  0.00  0.00    +0.060 C 
ATOM     11  C   UNL     1      -4.254  -2.556  -3.061  0.00  0.00    +0.085 C 
ATOM     12  C   UNL     1      -3.710  -2.888  -4.422  0.00  0.00    -0.011 A 
ATOM     13  C   UNL     1      -3.864  -2.323  -5.668  0.00  0.00    +0.006 A 
ATOM     14  C   UNL     1      -3.216  -2.869  -6.762  0.00  0.00    +0.000 A 
ATOM     15  C   UNL     1      -2.414  -3.984  -6.600  0.00  0.00    +0.002 A 
ATOM     16  C   UNL     1      -2.256  -4.553  -5.354  0.00  0.00    +0.023 A 
ATOM     17  C   UNL     1      -2.905  -4.010  -4.247  0.00  0.00    +0.038 A 
ATOM     18  N   UNL     1      -2.902  -4.398  -2.906  0.00  0.00    -0.285 N 
ATOM     19  C   UNL     1      -3.669  -3.595  -2.143  0.00  0.00    +0.228 C 
ATOM     20  O   UNL     1      -3.853  -3.691  -0.948  0.00  0.00    -0.275 OA
ATOM     21  C   UNL     1      -5.789  -2.604  -3.049  0.00  0.00    +0.066 C 
ATOM     22  C   UNL     1      -6.196  -1.137  -3.275  0.00  0.00    -0.055 C 
ATOM     23  N   UNL     1      -5.089  -0.299  -2.761  0.00  0.00    +0.395 N 
ATOM     24  C   UNL     1      -5.497   0.140  -1.401  0.00  0.00    -0.076 C 
ATOM     25  C   UNL     1      -7.027   0.340  -1.514  0.00  0.00    -0.020 C 
ATOM     26  C   UNL     1      -7.465  -0.808  -2.478  0.00  0.00    -0.016 C 
ATOM     27  H   UNL     1      -0.904   0.076  -2.880  0.00  0.00    +0.155 HD
ATOM     28  H   UNL     1      -2.406  -5.158  -2.563  0.00  0.00    +0.155 HD
ATOM     29  H   UNL     1      -4.915   0.485  -3.372  0.00  0.00    -0.079 HD
ENDROOT
BRANCH   1  31
ATOM     30  C   UNL     1      -0.011   1.628  -0.127  0.00  0.00    +0.009 C 
ATOM     31  C   UNL     1       0.047   0.099  -0.157  0.00  0.00    +0.033 C 
ENDBRANCH   1  31
BRANCH  21  32
ATOM     32  C   UNL     1      -6.302  -3.478  -4.163  0.00  0.00    +0.166 C 
ATOM     33  O   UNL     1      -6.590  -2.988  -5.235  0.00  0.00    -0.292 OA
BRANCH  32  34
ATOM     34  C   UNL     1      -6.454  -4.926  -3.952  0.00  0.00    +0.018 A 
ATOM     35  C   UNL     1      -6.239  -5.472  -2.671  0.00  0.00    +0.012 A 
ATOM     36  C   UNL     1      -6.373  -6.804  -2.453  0.00  0.00    +0.009 A 
ATOM     37  C   UNL     1      -6.730  -7.660  -3.511  0.00  0.00    -0.018 A 
ATOM     38  C   UNL     1      -6.874  -9.042  -3.307  0.00  0.00    +0.008 A 
ATOM     39  C   UNL     1      -7.221  -9.846  -4.350  0.00  0.00    +0.001 A 
ATOM     40  C   UNL     1      -7.437  -9.320  -5.622  0.00  0.00    +0.001 A 
ATOM     41  C   UNL     1      -7.307  -7.986  -5.859  0.00  0.00    +0.008 A 
ATOM     42  C   UNL     1      -6.950  -7.124  -4.806  0.00  0.00    -0.017 A 
ATOM     43  C   UNL     1      -6.813  -5.744  -5.014  0.00  0.00    +0.020 A 
ENDBRANCH  32  34
ENDBRANCH  21  32
TORSDOF 3
