REMARK  Name = ZINC22430456
REMARK  16 active torsions:
REMARK  status: ('A' for Active; 'I' for Inactive)
REMARK    1  A    between atoms: C_1  and  C_2
REMARK    2  A    between atoms: C_5  and  S_8
REMARK    3  A    between atoms: S_8  and  N_11
REMARK    4  A    between atoms: N_11  and  C_12
REMARK    5  A    between atoms: N_11  and  C_30
REMARK    6  A    between atoms: C_12  and  C_13
REMARK    7  A    between atoms: N_15  and  C_16
REMARK    8  A    between atoms: C_16  and  C_18
REMARK    9  A    between atoms: C_16  and  C_22
REMARK   10  A    between atoms: C_18  and  C_19
REMARK   11  A    between atoms: C_19  and  C_20
REMARK   12  A    between atoms: C_19  and  C_21
REMARK   13  A    between atoms: C_25  and  O_28
REMARK   14  A    between atoms: O_28  and  C_29
REMARK   15  A    between atoms: C_32  and  C_37
REMARK   16  A    between atoms: C_35  and  C_36
REMARK                            x       y       z     vdW  Elec       q    Type
REMARK                         _______ _______ _______ _____ _____    ______ ____
ROOT
ATOM      1  N   UNL     1      -2.509   2.361   1.686  0.00  0.00    -0.194 N 
ENDROOT
BRANCH   1   2
ATOM      2  C   UNL     1      -2.113   3.545   2.313  0.00  0.00    +0.055 A 
ATOM      3  C   UNL     1      -0.902   3.602   2.992  0.00  0.00    +0.028 A 
ATOM      4  C   UNL     1      -0.514   4.774   3.609  0.00  0.00    -0.049 A 
ATOM      5  C   UNL     1      -1.328   5.891   3.552  0.00  0.00    +0.004 A 
ATOM      6  C   UNL     1      -2.533   5.837   2.877  0.00  0.00    +0.005 A 
ATOM      7  C   UNL     1      -2.926   4.669   2.253  0.00  0.00    -0.028 A 
ATOM      8  C   UNL     1      -4.237   4.613   1.512  0.00  0.00    +0.046 C 
ATOM      9  C   UNL     1       0.799   4.837   4.346  0.00  0.00    +0.044 C 
ENDBRANCH   1   2
BRANCH   1  10
ATOM     10  S   UNL     1      -2.195   2.130   0.077  0.00  0.00    +0.075 S 
ATOM     11  O   UNL     1      -2.059   3.422  -0.499  0.00  0.00    -0.150 OA
ATOM     12  O   UNL     1      -3.147   1.184  -0.391  0.00  0.00    -0.150 OA
BRANCH  10  17
ATOM     13  C   UNL     1       3.211  -0.517  -0.345  0.00  0.00    +0.044 C 
ATOM     14  C   UNL     1       1.861   0.144  -0.238  0.00  0.00    -0.050 A 
ATOM     15  C   UNL     1       0.719  -0.628  -0.133  0.00  0.00    +0.005 A 
ATOM     16  C   UNL     1      -0.519  -0.022  -0.035  0.00  0.00    +0.029 A 
ATOM     17  C   UNL     1      -0.616   1.357  -0.041  0.00  0.00    +0.109 A 
ATOM     18  C   UNL     1       0.525   2.130  -0.145  0.00  0.00    +0.029 A 
ATOM     19  C   UNL     1       1.764   1.523  -0.245  0.00  0.00    +0.005 A 
ENDBRANCH  10  17
ENDBRANCH   1  10
BRANCH   1  20
ATOM     20  C   UNL     1      -3.201   1.322   2.454  0.00  0.00    +0.227 C 
BRANCH  20  21
ATOM     21  C   UNL     1      -2.187   0.448   3.145  0.00  0.00    +0.233 C 
ATOM     22  O   UNL     1      -1.003   0.670   3.010  0.00  0.00    -0.274 OA
ATOM     23  N   UNL     1      -2.597  -0.581   3.913  0.00  0.00    -0.307 N 
ATOM     24  H   UNL     1      -3.669  -0.731   4.106  0.00  0.00    +0.149 HD
BRANCH  23  25
ATOM     25  C   UNL     1      -1.613  -1.500   4.492  0.00  0.00    +0.103 C 
BRANCH  25  26
ATOM     26  C   UNL     1      -2.244  -2.855   4.685  0.00  0.00    -0.027 A 
ATOM     27  C   UNL     1      -3.545  -2.951   5.143  0.00  0.00    +0.009 A 
ATOM     28  C   UNL     1      -4.128  -4.192   5.316  0.00  0.00    +0.046 A 
ATOM     29  C   UNL     1      -3.403  -5.342   5.040  0.00  0.00    +0.120 A 
ATOM     30  C   UNL     1      -2.096  -5.242   4.585  0.00  0.00    +0.046 A 
ATOM     31  C   UNL     1      -1.520  -3.999   4.409  0.00  0.00    +0.009 A 
BRANCH  29  32
ATOM     32  O   UNL     1      -3.972  -6.563   5.215  0.00  0.00    -0.495 OA
ATOM     33  C   UNL     1      -5.321  -6.589   5.686  0.00  0.00    +0.277 C 
ENDBRANCH  29  32
ENDBRANCH  25  26
BRANCH  25  34
ATOM     34  C   UNL     1      -1.143  -0.959   5.844  0.00  0.00    +0.030 C 
BRANCH  34  35
ATOM     35  C   UNL     1      -0.043  -1.864   6.401  0.00  0.00    -0.015 C 
ATOM     36  C   UNL     1       1.194  -1.774   5.505  0.00  0.00    +0.007 C 
ATOM     37  C   UNL     1       0.319  -1.414   7.817  0.00  0.00    +0.007 C 
ENDBRANCH  34  35
ENDBRANCH  25  34
ENDBRANCH  23  25
ENDBRANCH  20  21
ENDBRANCH   1  20
TORSDOF 10
