REMARK  Name = ZINC41583808
REMARK  8 active torsions:
REMARK  status: ('A' for Active; 'I' for Inactive)
REMARK    1  A    between atoms: C_1  and  C_2
REMARK    2  A    between atoms: C_5  and  C_33
REMARK    3  A    between atoms: N_8  and  C_10
REMARK    4  A    between atoms: C_10  and  C_11
REMARK    5  A    between atoms: C_12  and  O_32
REMARK    6  A    between atoms: C_19  and  C_20
REMARK    7  A    between atoms: C_25  and  O_26
REMARK    8  A    between atoms: O_26  and  C_27
REMARK                            x       y       z     vdW  Elec       q    Type
REMARK                         _______ _______ _______ _____ _____    ______ ____
ROOT
ATOM      1  C   UNL     1       1.506   0.576   3.149  0.00  0.00    +0.020 A 
ATOM      2  C   UNL     1       1.623   1.944   3.334  0.00  0.00    +0.122 A 
ATOM      3  C   UNL     1       0.798   2.609   4.237  0.00  0.00    +0.046 A 
ATOM      4  C   UNL     1      -0.138   1.915   4.951  0.00  0.00    +0.019 A 
ATOM      5  C   UNL     1      -0.266   0.537   4.775  0.00  0.00    +0.068 A 
ATOM      6  C   UNL     1       0.557  -0.144   3.863  0.00  0.00    +0.144 A 
ATOM      7  O   UNL     1       0.244  -1.458   3.861  0.00  0.00    -0.451 OA
ATOM      8  C   UNL     1      -0.762  -1.738   4.723  0.00  0.00    +0.176 C 
ATOM      9  C   UNL     1      -1.304  -2.961   4.953  0.00  0.00    +0.061 C 
ATOM     10  C   UNL     1      -1.151  -0.479   5.374  0.00  0.00    +0.231 C 
ATOM     11  O   UNL     1      -2.020  -0.310   6.212  0.00  0.00    -0.283 OA
ENDROOT
BRANCH   9  12
ATOM     12  C   UNL     1      -2.275  -3.141   6.039  0.00  0.00    +0.020 A 
ATOM     13  C   UNL     1      -2.064  -2.529   7.281  0.00  0.00    +0.011 A 
ATOM     14  C   UNL     1      -2.979  -2.702   8.295  0.00  0.00    +0.001 A 
ATOM     15  C   UNL     1      -4.109  -3.480   8.093  0.00  0.00    +0.004 A 
ATOM     16  C   UNL     1      -4.330  -4.090   6.873  0.00  0.00    +0.046 A 
ATOM     17  C   UNL     1      -3.424  -3.923   5.838  0.00  0.00    +0.134 A 
BRANCH  17  18
ATOM     18  O   UNL     1      -3.643  -4.517   4.638  0.00  0.00    -0.434 OA
BRANCH  18  19
ATOM     19  C   UNL     1      -4.833  -5.298   4.508  0.00  0.00    +0.541 C 
ATOM     20  F   UNL     1      -4.813  -6.338   5.444  0.00  0.00    -0.166 F 
ATOM     21  F   UNL     1      -5.950  -4.487   4.736  0.00  0.00    -0.166 F 
ENDBRANCH  18  19
ENDBRANCH  17  18
ENDBRANCH   9  12
BRANCH   2  22
ATOM     22  O   UNL     1       2.549   2.642   2.629  0.00  0.00    -0.506 OA
ATOM     23  H   UNL     1       2.226   2.982   1.784  0.00  0.00    +0.292 HD
ENDBRANCH   2  22
BRANCH   1  24
ATOM     24  C   UNL     1       2.406  -0.131   2.168  0.00  0.00    -0.036 C 
BRANCH  24  30
ATOM     25  C   UNL     1      -0.509   0.570  -0.801  0.00  0.00    +0.005 C 
ATOM     26  C   UNL     1      -0.163  -0.881  -0.463  0.00  0.00    -0.031 C 
ATOM     27  C   UNL     1       0.768  -1.449  -1.539  0.00  0.00    +0.003 C 
ATOM     28  C   UNL     1       2.079  -0.658  -1.534  0.00  0.00    -0.031 C 
ATOM     29  C   UNL     1       2.701  -0.721  -0.137  0.00  0.00    -0.075 C 
ATOM     30  N   UNL     1       1.774  -0.140   0.842  0.00  0.00    +0.383 N 
ATOM     31  C   UNL     1       0.541  -0.936   0.895  0.00  0.00    -0.075 C 
ATOM     32  C   UNL     1       3.046  -1.266  -2.552  0.00  0.00    +0.005 C 
ATOM     33  H   UNL     1       1.551   0.807   0.572  0.00  0.00    -0.081 HD
ENDBRANCH  24  30
ENDBRANCH   1  24
TORSDOF 6
