REMARK  Name = ZINC38715535
REMARK  14 active torsions:
REMARK  status: ('A' for Active; 'I' for Inactive)
REMARK    1  A    between atoms: C_1  and  C_2
REMARK    2  A    between atoms: C_2  and  N_3
REMARK    3  A    between atoms: N_3  and  C_4
REMARK    4  A    between atoms: N_3  and  C_6
REMARK    5  A    between atoms: C_4  and  C_5
REMARK    6  A    between atoms: C_6  and  C_7
REMARK    7  A    between atoms: C_7  and  C_8
REMARK    8  A    between atoms: C_8  and  N_9
REMARK    9  A    between atoms: C_10  and  C_27
REMARK   10  A    between atoms: C_17  and  C_26
REMARK   11  A    between atoms: C_18  and  C_25
REMARK   12  A    between atoms: C_30  and  C_33
REMARK   13  A    between atoms: C_33  and  C_34
REMARK   14  A    between atoms: C_33  and  C_35
REMARK                            x       y       z     vdW  Elec       q    Type
REMARK                         _______ _______ _______ _____ _____    ______ ____
ROOT
ATOM      1  N   UNL     1      -4.269  -4.657   0.101  0.00  0.00    -0.284 N 
ATOM      2  C   UNL     1      -5.234  -4.810   1.202  0.00  0.00    +0.144 C 
ATOM      3  C   UNL     1      -6.475  -5.363   0.581  0.00  0.00    +0.072 A 
ATOM      4  C   UNL     1      -7.768  -5.732   1.169  0.00  0.00    +0.199 A 
ATOM      5  O   UNL     1      -8.080  -5.464   2.315  0.00  0.00    -0.287 OA
ATOM      6  C   UNL     1      -8.658  -6.464   0.233  0.00  0.00    +0.065 A 
ATOM      7  C   UNL     1      -9.834  -7.056   0.694  0.00  0.00    +0.019 A 
ATOM      8  C   UNL     1     -10.641  -7.731  -0.179  0.00  0.00    -0.047 A 
ATOM      9  C   UNL     1     -10.293  -7.827  -1.519  0.00  0.00    -0.044 A 
ATOM     10  C   UNL     1      -9.138  -7.247  -1.992  0.00  0.00    +0.050 A 
ATOM     11  C   UNL     1      -8.298  -6.552  -1.122  0.00  0.00    +0.140 A 
ATOM     12  O   UNL     1      -7.173  -5.982  -1.609  0.00  0.00    -0.450 OA
ATOM     13  C   UNL     1      -6.243  -5.508  -0.757  0.00  0.00    +0.199 A 
ATOM     14  C   UNL     1      -4.867  -5.062  -1.038  0.00  0.00    +0.283 C 
ATOM     15  O   UNL     1      -4.346  -5.062  -2.136  0.00  0.00    -0.267 OA
ATOM     16  C   UNL     1     -11.192  -8.577  -2.469  0.00  0.00    +0.044 C 
ATOM     17  C   UNL     1     -11.912  -8.371   0.315  0.00  0.00    +0.044 C 
ENDROOT
BRANCH   2  18
ATOM     18  C   UNL     1      -5.519  -3.472   1.833  0.00  0.00    -0.022 A 
ATOM     19  C   UNL     1      -5.658  -2.348   1.039  0.00  0.00    +0.006 A 
ATOM     20  C   UNL     1      -5.918  -1.121   1.619  0.00  0.00    +0.004 A 
ATOM     21  C   UNL     1      -6.041  -1.016   2.991  0.00  0.00    -0.045 A 
ATOM     22  C   UNL     1      -5.903  -2.139   3.785  0.00  0.00    +0.004 A 
ATOM     23  C   UNL     1      -5.646  -3.368   3.206  0.00  0.00    +0.006 A 
BRANCH  21  24
ATOM     24  C   UNL     1      -6.324   0.323   3.623  0.00  0.00    +0.013 C 
ATOM     25  C   UNL     1      -7.643   0.253   4.396  0.00  0.00    +0.012 C 
ATOM     26  C   UNL     1      -5.189   0.684   4.582  0.00  0.00    +0.012 C 
ENDBRANCH  21  24
ENDBRANCH   2  18
BRANCH   1  27
ATOM     27  C   UNL     1      -2.900  -4.149   0.221  0.00  0.00    +0.107 C 
BRANCH  27  28
ATOM     28  C   UNL     1      -2.903  -2.630   0.036  0.00  0.00    +0.000 C 
BRANCH  28  29
ATOM     29  C   UNL     1      -1.473  -2.099   0.162  0.00  0.00    -0.077 C 
BRANCH  29  30
ATOM     30  N   UNL     1      -1.458  -0.660  -0.137  0.00  0.00    +0.379 N 
ATOM     31  H   UNL     1      -1.870  -0.501  -1.044  0.00  0.00    -0.082 HD
BRANCH  30  33
ATOM     32  C   UNL     1      -2.317   1.540   0.507  0.00  0.00    -0.017 C 
ATOM     33  C   UNL     1      -2.228   0.060   0.885  0.00  0.00    -0.082 C 
ENDBRANCH  30  33
BRANCH  30  34
ATOM     34  C   UNL     1      -0.071  -0.176  -0.138  0.00  0.00    -0.082 C 
ATOM     35  C   UNL     1       0.690  -0.810  -1.304  0.00  0.00    -0.017 C 
ENDBRANCH  30  34
ENDBRANCH  29  30
ENDBRANCH  28  29
ENDBRANCH  27  28
ENDBRANCH   1  27
TORSDOF 8
