REMARK  Name = ZINC01800096
REMARK  7 active torsions:
REMARK  status: ('A' for Active; 'I' for Inactive)
REMARK    1  A    between atoms: C_4  and  C_7
REMARK    2  A    between atoms: C_7  and  N_8
REMARK    3  A    between atoms: C_9  and  C_11
REMARK    4  A    between atoms: C_11  and  S_12
REMARK    5  A    between atoms: S_12  and  C_13
REMARK    6  A    between atoms: N_19  and  C_20
REMARK    7  A    between atoms: C_20  and  C_21
REMARK                            x       y       z     vdW  Elec       q    Type
REMARK                         _______ _______ _______ _____ _____    ______ ____
ROOT
ATOM      1  C   UNL     1       7.737  -2.955   4.667  0.00  0.00    +0.173 A 
ATOM      2  N   UNL     1       6.906  -2.496   5.582  0.00  0.00    -0.223 NA
ATOM      3  C   UNL     1       7.171  -2.637   6.884  0.00  0.00    +0.083 A 
ATOM      4  C   UNL     1       8.315  -3.308   7.288  0.00  0.00    +0.050 A 
ATOM      5  C   UNL     1       9.197  -3.789   6.311  0.00  0.00    +0.259 A 
ATOM      6  O   UNL     1      10.220  -4.374   6.629  0.00  0.00    -0.267 OA
ATOM      7  N   UNL     1       8.887  -3.598   5.011  0.00  0.00    -0.283 N 
ATOM      8  C   UNL     1       8.590  -3.538   8.749  0.00  0.00    +0.007 C 
ATOM      9  C   UNL     1      10.096  -3.737   8.953  0.00  0.00    +0.012 C 
ATOM     10  C   UNL     1      10.380  -3.976  10.437  0.00  0.00    +0.001 C 
ATOM     11  C   UNL     1       9.637  -5.229  10.904  0.00  0.00    +0.000 C 
ATOM     12  C   UNL     1       8.134  -5.037  10.697  0.00  0.00    +0.001 C 
ATOM     13  C   UNL     1       7.849  -4.795   9.213  0.00  0.00    +0.012 C 
ATOM     14  C   UNL     1       8.124  -2.341   9.576  0.00  0.00    +0.047 C 
ATOM     15  C   UNL     1       6.707  -1.972   9.228  0.00  0.00    -0.037 A 
ATOM     16  C   UNL     1       6.253  -2.104   7.916  0.00  0.00    +0.004 A 
ATOM     17  C   UNL     1       4.950  -1.739   7.589  0.00  0.00    +0.010 A 
ATOM     18  C   UNL     1       4.106  -1.260   8.572  0.00  0.00    +0.001 A 
ATOM     19  C   UNL     1       4.556  -1.144   9.875  0.00  0.00    +0.000 A 
ATOM     20  C   UNL     1       5.852  -1.499  10.203  0.00  0.00    +0.004 A 
ENDROOT
BRANCH   1  21
ATOM     21  S   UNL     1       7.347  -2.738   2.963  0.00  0.00    -0.078 S 
BRANCH  21  22
ATOM     22  C   UNL     1       5.764  -1.853   2.984  0.00  0.00    +0.173 C 
BRANCH  22  24
ATOM     23  N   UNL     1       4.152  -0.952   1.338  0.00  0.00    -0.311 N 
ATOM     24  C   UNL     1       5.311  -1.601   1.569  0.00  0.00    +0.224 C 
ATOM     25  O   UNL     1       5.989  -1.981   0.638  0.00  0.00    -0.275 OA
ATOM     26  H   UNL     1       3.610  -0.648   2.082  0.00  0.00    +0.149 HD
BRANCH  23  27
ATOM     27  C   UNL     1       3.711  -0.707  -0.038  0.00  0.00    +0.139 C 
BRANCH  27  31
ATOM     28  C   UNL     1      -0.017   1.378   0.010  0.00  0.00    +0.000 A 
ATOM     29  C   UNL     1       1.171   2.086   0.002  0.00  0.00    +0.000 A 
ATOM     30  C   UNL     1       2.377   1.411  -0.013  0.00  0.00    +0.005 A 
ATOM     31  C   UNL     1       2.396   0.029  -0.020  0.00  0.00    -0.030 A 
ATOM     32  C   UNL     1       1.208  -0.679  -0.012  0.00  0.00    +0.005 A 
ATOM     33  C   UNL     1       0.002  -0.004   0.002  0.00  0.00    +0.000 A 
ENDBRANCH  27  31
ENDBRANCH  23  27
ENDBRANCH  22  24
ENDBRANCH  21  22
ENDBRANCH   1  21
BRANCH   7  34
ATOM     34  C   UNL     1       9.796  -4.079   3.966  0.00  0.00    +0.162 C 
BRANCH  34  35
ATOM     35  C   UNL     1      10.794  -3.000   3.634  0.00  0.00    -0.028 A 
ATOM     36  C   UNL     1      10.510  -2.076   2.646  0.00  0.00    +0.005 A 
ATOM     37  C   UNL     1      11.426  -1.086   2.341  0.00  0.00    +0.000 A 
ATOM     38  C   UNL     1      12.626  -1.021   3.025  0.00  0.00    +0.000 A 
ATOM     39  C   UNL     1      12.910  -1.945   4.013  0.00  0.00    +0.000 A 
ATOM     40  C   UNL     1      11.992  -2.932   4.321  0.00  0.00    +0.005 A 
ENDBRANCH  34  35
ENDBRANCH   7  34
TORSDOF 7
