REMARK  Name = ZINC35705213
REMARK  14 active torsions:
REMARK  status: ('A' for Active; 'I' for Inactive)
REMARK    1  A    between atoms: C_1  and  C_2
REMARK    2  A    between atoms: C_2  and  C_3
REMARK    3  A    between atoms: C_4  and  C_34
REMARK    4  A    between atoms: C_5  and  C_24
REMARK    5  A    between atoms: C_8  and  C_13
REMARK    6  A    between atoms: C_14  and  N_16
REMARK    7  A    between atoms: N_16  and  C_17
REMARK    8  A    between atoms: C_17  and  C_18
REMARK    9  A    between atoms: C_27  and  O_32
REMARK   10  A    between atoms: C_28  and  O_30
REMARK   11  A    between atoms: O_30  and  C_31
REMARK   12  A    between atoms: O_32  and  C_33
REMARK   13  A    between atoms: C_34  and  O_36
REMARK   14  A    between atoms: O_36  and  C_37
REMARK                            x       y       z     vdW  Elec       q    Type
REMARK                         _______ _______ _______ _____ _____    ______ ____
ROOT
ATOM      1  C   UNL     1       0.395  -1.610  -1.581  0.00  0.00    +0.056 C 
ATOM      2  C   UNL     1       1.770  -1.634  -1.456  0.00  0.00    +0.083 C 
ATOM      3  C   UNL     1       2.590  -1.768  -2.720  0.00  0.00    +0.150 C 
ATOM      4  N   UNL     1       1.845  -1.864  -4.003  0.00  0.00    -0.267 N 
ATOM      5  C   UNL     1       2.382  -1.991  -5.269  0.00  0.00    +0.048 C 
ATOM      6  C   UNL     1       1.523  -2.063  -6.310  0.00  0.00    +0.072 C 
ATOM      7  S   UNL     1      -0.056  -1.950  -5.494  0.00  0.00    -0.060 S 
ATOM      8  C   UNL     1       0.482  -1.821  -3.909  0.00  0.00    +0.166 C 
ATOM      9  N   UNL     1      -0.173  -1.708  -2.772  0.00  0.00    -0.229 NA
ENDROOT
BRANCH   3  10
ATOM     10  C   UNL     1       3.447  -3.000  -2.589  0.00  0.00    -0.018 A 
ATOM     11  C   UNL     1       2.890  -4.251  -2.780  0.00  0.00    +0.009 A 
ATOM     12  C   UNL     1       3.672  -5.385  -2.661  0.00  0.00    +0.050 A 
ATOM     13  C   UNL     1       5.018  -5.269  -2.349  0.00  0.00    +0.162 A 
ATOM     14  C   UNL     1       5.578  -4.010  -2.157  0.00  0.00    +0.162 A 
ATOM     15  C   UNL     1       4.790  -2.877  -2.283  0.00  0.00    +0.055 A 
BRANCH  14  16
ATOM     16  O   UNL     1       6.898  -3.891  -1.851  0.00  0.00    -0.491 OA
ATOM     17  C   UNL     1       7.382  -2.577  -1.567  0.00  0.00    +0.277 C 
ENDBRANCH  14  16
BRANCH  13  18
ATOM     18  O   UNL     1       5.788  -6.383  -2.231  0.00  0.00    -0.491 OA
ATOM     19  C   UNL     1       5.145  -7.642  -2.442  0.00  0.00    +0.277 C 
ENDBRANCH  13  18
ENDBRANCH   3  10
BRANCH   5  20
ATOM     20  C   UNL     1       3.836  -2.046  -5.477  0.00  0.00    +0.091 C 
ATOM     21  C   UNL     1       4.332  -2.325  -6.697  0.00  0.00    +0.239 C 
ATOM     22  O   UNL     1       3.496  -2.441  -7.758  0.00  0.00    -0.271 OA
BRANCH  21  23
ATOM     23  N   UNL     1       5.696  -2.494  -6.869  0.00  0.00    -0.309 N 
ATOM     24  H   UNL     1       6.286  -2.485  -6.099  0.00  0.00    +0.149 HD
BRANCH  23  25
ATOM     25  C   UNL     1       6.247  -2.687  -8.212  0.00  0.00    +0.136 C 
BRANCH  25  26
ATOM     26  C   UNL     1       7.747  -2.969  -8.112  0.00  0.00    +0.135 C 
ATOM     27  C   UNL     1       8.366  -3.095  -9.527  0.00  0.00    +0.035 C 
ATOM     28  C   UNL     1       9.846  -2.725  -9.235  0.00  0.00    +0.031 C 
ATOM     29  C   UNL     1       9.706  -1.671  -8.116  0.00  0.00    +0.160 C 
ATOM     30  O   UNL     1       8.424  -1.859  -7.502  0.00  0.00    -0.375 OA
ENDBRANCH  25  26
ENDBRANCH  23  25
ENDBRANCH  21  23
ENDBRANCH   5  20
BRANCH   1  32
ATOM     31  C   UNL     1      -0.619   0.000   0.009  0.00  0.00    +0.010 C 
ATOM     32  C   UNL     1      -0.466  -1.479  -0.350  0.00  0.00    +0.053 C 
ENDBRANCH   1  32
BRANCH   2  33
ATOM     33  C   UNL     1       2.385  -1.536  -0.202  0.00  0.00    +0.339 C 
ATOM     34  O   UNL     1       1.706  -1.512   0.809  0.00  0.00    -0.245 OA
BRANCH  33  35
ATOM     35  O   UNL     1       3.732  -1.470  -0.113  0.00  0.00    -0.465 OA
ATOM     36  C   UNL     1       4.292  -1.372   1.198  0.00  0.00    +0.280 C 
ENDBRANCH  33  35
ENDBRANCH   2  33
TORSDOF 10
