REMARK  Name = ZINC21355804
REMARK  8 active torsions:
REMARK  status: ('A' for Active; 'I' for Inactive)
REMARK    1  A    between atoms: C_1  and  C_2
REMARK    2  A    between atoms: C_5  and  C_8
REMARK    3  A    between atoms: C_13  and  C_17
REMARK    4  A    between atoms: C_13  and  C_18
REMARK    5  A    between atoms: N_29  and  C_30
REMARK    6  A    between atoms: C_30  and  C_31
REMARK    7  A    between atoms: C_31  and  O_32
REMARK    8  A    between atoms: O_32  and  C_33
REMARK                            x       y       z     vdW  Elec       q    Type
REMARK                         _______ _______ _______ _____ _____    ______ ____
ROOT
ATOM      1  C   UNL     1       2.507   1.664  -0.035  0.00  0.00    +0.148 C 
ATOM      2  C   UNL     1       1.043   2.038  -0.034  0.00  0.00    +0.037 C 
ATOM      3  C   UNL     1       0.011   1.179  -0.021  0.00  0.00    +0.017 C 
ATOM      4  C   UNL     1      -1.418   1.696  -0.061  0.00  0.00    +0.058 C 
ATOM      5  C   UNL     1      -1.509   3.023   0.691  0.00  0.00    -0.023 C 
ATOM      6  C   UNL     1      -0.571   4.018  -0.002  0.00  0.00    +0.086 C 
ATOM      7  C   UNL     1       0.809   3.433  -0.036  0.00  0.00    +0.163 C 
ATOM      8  O   UNL     1       1.763   4.186  -0.065  0.00  0.00    -0.292 OA
ATOM      9  C   UNL     1      -1.073   2.826   2.144  0.00  0.00    +0.011 C 
ATOM     10  C   UNL     1      -2.945   3.547   0.646  0.00  0.00    +0.011 C 
ATOM     11  N   UNL     1       0.123  -0.173   0.012  0.00  0.00    -0.316 N 
ATOM     12  C   UNL     1       0.974  -0.917  -0.796  0.00  0.00    +0.053 A 
ATOM     13  C   UNL     1       0.501  -1.816  -1.738  0.00  0.00    +0.025 A 
ATOM     14  C   UNL     1       1.403  -2.558  -2.480  0.00  0.00    +0.002 A 
ATOM     15  C   UNL     1       2.764  -2.406  -2.280  0.00  0.00    +0.002 A 
ATOM     16  C   UNL     1       3.237  -1.496  -1.351  0.00  0.00    +0.025 A 
ATOM     17  C   UNL     1       2.337  -0.736  -0.622  0.00  0.00    +0.060 A 
ATOM     18  N   UNL     1       2.768   0.269   0.247  0.00  0.00    -0.242 N 
ATOM     19  C   UNL     1       3.439  -0.067   1.367  0.00  0.00    +0.307 C 
ATOM     20  O   UNL     1       3.819   0.799   2.130  0.00  0.00    -0.252 OA
ATOM     21  N   UNL     1       3.689  -1.363   1.639  0.00  0.00    -0.297 N 
ATOM     22  H   UNL     1      -0.485  -0.758   0.717  0.00  0.00    +0.152 HD
ATOM     23  H   UNL     1       3.345  -2.147   0.949  0.00  0.00    +0.150 HD
ENDROOT
BRANCH   1  28
ATOM     24  C   UNL     1       4.720   2.936  -5.219  0.00  0.00    +0.044 C 
ATOM     25  C   UNL     1       4.143   2.604  -3.867  0.00  0.00    -0.050 A 
ATOM     26  C   UNL     1       3.179   1.621  -3.749  0.00  0.00    +0.004 A 
ATOM     27  C   UNL     1       2.649   1.317  -2.509  0.00  0.00    +0.006 A 
ATOM     28  C   UNL     1       3.084   1.996  -1.387  0.00  0.00    -0.022 A 
ATOM     29  C   UNL     1       4.045   2.982  -1.505  0.00  0.00    +0.006 A 
ATOM     30  C   UNL     1       4.579   3.283  -2.744  0.00  0.00    +0.004 A 
ENDBRANCH   1  28
BRANCH  21  31
ATOM     31  C   UNL     1       4.418  -1.728   2.857  0.00  0.00    +0.133 C 
BRANCH  31  32
ATOM     32  C   UNL     1       4.566  -3.249   2.926  0.00  0.00    +0.178 C 
BRANCH  32  33
ATOM     33  O   UNL     1       5.386  -3.698   1.845  0.00  0.00    -0.381 OA
ATOM     34  C   UNL     1       5.589  -5.112   1.817  0.00  0.00    +0.194 C 
ENDBRANCH  32  33
ENDBRANCH  31  32
ENDBRANCH  21  31
TORSDOF 4
