REMARK  Name = ZINC39707094
REMARK  9 active torsions:
REMARK  status: ('A' for Active; 'I' for Inactive)
REMARK    1  A    between atoms: C_1  and  C_2
REMARK    2  A    between atoms: C_7  and  C_15
REMARK    3  A    between atoms: C_13  and  C_14
REMARK    4  A    between atoms: C_15  and  C_16
REMARK    5  A    between atoms: C_16  and  N_17
REMARK    6  A    between atoms: C_18  and  C_20
REMARK    7  A    between atoms: C_20  and  C_22
REMARK    8  A    between atoms: N_25  and  C_32
REMARK    9  A    between atoms: C_32  and  C_33
REMARK                            x       y       z     vdW  Elec       q    Type
REMARK                         _______ _______ _______ _____ _____    ______ ____
ROOT
ATOM      1  N   UNL     1      -2.144  -7.676   2.515  0.00  0.00    -0.309 N 
ATOM      2  C   UNL     1      -2.253  -8.593   3.496  0.00  0.00    +0.280 C 
ATOM      3  O   UNL     1      -1.433  -8.626   4.390  0.00  0.00    -0.267 OA
ATOM      4  H   UNL     1      -2.800  -7.649   1.800  0.00  0.00    +0.149 HD
ENDROOT
BRANCH   2   5
ATOM      5  C   UNL     1      -3.380  -9.569   3.483  0.00  0.00    +0.226 C 
ATOM      6  O   UNL     1      -4.196  -9.536   2.593  0.00  0.00    -0.286 OA
BRANCH   5   7
ATOM      7  C   UNL     1      -3.502 -10.595   4.580  0.00  0.00    +0.114 C 
ATOM      8  C   UNL     1      -4.213 -11.855   4.059  0.00  0.00    +0.122 C 
ATOM      9  N   UNL     1      -5.426 -11.975   4.873  0.00  0.00    -0.320 N 
ATOM     10  C   UNL     1      -5.489 -10.931   5.796  0.00  0.00    +0.034 A 
ATOM     11  C   UNL     1      -4.395 -10.081   5.686  0.00  0.00    -0.014 A 
ATOM     12  C   UNL     1      -4.270  -8.984   6.516  0.00  0.00    +0.006 A 
ATOM     13  C   UNL     1      -5.237  -8.720   7.468  0.00  0.00    +0.000 A 
ATOM     14  C   UNL     1      -6.331  -9.557   7.589  0.00  0.00    +0.002 A 
ATOM     15  C   UNL     1      -6.463 -10.658   6.759  0.00  0.00    +0.023 A 
BRANCH   9  16
ATOM     16  C   UNL     1      -6.426 -13.037   4.737  0.00  0.00    +0.201 C 
BRANCH  16  17
ATOM     17  C   UNL     1      -6.058 -14.191   5.632  0.00  0.00    +0.233 C 
ATOM     18  O   UNL     1      -5.059 -14.133   6.317  0.00  0.00    -0.274 OA
ATOM     19  N   UNL     1      -6.840 -15.289   5.673  0.00  0.00    -0.296 N 
ATOM     20  C   UNL     1      -8.053 -15.385   4.846  0.00  0.00    +0.136 C 
ATOM     21  C   UNL     1      -8.018 -16.717   4.088  0.00  0.00    +0.179 C 
ATOM     22  O   UNL     1      -7.796 -17.781   5.016  0.00  0.00    -0.377 OA
ATOM     23  C   UNL     1      -6.544 -17.707   5.703  0.00  0.00    +0.179 C 
ATOM     24  C   UNL     1      -6.501 -16.428   6.540  0.00  0.00    +0.136 C 
ENDBRANCH  16  17
ENDBRANCH   9  16
ENDBRANCH   5   7
ENDBRANCH   2   5
BRANCH   1  25
ATOM     25  C   UNL     1      -1.036  -6.717   2.528  0.00  0.00    +0.105 C 
BRANCH  25  26
ATOM     26  C   UNL     1      -1.146  -5.794   1.313  0.00  0.00    +0.035 C 
BRANCH  26  33
ATOM     27  C   UNL     1       4.654  -3.718  -2.960  0.00  0.00    +0.044 C 
ATOM     28  C   UNL     1       3.746  -4.154  -1.839  0.00  0.00    -0.046 A 
ATOM     29  C   UNL     1       4.186  -5.154  -0.971  0.00  0.00    +0.004 A 
ATOM     30  C   UNL     1       3.413  -5.588   0.058  0.00  0.00    +0.010 A 
ATOM     31  C   UNL     1       2.093  -4.987   0.251  0.00  0.00    -0.007 A 
ATOM     32  C   UNL     1       1.283  -5.391   1.270  0.00  0.00    -0.005 C 
ATOM     33  C   UNL     1      -0.068  -4.712   1.395  0.00  0.00    +0.100 C 
ATOM     34  C   UNL     1      -0.405  -3.643   0.380  0.00  0.00    +0.224 C 
ATOM     35  O   UNL     1      -1.475  -3.066   0.434  0.00  0.00    -0.275 OA
ATOM     36  N   UNL     1       0.467  -3.338  -0.566  0.00  0.00    -0.284 N 
ATOM     37  C   UNL     1       1.655  -3.932  -0.680  0.00  0.00    +0.043 A 
ATOM     38  C   UNL     1       2.535  -3.552  -1.710  0.00  0.00    -0.026 A 
ATOM     39  C   UNL     1       2.129  -2.474  -2.681  0.00  0.00    +0.046 C 
ATOM     40  H   UNL     1       0.231  -2.650  -1.207  0.00  0.00    +0.155 HD
ENDBRANCH  26  33
ENDBRANCH  25  26
ENDBRANCH   1  25
TORSDOF 7
