REMARK  Name = ZINC13057486
REMARK  12 active torsions:
REMARK  status: ('A' for Active; 'I' for Inactive)
REMARK    1  A    between atoms: C_1  and  C_2
REMARK    2  A    between atoms: C_7  and  N_12
REMARK    3  A    between atoms: C_9  and  C_11
REMARK    4  A    between atoms: C_13  and  C_15
REMARK    5  A    between atoms: C_15  and  S_16
REMARK    6  A    between atoms: S_16  and  C_17
REMARK    7  A    between atoms: C_20  and  C_23
REMARK    8  A    between atoms: N_21  and  N_22
REMARK    9  A    between atoms: C_26  and  C_29
REMARK   10  A    between atoms: C_29  and  C_30
REMARK   11  A    between atoms: C_29  and  C_31
REMARK   12  A    between atoms: C_29  and  C_32
REMARK                            x       y       z     vdW  Elec       q    Type
REMARK                         _______ _______ _______ _____ _____    ______ ____
ROOT
ATOM      1  C   UNL     1       8.526   1.187   2.658  0.00  0.00    +0.209 A 
ATOM      2  N   UNL     1       8.746   2.298   1.990  0.00  0.00    -0.121 NA
ATOM      3  N   UNL     1       9.987   2.622   2.068  0.00  0.00    -0.127 NA
ATOM      4  C   UNL     1      10.636   1.738   2.790  0.00  0.00    +0.182 A 
ATOM      5  N   UNL     1       9.719   0.796   3.195  0.00  0.00    -0.224 N 
ENDROOT
BRANCH   4   6
ATOM      6  C   UNL     1      12.079   1.756   3.112  0.00  0.00    +0.021 A 
ATOM      7  C   UNL     1      12.697   0.614   3.622  0.00  0.00    +0.012 A 
ATOM      8  C   UNL     1      14.045   0.635   3.916  0.00  0.00    +0.005 A 
ATOM      9  C   UNL     1      14.781   1.790   3.715  0.00  0.00    -0.042 A 
ATOM     10  C   UNL     1      14.173   2.927   3.215  0.00  0.00    +0.005 A 
ATOM     11  C   UNL     1      12.827   2.917   2.913  0.00  0.00    +0.012 A 
BRANCH   9  12
ATOM     12  C   UNL     1      16.252   1.807   4.043  0.00  0.00    -0.013 C 
ATOM     13  C   UNL     1      16.525   2.873   5.107  0.00  0.00    +0.015 C 
ATOM     14  C   UNL     1      16.673   0.436   4.575  0.00  0.00    +0.015 C 
ATOM     15  C   UNL     1      17.052   2.132   2.780  0.00  0.00    +0.015 C 
ENDBRANCH   9  12
ENDBRANCH   4   6
BRANCH   5  16
ATOM     16  N   UNL     1       9.954  -0.304   3.970  0.00  0.00    -0.295 N 
ATOM     17  H   UNL     1      10.198  -1.102   3.402  0.00  0.00    +0.163 HD
ATOM     18  H   UNL     1      10.669  -0.117   4.657  0.00  0.00    +0.163 HD
ENDBRANCH   5  16
BRANCH   1  19
ATOM     19  S   UNL     1       6.979   0.362   2.835  0.00  0.00    -0.075 S 
BRANCH  19  20
ATOM     20  C   UNL     1       5.920   1.470   1.872  0.00  0.00    +0.173 C 
BRANCH  20  22
ATOM     21  N   UNL     1       3.537   1.616   1.226  0.00  0.00    -0.312 N 
ATOM     22  C   UNL     1       4.507   0.948   1.883  0.00  0.00    +0.224 C 
ATOM     23  O   UNL     1       4.241  -0.072   2.482  0.00  0.00    -0.275 OA
ATOM     24  H   UNL     1       3.749   2.432   0.747  0.00  0.00    +0.149 HD
BRANCH  21  30
ATOM     25  C   UNL     1      -0.753   1.593  -1.232  0.00  0.00    +0.008 C 
ATOM     26  C   UNL     1      -0.013   1.086   0.008  0.00  0.00    -0.009 C 
ATOM     27  C   UNL     1      -0.729   1.579   1.267  0.00  0.00    +0.003 C 
ATOM     28  C   UNL     1       0.011   1.072   2.506  0.00  0.00    +0.002 C 
ATOM     29  C   UNL     1       1.446   1.602   2.495  0.00  0.00    +0.022 C 
ATOM     30  C   UNL     1       2.163   1.109   1.237  0.00  0.00    +0.076 C 
ATOM     31  C   UNL     1       1.423   1.615  -0.003  0.00  0.00    +0.009 C 
ATOM     32  C   UNL     1       1.402   3.145   0.006  0.00  0.00    +0.009 C 
ENDBRANCH  21  30
ENDBRANCH  20  22
ENDBRANCH  19  20
ENDBRANCH   1  19
TORSDOF 7
