REMARK  Name = ZINC35445230
REMARK  9 active torsions:
REMARK  status: ('A' for Active; 'I' for Inactive)
REMARK    1  A    between atoms: C_1  and  C_2
REMARK    2  A    between atoms: C_7  and  C_8
REMARK    3  A    between atoms: C_8  and  O_9
REMARK    4  A    between atoms: O_9  and  C_10
REMARK    5  A    between atoms: C_13  and  C_16
REMARK    6  A    between atoms: C_16  and  C_17
REMARK    7  A    between atoms: C_18  and  C_32
REMARK    8  A    between atoms: N_20  and  C_25
REMARK    9  A    between atoms: C_25  and  C_26
REMARK                            x       y       z     vdW  Elec       q    Type
REMARK                         _______ _______ _______ _____ _____    ______ ____
ROOT
ATOM      1  C   UNL     1       0.046   0.253   9.863  0.00  0.00    +0.076 C 
ATOM      2  C   UNL     1       0.090  -1.253   9.744  0.00  0.00    +0.145 C 
ATOM      3  N   UNL     1       0.030  -1.772  11.116  0.00  0.00    -0.279 N 
ATOM      4  C   UNL     1      -0.041  -0.722  11.953  0.00  0.00    +0.288 C 
ATOM      5  O   UNL     1      -0.103  -0.799  13.164  0.00  0.00    -0.266 OA
ATOM      6  C   UNL     1      -0.026   0.539  11.183  0.00  0.00    +0.249 C 
ATOM      7  O   UNL     1      -0.079   1.783  11.714  0.00  0.00    -0.282 OA
ENDROOT
BRANCH   2   8
ATOM      8  C   UNL     1      -1.093  -1.745   8.951  0.00  0.00    -0.022 A 
ATOM      9  C   UNL     1      -2.353  -1.749   9.520  0.00  0.00    +0.006 A 
ATOM     10  C   UNL     1      -3.438  -2.201   8.793  0.00  0.00    +0.000 A 
ATOM     11  C   UNL     1      -3.263  -2.648   7.496  0.00  0.00    +0.000 A 
ATOM     12  C   UNL     1      -2.004  -2.643   6.927  0.00  0.00    +0.000 A 
ATOM     13  C   UNL     1      -0.919  -2.187   7.653  0.00  0.00    +0.006 A 
ENDBRANCH   2   8
BRANCH   1  14
ATOM     14  C   UNL     1       0.081   1.218   8.759  0.00  0.00    +0.195 C 
ATOM     15  O   UNL     1      -0.886   1.922   8.535  0.00  0.00    -0.287 OA
BRANCH  14  19
ATOM     16  C   UNL     1       3.559   1.558   6.346  0.00  0.00    +0.121 A 
ATOM     17  C   UNL     1       2.429   2.308   6.042  0.00  0.00    +0.046 A 
ATOM     18  C   UNL     1       1.299   2.201   6.821  0.00  0.00    +0.015 A 
ATOM     19  C   UNL     1       1.290   1.336   7.920  0.00  0.00    +0.022 A 
ATOM     20  C   UNL     1       2.429   0.584   8.222  0.00  0.00    +0.015 A 
ATOM     21  C   UNL     1       3.553   0.693   7.434  0.00  0.00    +0.046 A 
BRANCH  16  22
ATOM     22  O   UNL     1       4.670   1.667   5.574  0.00  0.00    -0.487 OA
BRANCH  22  23
ATOM     23  C   UNL     1       4.609   2.574   4.472  0.00  0.00    +0.264 C 
BRANCH  23  30
ATOM     24  C   UNL     1       4.984   4.254   2.151  0.00  0.00    +0.044 C 
ATOM     25  C   UNL     1       6.104   3.365   2.626  0.00  0.00    -0.044 A 
ATOM     26  C   UNL     1       7.312   3.357   1.955  0.00  0.00    +0.004 A 
ATOM     27  C   UNL     1       8.339   2.541   2.391  0.00  0.00    +0.000 A 
ATOM     28  C   UNL     1       8.158   1.733   3.498  0.00  0.00    +0.000 A 
ATOM     29  C   UNL     1       6.950   1.742   4.170  0.00  0.00    +0.007 A 
ATOM     30  C   UNL     1       5.924   2.561   3.736  0.00  0.00    -0.007 A 
ENDBRANCH  23  30
ENDBRANCH  22  23
ENDBRANCH  16  22
ENDBRANCH  14  19
ENDBRANCH   1  14
BRANCH   3  31
ATOM     31  C   UNL     1       0.045  -3.185  11.503  0.00  0.00    +0.144 C 
BRANCH  31  32
ATOM     32  C   UNL     1       1.468  -3.634  11.712  0.00  0.00    -0.027 A 
ATOM     33  C   UNL     1       2.209  -4.155  10.662  0.00  0.00    +0.025 A 
ATOM     34  C   UNL     1       3.511  -4.557  10.890  0.00  0.00    +0.111 A 
ATOM     35  N   UNL     1       4.049  -4.450  12.089  0.00  0.00    -0.263 NA
ATOM     36  C   UNL     1       3.375  -3.960  13.111  0.00  0.00    +0.111 A 
ATOM     37  C   UNL     1       2.070  -3.532  12.957  0.00  0.00    +0.025 A 
ENDBRANCH  31  32
ENDBRANCH   3  31
TORSDOF 8
