REMARK  Name = ZINC08769723
REMARK  13 active torsions:
REMARK  status: ('A' for Active; 'I' for Inactive)
REMARK    1  A    between atoms: C_1  and  C_2
REMARK    2  A    between atoms: C_2  and  C_3
REMARK    3  A    between atoms: C_3  and  C_4
REMARK    4  A    between atoms: C_4  and  C_5
REMARK    5  A    between atoms: C_5  and  C_7
REMARK    6  A    between atoms: C_5  and  C_9
REMARK    7  A    between atoms: C_7  and  C_8
REMARK    8  A    between atoms: C_9  and  N_10
REMARK    9  A    between atoms: C_14  and  C_15
REMARK   10  A    between atoms: C_16  and  N_27
REMARK   11  A    between atoms: C_19  and  C_26
REMARK   12  A    between atoms: C_29  and  C_36
REMARK   13  A    between atoms: C_32  and  C_35
REMARK                            x       y       z     vdW  Elec       q    Type
REMARK                         _______ _______ _______ _____ _____    ______ ____
ROOT
ATOM      1  C   UNL     1      -0.425   2.401   3.989  0.00  0.00    +0.081 A 
ATOM      2  C   UNL     1       0.030   1.767   2.809  0.00  0.00    +0.136 A 
ATOM      3  N   UNL     1       1.131   1.029   2.847  0.00  0.00    -0.213 NA
ATOM      4  C   UNL     1       1.831   0.874   3.971  0.00  0.00    +0.145 A 
ATOM      5  C   UNL     1       2.994   0.084   3.949  0.00  0.00    -0.007 A 
ATOM      6  C   UNL     1       3.715  -0.084   5.094  0.00  0.00    +0.008 A 
ATOM      7  C   UNL     1       3.287   0.534   6.277  0.00  0.00    +0.019 A 
ATOM      8  C   UNL     1       2.166   1.290   6.280  0.00  0.00    +0.096 A 
ATOM      9  N   UNL     1       1.438   1.464   5.140  0.00  0.00    -0.267 N 
ATOM     10  C   UNL     1       0.324   2.226   5.178  0.00  0.00    +0.267 A 
ATOM     11  O   UNL     1      -0.032   2.754   6.217  0.00  0.00    -0.267 OA
ATOM     12  C   UNL     1       3.441  -0.573   2.669  0.00  0.00    +0.047 C 
ENDROOT
BRANCH   1  17
ATOM     13  N   UNL     1      -4.070   1.431   6.035  0.00  0.00    -0.255 N 
ATOM     14  C   UNL     1      -2.907   1.591   5.429  0.00  0.00    +0.258 C 
ATOM     15  O   UNL     1      -2.040   0.738   5.501  0.00  0.00    -0.269 OA
ATOM     16  C   UNL     1      -2.695   2.789   4.688  0.00  0.00    +0.077 C 
ATOM     17  C   UNL     1      -1.599   3.190   3.981  0.00  0.00    +0.037 C 
ATOM     18  S   UNL     1      -4.253   3.627   4.942  0.00  0.00    -0.061 S 
ATOM     19  C   UNL     1      -5.032   2.378   5.955  0.00  0.00    +0.121 C 
ATOM     20  S   UNL     1      -6.596   2.382   6.651  0.00  0.00    -0.027 S 
BRANCH  13  21
ATOM     21  C   UNL     1      -4.322   0.211   6.806  0.00  0.00    +0.118 C 
BRANCH  21  22
ATOM     22  C   UNL     1      -3.740   0.366   8.212  0.00  0.00    +0.007 C 
BRANCH  22  23
ATOM     23  C   UNL     1      -4.518   1.444   8.970  0.00  0.00    +0.002 C 
ATOM     24  C   UNL     1      -5.954   0.969   9.200  0.00  0.00    +0.004 C 
ENDBRANCH  22  23
BRANCH  22  25
ATOM     25  C   UNL     1      -3.851  -0.964   8.960  0.00  0.00    +0.005 C 
BRANCH  25  26
ATOM     26  C   UNL     1      -3.162  -0.843  10.320  0.00  0.00    +0.000 C 
BRANCH  26  28
ATOM     27  C   UNL     1      -2.470  -2.086  12.375  0.00  0.00    +0.004 C 
ATOM     28  C   UNL     1      -3.160  -2.207  11.014  0.00  0.00    -0.003 C 
ENDBRANCH  26  28
ENDBRANCH  25  26
ENDBRANCH  22  25
ENDBRANCH  21  22
ENDBRANCH  13  21
ENDBRANCH   1  17
BRANCH   2  29
ATOM     29  N   UNL     1      -0.668   1.910   1.631  0.00  0.00    -0.314 N 
ATOM     30  C   UNL     1      -1.582   0.781   1.420  0.00  0.00    +0.109 C 
ATOM     31  C   UNL     1      -2.443   1.044   0.182  0.00  0.00    +0.004 C 
ATOM     32  C   UNL     1      -1.534   1.224  -1.037  0.00  0.00    +0.009 C 
ATOM     33  C   UNL     1      -0.560   2.374  -0.772  0.00  0.00    +0.004 C 
ATOM     34  C   UNL     1       0.246   2.073   0.493  0.00  0.00    +0.109 C 
ATOM     35  C   UNL     1       0.392   2.522  -1.961  0.00  0.00    +0.009 C 
ATOM     36  C   UNL     1      -3.380  -0.143  -0.050  0.00  0.00    +0.009 C 
ENDBRANCH   2  29
TORSDOF 8
