REMARK  Name = ZINC51466516
REMARK  4 active torsions:
REMARK  status: ('A' for Active; 'I' for Inactive)
REMARK    1  A    between atoms: C_4  and  C_7
REMARK    2  A    between atoms: C_13  and  C_14
REMARK    3  A    between atoms: N_16  and  C_23
REMARK    4  A    between atoms: C_23  and  C_24
REMARK                            x       y       z     vdW  Elec       q    Type
REMARK                         _______ _______ _______ _____ _____    ______ ____
ROOT
ATOM      1  C   UNL     1       4.580  -3.026  -4.378  0.00  0.00    +0.130 C 
ATOM      2  N   UNL     1       4.739  -3.986  -3.499  0.00  0.00    -0.164 NA
ATOM      3  N   UNL     1       5.692  -3.891  -2.508  0.00  0.00    -0.153 N 
ATOM      4  C   UNL     1       6.012  -4.899  -1.573  0.00  0.00    +0.132 C 
ATOM      5  N   UNL     1       5.765  -6.168  -1.771  0.00  0.00    -0.385 N 
ATOM      6  C   UNL     1       6.658  -4.375  -0.339  0.00  0.00    +0.079 C 
ATOM      7  C   UNL     1       6.455  -4.965   0.896  0.00  0.00    +0.026 C 
ATOM      8  C   UNL     1       7.530  -3.189  -0.503  0.00  0.00    +0.273 C 
ATOM      9  O   UNL     1       8.430  -2.957   0.288  0.00  0.00    -0.268 OA
ATOM     10  N   UNL     1       7.300  -2.372  -1.550  0.00  0.00    -0.152 NA
ATOM     11  C   UNL     1       6.412  -2.717  -2.448  0.00  0.00    +0.181 C 
ATOM     12  S   UNL     1       5.811  -1.835  -3.865  0.00  0.00    -0.033 S 
ATOM     13  H   UNL     1       5.258  -6.447  -2.550  0.00  0.00    +0.157 HD
ATOM     14  H   UNL     1       6.089  -6.830  -1.140  0.00  0.00    +0.157 HD
ENDROOT
BRANCH   7  15
ATOM     15  C   UNL     1       5.496  -5.993   1.039  0.00  0.00    +0.001 A 
ATOM     16  C   UNL     1       4.275  -6.085   0.399  0.00  0.00    +0.095 A 
ATOM     17  N   UNL     1       3.643  -7.208   0.792  0.00  0.00    -0.342 N 
ATOM     18  C   UNL     1       4.409  -7.907   1.703  0.00  0.00    +0.050 A 
ATOM     19  C   UNL     1       5.601  -7.190   1.897  0.00  0.00    +0.007 A 
ATOM     20  C   UNL     1       6.571  -7.671   2.770  0.00  0.00    +0.010 A 
ATOM     21  C   UNL     1       6.359  -8.856   3.441  0.00  0.00    +0.001 A 
ATOM     22  C   UNL     1       5.184  -9.568   3.249  0.00  0.00    +0.002 A 
ATOM     23  C   UNL     1       4.212  -9.099   2.392  0.00  0.00    +0.026 A 
BRANCH  17  24
ATOM     24  C   UNL     1       2.322  -7.629   0.318  0.00  0.00    +0.157 C 
BRANCH  24  25
ATOM     25  C   UNL     1       1.272  -7.196   1.307  0.00  0.00    -0.020 A 
ATOM     26  C   UNL     1       0.852  -8.053   2.278  0.00  0.00    +0.006 A 
ATOM     27  C   UNL     1      -0.119  -7.670   3.202  0.00  0.00    +0.001 A 
ATOM     28  C   UNL     1      -0.676  -6.429   3.160  0.00  0.00    +0.008 A 
ATOM     29  C   UNL     1      -0.268  -5.517   2.172  0.00  0.00    -0.018 A 
ATOM     30  C   UNL     1       0.724  -5.904   1.236  0.00  0.00    -0.013 A 
ATOM     31  C   UNL     1       1.136  -4.990   0.252  0.00  0.00    +0.009 A 
ATOM     32  C   UNL     1       0.584  -3.747   0.213  0.00  0.00    +0.001 A 
ATOM     33  C   UNL     1      -0.387  -3.364   1.138  0.00  0.00    +0.001 A 
ATOM     34  C   UNL     1      -0.820  -4.227   2.097  0.00  0.00    +0.008 A 
ENDBRANCH  24  25
ENDBRANCH  17  24
ENDBRANCH   7  15
BRANCH   1  38
ATOM     35  C   UNL     1       1.849  -2.807  -7.625  0.00  0.00    +0.000 A 
ATOM     36  C   UNL     1       2.655  -1.723  -7.329  0.00  0.00    +0.001 A 
ATOM     37  C   UNL     1       3.544  -1.787  -6.276  0.00  0.00    +0.010 A 
ATOM     38  C   UNL     1       3.628  -2.950  -5.508  0.00  0.00    +0.009 A 
ATOM     39  C   UNL     1       2.813  -4.040  -5.812  0.00  0.00    +0.010 A 
ATOM     40  C   UNL     1       1.928  -3.963  -6.869  0.00  0.00    +0.001 A 
ENDBRANCH   1  38
TORSDOF 4
