REMARK  Name = ZINC32637879
REMARK  7 active torsions:
REMARK  status: ('A' for Active; 'I' for Inactive)
REMARK    1  A    between atoms: C_3  and  C_13
REMARK    2  A    between atoms: C_13  and  N_14
REMARK    3  A    between atoms: C_15  and  C_17
REMARK    4  A    between atoms: C_17  and  C_18
REMARK    5  A    between atoms: C_18  and  C_19
REMARK    6  A    between atoms: C_19  and  C_20
REMARK    7  A    between atoms: C_22  and  C_25
REMARK                            x       y       z     vdW  Elec       q    Type
REMARK                         _______ _______ _______ _____ _____    ______ ____
ROOT
ATOM      1  N   UNL     1       4.196   2.448  -0.983  0.00  0.00    -0.311 N 
ATOM      2  C   UNL     1       5.336   3.161  -1.079  0.00  0.00    +0.213 C 
ATOM      3  O   UNL     1       5.810   3.682  -0.092  0.00  0.00    -0.276 OA
ATOM      4  H   UNL     1       3.817   2.031  -1.773  0.00  0.00    +0.149 HD
ENDROOT
BRANCH   1   5
ATOM      5  C   UNL     1       3.529   2.304   0.313  0.00  0.00    +0.143 C 
BRANCH   5   8
ATOM      6  C   UNL     1      -0.079   1.256  -0.042  0.00  0.00    +0.018 A 
ATOM      7  C   UNL     1       1.039   2.065   0.113  0.00  0.00    +0.010 A 
ATOM      8  C   UNL     1       2.286   1.468   0.148  0.00  0.00    +0.008 A 
ATOM      9  C   UNL     1       2.377   0.085   0.029  0.00  0.00    +0.104 A 
ATOM     10  N   UNL     1       1.287  -0.652  -0.117  0.00  0.00    -0.349 N 
ATOM     11  C   UNL     1       0.085  -0.110  -0.154  0.00  0.00    +0.084 A 
ATOM     12  N   UNL     1       3.624  -0.529   0.062  0.00  0.00    -0.312 N 
ATOM     13  C   UNL     1       4.232  -0.940   1.337  0.00  0.00    +0.134 C 
ATOM     14  C   UNL     1       4.677  -2.402   1.212  0.00  0.00    +0.178 C 
ATOM     15  O   UNL     1       5.490  -2.548   0.045  0.00  0.00    -0.377 OA
ATOM     16  C   UNL     1       4.813  -2.256  -1.180  0.00  0.00    +0.178 C 
ATOM     17  C   UNL     1       4.372  -0.792  -1.177  0.00  0.00    +0.134 C 
ATOM     18  H   UNL     1       1.374  -1.615  -0.199  0.00  0.00    +0.167 HD
ENDBRANCH   5   8
ENDBRANCH   1   5
BRANCH   2  19
ATOM     19  C   UNL     1       6.022   3.309  -2.413  0.00  0.00    +0.096 C 
BRANCH  19  20
ATOM     20  C   UNL     1       7.284   4.158  -2.245  0.00  0.00    +0.019 C 
BRANCH  20  21
ATOM     21  C   UNL     1       7.981   4.309  -3.599  0.00  0.00    +0.099 C 
BRANCH  21  22
ATOM     22  C   UNL     1       9.224   5.145  -3.434  0.00  0.00    +0.228 A 
ATOM     23  N   UNL     1      10.415   4.692  -3.164  0.00  0.00    -0.191 NA
ATOM     24  C   UNL     1      11.289   5.712  -3.086  0.00  0.00    +0.202 A 
ATOM     25  N   UNL     1      10.646   6.832  -3.310  0.00  0.00    -0.056 NA
ATOM     26  O   UNL     1       9.291   6.478  -3.546  0.00  0.00    -0.338 OA
BRANCH  24  27
ATOM     27  C   UNL     1      12.739   5.590  -2.796  0.00  0.00    +0.023 A 
ATOM     28  C   UNL     1      13.305   4.335  -2.580  0.00  0.00    +0.014 A 
ATOM     29  C   UNL     1      14.653   4.225  -2.311  0.00  0.00    +0.039 A 
ATOM     30  C   UNL     1      15.445   5.361  -2.254  0.00  0.00    +0.123 A 
ATOM     31  C   UNL     1      14.886   6.611  -2.467  0.00  0.00    +0.039 A 
ATOM     32  C   UNL     1      13.539   6.729  -2.743  0.00  0.00    +0.014 A 
ATOM     33  F   UNL     1      16.765   5.250  -1.990  0.00  0.00    -0.205 F 
ENDBRANCH  24  27
ENDBRANCH  21  22
ENDBRANCH  20  21
ENDBRANCH  19  20
ENDBRANCH   2  19
TORSDOF 7
