REMARK  Name = ZINC04885363
REMARK  8 active torsions:
REMARK  status: ('A' for Active; 'I' for Inactive)
REMARK    1  A    between atoms: C_1  and  C_2
REMARK    2  A    between atoms: C_2  and  C_3
REMARK    3  A    between atoms: C_3  and  C_4
REMARK    4  A    between atoms: C_4  and  C_28
REMARK    5  A    between atoms: C_9  and  C_11
REMARK    6  A    between atoms: N_18  and  C_21
REMARK    7  A    between atoms: C_28  and  O_30
REMARK    8  A    between atoms: O_30  and  C_31
REMARK                            x       y       z     vdW  Elec       q    Type
REMARK                         _______ _______ _______ _____ _____    ______ ____
ROOT
ATOM      1  C   UNL     1      -3.012   6.362  -0.277  0.00  0.00    +0.044 C 
ATOM      2  C   UNL     1      -2.968   6.148   1.250  0.00  0.00    +0.086 C 
ATOM      3  C   UNL     1      -2.529   4.670   1.433  0.00  0.00    +0.078 C 
ATOM      4  C   UNL     1      -2.349   4.131  -0.002  0.00  0.00    -0.020 C 
ATOM      5  C   UNL     1      -1.173   4.787   2.093  0.00  0.00    +0.229 C 
ATOM      6  O   UNL     1      -0.469   3.856   2.417  0.00  0.00    -0.275 OA
ATOM      7  N   UNL     1      -0.874   6.080   2.266  0.00  0.00    -0.210 N 
ATOM      8  C   UNL     1      -1.810   6.930   1.829  0.00  0.00    +0.229 C 
ATOM      9  O   UNL     1      -1.741   8.139   1.888  0.00  0.00    -0.275 OA
ATOM     10  N   UNL     1      -2.114   5.334  -0.801  0.00  0.00    +0.396 N 
ATOM     11  H   UNL     1      -1.136   5.636  -0.709  0.00  0.00    -0.083 HD
ATOM     12  H   UNL     1      -2.323   5.150  -1.789  0.00  0.00    -0.083 HD
ENDROOT
BRANCH   7  13
ATOM     13  C   UNL     1       0.324   6.509   2.857  0.00  0.00    +0.044 A 
ATOM     14  C   UNL     1       1.273   7.179   2.098  0.00  0.00    +0.027 A 
ATOM     15  C   UNL     1       2.449   7.606   2.683  0.00  0.00    +0.040 A 
ATOM     16  C   UNL     1       2.687   7.355   4.024  0.00  0.00    +0.124 A 
ATOM     17  C   UNL     1       1.744   6.681   4.782  0.00  0.00    +0.040 A 
ATOM     18  C   UNL     1       0.564   6.258   4.201  0.00  0.00    +0.027 A 
ATOM     19  F   UNL     1       3.840   7.768   4.593  0.00  0.00    -0.205 F 
ENDBRANCH   7  13
BRANCH   4  20
ATOM     20  C   UNL     1      -1.175   3.189  -0.065  0.00  0.00    -0.023 A 
ATOM     21  C   UNL     1      -1.169   1.835  -0.124  0.00  0.00    +0.009 A 
ATOM     22  C   UNL     1       0.042   1.171  -0.171  0.00  0.00    +0.008 A 
ATOM     23  C   UNL     1       1.188   1.894  -0.168  0.00  0.00    +0.045 A 
ATOM     24  S   UNL     1       0.570   3.566  -0.089  0.00  0.00    -0.103 S 
ENDBRANCH   4  20
BRANCH   1  25
ATOM     25  C   UNL     1      -4.410   6.146  -0.797  0.00  0.00    +0.297 C 
ATOM     26  O   UNL     1      -5.360   6.353  -0.080  0.00  0.00    -0.252 OA
BRANCH  25  27
ATOM     27  O   UNL     1      -4.599   5.723  -2.057  0.00  0.00    -0.469 OA
ATOM     28  C   UNL     1      -5.972   5.535  -2.490  0.00  0.00    +0.280 C 
ENDBRANCH  25  27
ENDBRANCH   1  25
BRANCH   1  29
ATOM     29  C   UNL     1      -2.522   7.767  -0.632  0.00  0.00    -0.001 C 
BRANCH  29  31
ATOM     30  C   UNL     1      -2.007   9.334  -2.509  0.00  0.00    +0.004 C 
ATOM     31  C   UNL     1      -2.497   7.929  -2.154  0.00  0.00    -0.004 C 
ENDBRANCH  29  31
ENDBRANCH   1  29
TORSDOF 6
