REMARK  Name = ZINC02260361
REMARK  8 active torsions:
REMARK  status: ('A' for Active; 'I' for Inactive)
REMARK    1  A    between atoms: C_1  and  C_2
REMARK    2  A    between atoms: C_2  and  C_3
REMARK    3  A    between atoms: C_6  and  N_9
REMARK    4  A    between atoms: C_13  and  C_14
REMARK    5  A    between atoms: N_18  and  C_19
REMARK    6  A    between atoms: C_19  and  C_20
REMARK    7  A    between atoms: C_20  and  O_21
REMARK    8  A    between atoms: O_21  and  C_22
REMARK                            x       y       z     vdW  Elec       q    Type
REMARK                         _______ _______ _______ _____ _____    ______ ____
ROOT
ATOM      1  N   UNL     1       2.884  -2.693  -4.433  0.00  0.00    -0.188 N 
ATOM      2  C   UNL     1       4.209  -2.478  -4.585  0.00  0.00    +0.264 C 
ATOM      3  O   UNL     1       4.866  -1.960  -3.701  0.00  0.00    -0.269 OA
ATOM      4  C   UNL     1       4.833  -2.889  -5.854  0.00  0.00    +0.103 C 
ATOM      5  C   UNL     1       6.195  -2.699  -6.084  0.00  0.00    +0.044 C 
ATOM      6  C   UNL     1       3.994  -3.487  -6.836  0.00  0.00    +0.276 C 
ATOM      7  O   UNL     1       4.505  -3.887  -8.020  0.00  0.00    -0.268 OA
ATOM      8  N   UNL     1       2.708  -3.647  -6.572  0.00  0.00    -0.123 NA
ATOM      9  C   UNL     1       2.171  -3.271  -5.414  0.00  0.00    +0.340 C 
ATOM     10  O   UNL     1       0.980  -3.454  -5.238  0.00  0.00    -0.250 OA
ENDROOT
BRANCH   1  14
ATOM     11  C   UNL     1       0.997  -1.575  -0.889  0.00  0.00    -0.048 A 
ATOM     12  C   UNL     1       1.091  -0.675  -1.935  0.00  0.00    +0.005 A 
ATOM     13  C   UNL     1       1.716  -1.043  -3.110  0.00  0.00    +0.024 A 
ATOM     14  C   UNL     1       2.250  -2.317  -3.242  0.00  0.00    +0.046 A 
ATOM     15  C   UNL     1       2.155  -3.219  -2.190  0.00  0.00    +0.024 A 
ATOM     16  C   UNL     1       1.533  -2.844  -1.015  0.00  0.00    +0.005 A 
BRANCH  11  18
ATOM     17  C   UNL     1       1.342  -0.554   1.344  0.00  0.00    +0.009 C 
ATOM     18  C   UNL     1       0.315  -1.171   0.392  0.00  0.00    +0.032 C 
ENDBRANCH  11  18
ENDBRANCH   1  14
BRANCH   5  19
ATOM     19  C   UNL     1       6.739  -2.982  -7.346  0.00  0.00    +0.043 A 
ATOM     20  C   UNL     1       7.742  -3.906  -7.624  0.00  0.00    +0.027 A 
ATOM     21  C   UNL     1       7.968  -3.856  -8.998  0.00  0.00    +0.020 A 
ATOM     22  C   UNL     1       7.126  -2.930  -9.528  0.00  0.00    +0.086 A 
ATOM     23  N   UNL     1       6.375  -2.398  -8.543  0.00  0.00    -0.344 N 
BRANCH  23  24
ATOM     24  C   UNL     1       5.345  -1.371  -8.714  0.00  0.00    +0.162 C 
BRANCH  24  25
ATOM     25  C   UNL     1       5.931   0.001  -8.372  0.00  0.00    +0.250 C 
BRANCH  25  26
ATOM     26  O   UNL     1       4.923   1.002  -8.527  0.00  0.00    -0.489 OA
BRANCH  26  27
ATOM     27  C   UNL     1       5.282   2.285  -8.261  0.00  0.00    +0.139 A 
ATOM     28  C   UNL     1       6.579   2.576  -7.864  0.00  0.00    +0.048 A 
ATOM     29  C   UNL     1       6.942   3.881  -7.593  0.00  0.00    +0.023 A 
ATOM     30  C   UNL     1       6.014   4.899  -7.718  0.00  0.00    +0.043 A 
ATOM     31  C   UNL     1       4.719   4.612  -8.114  0.00  0.00    +0.043 A 
ATOM     32  C   UNL     1       4.353   3.308  -8.391  0.00  0.00    +0.084 A 
ATOM     33 CL   UNL     1       2.731   2.950  -8.895  0.00  0.00    -0.080 Cl
ATOM     34 CL   UNL     1       6.473   6.538  -7.376  0.00  0.00    -0.083 Cl
ENDBRANCH  26  27
ENDBRANCH  25  26
ENDBRANCH  24  25
ENDBRANCH  23  24
ENDBRANCH   5  19
TORSDOF 7
