REMARK  Name = ZINC16652983
REMARK  9 active torsions:
REMARK  status: ('A' for Active; 'I' for Inactive)
REMARK    1  A    between atoms: C_3  and  C_6
REMARK    2  A    between atoms: C_6  and  N_7
REMARK    3  A    between atoms: N_7  and  C_8
REMARK    4  A    between atoms: C_8  and  C_9
REMARK    5  A    between atoms: C_18  and  C_20
REMARK    6  A    between atoms: C_20  and  N_21
REMARK    7  A    between atoms: N_21  and  C_22
REMARK    8  A    between atoms: C_22  and  C_23
REMARK    9  A    between atoms: N_31  and  C_32
REMARK                            x       y       z     vdW  Elec       q    Type
REMARK                         _______ _______ _______ _____ _____    ______ ____
ROOT
ATOM      1  N   UNL     1      -2.207   2.177   1.811  0.00  0.00    -0.289 N 
ATOM      2  C   UNL     1      -1.730   3.330   2.319  0.00  0.00    +0.234 C 
ATOM      3  O   UNL     1      -1.104   4.091   1.611  0.00  0.00    -0.274 OA
ENDROOT
BRANCH   1   4
ATOM      4  C   UNL     1      -2.963   1.258   2.665  0.00  0.00    +0.182 C 
BRANCH   4   7
ATOM      5  C   UNL     1      -0.609  -0.690   4.727  0.00  0.00    +0.041 A 
ATOM      6  C   UNL     1      -1.396   0.463   4.500  0.00  0.00    +0.046 A 
ATOM      7  C   UNL     1      -2.015   0.285   3.319  0.00  0.00    +0.122 A 
ATOM      8  O   UNL     1      -1.641  -0.904   2.818  0.00  0.00    -0.466 OA
ATOM      9  C   UNL     1      -0.789  -1.500   3.668  0.00  0.00    +0.195 A 
ENDBRANCH   4   7
ENDBRANCH   1   4
BRANCH   1  10
ATOM     10  C   UNL     1      -1.969   1.842   0.405  0.00  0.00    +0.143 C 
BRANCH  10  11
ATOM     11  C   UNL     1      -0.681   1.069   0.283  0.00  0.00    -0.026 A 
ATOM     12  C   UNL     1       0.510   1.742   0.079  0.00  0.00    +0.009 A 
ATOM     13  C   UNL     1       1.694   1.038  -0.039  0.00  0.00    +0.050 A 
ATOM     14  C   UNL     1       1.689  -0.345   0.048  0.00  0.00    +0.166 A 
ATOM     15  C   UNL     1       0.490  -1.022   0.253  0.00  0.00    +0.167 A 
ATOM     16  C   UNL     1      -0.693  -0.310   0.370  0.00  0.00    +0.054 A 
ATOM     17  O   UNL     1       0.748  -2.362   0.300  0.00  0.00    -0.453 OA
ATOM     18  C   UNL     1       2.165  -2.473   0.531  0.00  0.00    +0.466 C 
ATOM     19  O   UNL     1       2.699  -1.260  -0.034  0.00  0.00    -0.453 OA
ENDBRANCH  10  11
ENDBRANCH   1  10
BRANCH   2  20
ATOM     20  C   UNL     1      -1.975   3.675   3.765  0.00  0.00    +0.205 C 
BRANCH  20  21
ATOM     21  N   UNL     1      -1.360   4.970   4.069  0.00  0.00    -0.274 N 
ATOM     22  C   UNL     1      -2.069   6.105   3.913  0.00  0.00    +0.307 C 
ATOM     23  O   UNL     1      -3.219   6.055   3.520  0.00  0.00    -0.252 OA
ATOM     24  N   UNL     1      -1.504   7.297   4.193  0.00  0.00    -0.269 N 
ATOM     25  H   UNL     1      -0.615   7.333   4.579  0.00  0.00    +0.156 HD
BRANCH  24  26
ATOM     26  C   UNL     1      -2.200   8.482   3.926  0.00  0.00    +0.035 A 
ATOM     27  C   UNL     1      -3.056   8.555   2.835  0.00  0.00    +0.025 A 
ATOM     28  C   UNL     1      -3.745   9.723   2.577  0.00  0.00    +0.022 A 
ATOM     29  C   UNL     1      -3.575  10.824   3.398  0.00  0.00    +0.041 A 
ATOM     30  C   UNL     1      -2.719  10.756   4.483  0.00  0.00    +0.022 A 
ATOM     31  C   UNL     1      -2.031   9.588   4.748  0.00  0.00    +0.025 A 
ATOM     32 CL   UNL     1      -4.438  12.294   3.067  0.00  0.00    -0.084 Cl
ENDBRANCH  24  26
BRANCH  21  33
ATOM     33  C   UNL     1       0.024   5.030   4.544  0.00  0.00    +0.141 C 
BRANCH  33  34
ATOM     34  C   UNL     1       0.969   5.152   3.346  0.00  0.00    +0.136 C 
ATOM     35  C   UNL     1       2.429   5.216   3.834  0.00  0.00    +0.035 C 
ATOM     36  C   UNL     1       3.113   4.011   3.145  0.00  0.00    +0.031 C 
ATOM     37  C   UNL     1       2.158   3.731   1.957  0.00  0.00    +0.160 C 
ATOM     38  O   UNL     1       0.849   3.990   2.509  0.00  0.00    -0.375 OA
ENDBRANCH  33  34
ENDBRANCH  21  33
ENDBRANCH  20  21
ENDBRANCH   2  20
TORSDOF 9
