REMARK  Name = ZINC64327745
REMARK  3 active torsions:
REMARK  status: ('A' for Active; 'I' for Inactive)
REMARK    1  A    between atoms: C_1  and  C_2
REMARK    2  A    between atoms: C_4  and  N_9
REMARK    3  A    between atoms: C_12  and  C_15
REMARK                            x       y       z     vdW  Elec       q    Type
REMARK                         _______ _______ _______ _____ _____    ______ ____
ROOT
ATOM      1  N   UNL     1       0.030  -2.826  -2.330  0.00  0.00    -0.315 N 
ATOM      2  C   UNL     1       0.044  -4.295  -2.294  0.00  0.00    +0.107 C 
ATOM      3  C   UNL     1       1.214  -4.798  -3.146  0.00  0.00    +0.028 C 
ATOM      4  C   UNL     1       1.108  -4.204  -4.553  0.00  0.00    +0.039 C 
ATOM      5  C   UNL     1       1.189  -2.678  -4.472  0.00  0.00    +0.028 C 
ATOM      6  C   UNL     1       0.013  -2.152  -3.635  0.00  0.00    +0.107 C 
ENDROOT
BRANCH   1  10
ATOM      7  C   UNL     1      -0.455   1.463   0.034  0.00  0.00    +0.066 C 
ATOM      8  C   UNL     1      -0.206  -0.023   0.013  0.00  0.00    +0.045 A 
ATOM      9  C   UNL     1      -0.211  -0.715  -1.182  0.00  0.00    +0.066 A 
ATOM     10  C   UNL     1       0.026  -2.091  -1.156  0.00  0.00    +0.127 A 
ATOM     11  N   UNL     1       0.246  -2.686   0.012  0.00  0.00    -0.200 NA
ATOM     12  C   UNL     1       0.242  -1.986   1.137  0.00  0.00    +0.214 A 
ATOM     13  N   UNL     1       0.026  -0.679   1.141  0.00  0.00    -0.220 NA
ATOM     14  N   UNL     1       0.475  -2.635   2.336  0.00  0.00    -0.327 N 
ATOM     15  H   UNL     1       0.638  -3.591   2.347  0.00  0.00    +0.145 HD
ATOM     16  H   UNL     1       0.475  -2.134   3.167  0.00  0.00    +0.145 HD
ENDBRANCH   1  10
BRANCH   4  17
ATOM     17  C   UNL     1       2.238  -4.723  -5.403  0.00  0.00    +0.050 C 
ATOM     18  N   UNL     1       3.218  -5.474  -5.022  0.00  0.00    -0.158 NA
ATOM     19  N   UNL     1       4.093  -5.774  -6.061  0.00  0.00    -0.162 NA
ATOM     20  C   UNL     1       3.733  -5.236  -7.180  0.00  0.00    +0.113 C 
ATOM     21  C   UNL     1       2.455  -4.477  -6.883  0.00  0.00    +0.102 C 
ENDBRANCH   4  17
TORSDOF 2
