REMARK  Name = ZINC34685753
REMARK  10 active torsions:
REMARK  status: ('A' for Active; 'I' for Inactive)
REMARK    1  A    between atoms: C_1  and  C_2
REMARK    2  A    between atoms: C_2  and  C_3
REMARK    3  A    between atoms: C_2  and  C_4
REMARK    4  A    between atoms: C_2  and  C_5
REMARK    5  A    between atoms: C_13  and  O_24
REMARK    6  A    between atoms: C_16  and  C_18
REMARK    7  A    between atoms: O_24  and  C_25
REMARK    8  A    between atoms: C_25  and  C_26
REMARK    9  A    between atoms: C_29  and  C_31
REMARK   10  A    between atoms: N_36  and  C_39
REMARK                            x       y       z     vdW  Elec       q    Type
REMARK                         _______ _______ _______ _____ _____    ______ ____
ROOT
ATOM      1  C   UNL     1       0.162  -0.213  -0.790  0.00  0.00    +0.222 C 
ATOM      2  O   UNL     1       0.708   0.609  -1.495  0.00  0.00    -0.275 OA
ATOM      3  N   UNL     1       0.239  -1.523  -1.098  0.00  0.00    -0.290 N 
ATOM      4  C   UNL     1      -0.329  -2.552  -0.211  0.00  0.00    +0.113 C 
ATOM      5  C   UNL     1      -1.461  -3.248  -0.965  0.00  0.00    +0.054 C 
ATOM      6  C   UNL     1      -1.025  -3.628  -2.356  0.00  0.00    -0.040 A 
ATOM      7  C   UNL     1      -1.750  -4.619  -3.009  0.00  0.00    +0.007 A 
ATOM      8  C   UNL     1      -1.413  -5.010  -4.287  0.00  0.00    +0.046 A 
ATOM      9  C   UNL     1      -0.340  -4.409  -4.931  0.00  0.00    +0.121 A 
ATOM     10  C   UNL     1       0.384  -3.425  -4.279  0.00  0.00    +0.051 A 
ATOM     11  C   UNL     1       0.045  -3.038  -2.991  0.00  0.00    -0.016 A 
ATOM     12  C   UNL     1       0.886  -1.979  -2.332  0.00  0.00    +0.137 C 
ENDROOT
BRANCH  12  13
ATOM     13  C   UNL     1       2.241  -2.554  -2.005  0.00  0.00    -0.023 A 
ATOM     14  C   UNL     1       3.385  -1.932  -2.469  0.00  0.00    +0.006 A 
ATOM     15  C   UNL     1       4.628  -2.459  -2.169  0.00  0.00    +0.000 A 
ATOM     16  C   UNL     1       4.726  -3.607  -1.405  0.00  0.00    +0.000 A 
ATOM     17  C   UNL     1       3.581  -4.228  -0.941  0.00  0.00    +0.000 A 
ATOM     18  C   UNL     1       2.339  -3.699  -1.237  0.00  0.00    +0.006 A 
ENDBRANCH  12  13
BRANCH   1  20
ATOM     19  C   UNL     1      -0.655   1.759   0.472  0.00  0.00    +0.020 C 
ATOM     20  C   UNL     1      -0.603   0.231   0.430  0.00  0.00    +0.039 C 
ATOM     21  C   UNL     1       0.095  -0.291   1.688  0.00  0.00    +0.020 C 
ATOM     22  C   UNL     1      -2.027  -0.326   0.370  0.00  0.00    +0.020 C 
ENDBRANCH   1  20
BRANCH   9  23
ATOM     23  O   UNL     1      -0.003  -4.784  -6.192  0.00  0.00    -0.484 OA
BRANCH  23  24
ATOM     24  C   UNL     1      -0.796  -5.806  -6.799  0.00  0.00    +0.303 C 
BRANCH  24  25
ATOM     25  C   UNL     1      -0.277  -6.088  -8.185  0.00  0.00    +0.143 A 
ATOM     26  C   UNL     1       0.664  -7.005  -8.502  0.00  0.00    +0.049 A 
ATOM     27  C   UNL     1       0.851  -6.943  -9.892  0.00  0.00    +0.055 A 
ATOM     28  C   UNL     1       0.003  -5.980 -10.359  0.00  0.00    +0.190 A 
ATOM     29  O   UNL     1      -0.676  -5.476  -9.307  0.00  0.00    -0.452 OA
BRANCH  28  30
ATOM     30  C   UNL     1      -0.145  -5.568 -11.758  0.00  0.00    +0.282 C 
ATOM     31  O   UNL     1       0.440  -6.174 -12.636  0.00  0.00    -0.267 OA
ATOM     32  N   UNL     1      -0.931  -4.518 -12.072  0.00  0.00    -0.299 N 
ATOM     33  C   UNL     1      -1.528  -3.679 -11.021  0.00  0.00    +0.089 C 
ATOM     34  C   UNL     1      -1.229  -2.212 -11.343  0.00  0.00    -0.060 C 
ATOM     35  N   UNL     1      -1.694  -1.905 -12.701  0.00  0.00    +0.380 N 
ATOM     36  C   UNL     1      -0.930  -2.687 -13.681  0.00  0.00    -0.060 C 
ATOM     37  C   UNL     1      -1.210  -4.175 -13.475  0.00  0.00    +0.089 C 
ATOM     38  C   UNL     1      -1.507  -0.472 -12.969  0.00  0.00    -0.096 C 
ATOM     39  H   UNL     1      -2.674  -2.134 -12.780  0.00  0.00    -0.082 HD
ENDBRANCH  28  30
ENDBRANCH  24  25
ENDBRANCH  23  24
ENDBRANCH   9  23
TORSDOF 6
