REMARK  Name = ZINC00997665
REMARK  14 active torsions:
REMARK  status: ('A' for Active; 'I' for Inactive)
REMARK    1  A    between atoms: C_1  and  C_2
REMARK    2  A    between atoms: C_2  and  O_3
REMARK    3  A    between atoms: O_3  and  C_4
REMARK    4  A    between atoms: C_4  and  C_6
REMARK    5  A    between atoms: C_7  and  C_37
REMARK    6  A    between atoms: C_14  and  C_15
REMARK    7  A    between atoms: C_18  and  O_23
REMARK    8  A    between atoms: C_19  and  O_21
REMARK    9  A    between atoms: O_21  and  C_22
REMARK   10  A    between atoms: C_25  and  C_27
REMARK   11  A    between atoms: C_30  and  O_35
REMARK   12  A    between atoms: C_32  and  O_33
REMARK   13  A    between atoms: O_33  and  C_34
REMARK   14  A    between atoms: O_35  and  C_36
REMARK                            x       y       z     vdW  Elec       q    Type
REMARK                         _______ _______ _______ _____ _____    ______ ____
ROOT
ATOM      1  C   UNL     1      -2.437  -6.854  -0.555  0.00  0.00    +0.085 C 
ATOM      2  C   UNL     1      -1.074  -6.933  -0.491  0.00  0.00    +0.053 C 
ATOM      3  N   UNL     1      -0.342  -5.840  -0.317  0.00  0.00    -0.228 NA
ATOM      4  C   UNL     1      -0.825  -4.629  -0.194  0.00  0.00    +0.178 A 
ATOM      5  N   UNL     1      -2.167  -4.328  -0.230  0.00  0.00    -0.275 N 
ATOM      6  C   UNL     1      -2.542  -3.050  -0.087  0.00  0.00    +0.268 A 
ATOM      7  O   UNL     1      -3.718  -2.736  -0.106  0.00  0.00    -0.266 OA
ATOM      8  C   UNL     1      -1.492  -2.038   0.089  0.00  0.00    +0.081 A 
ATOM      9  C   UNL     1      -1.606  -0.694   0.250  0.00  0.00    +0.028 C 
ATOM     10  S   UNL     1      -0.024  -3.055   0.043  0.00  0.00    -0.046 S 
ATOM     11  C   UNL     1      -3.078  -5.491  -0.422  0.00  0.00    +0.165 C 
ATOM     12  C   UNL     1      -0.397  -8.273  -0.619  0.00  0.00    +0.066 C 
ENDROOT
BRANCH   9  13
ATOM     13  C   UNL     1      -0.405   0.150   0.250  0.00  0.00    -0.020 A 
ATOM     14  C   UNL     1       0.802  -0.346  -0.258  0.00  0.00    +0.012 A 
ATOM     15  C   UNL     1       1.928   0.448  -0.257  0.00  0.00    +0.050 A 
ATOM     16  C   UNL     1       1.869   1.741   0.246  0.00  0.00    +0.158 A 
ATOM     17  C   UNL     1       0.671   2.243   0.754  0.00  0.00    +0.162 A 
ATOM     18  C   UNL     1      -0.462   1.454   0.757  0.00  0.00    +0.057 A 
BRANCH  17  19
ATOM     19  O   UNL     1       0.619   3.510   1.246  0.00  0.00    -0.491 OA
ATOM     20  C   UNL     1      -0.641   3.959   1.749  0.00  0.00    +0.277 C 
ENDBRANCH  17  19
BRANCH  16  21
ATOM     21  O   UNL     1       2.982   2.520   0.244  0.00  0.00    -0.503 OA
ATOM     22  H   UNL     1       3.091   3.048  -0.559  0.00  0.00    +0.292 HD
ENDBRANCH  16  21
ENDBRANCH   9  13
BRANCH  11  23
ATOM     23  C   UNL     1      -4.025  -5.536   0.749  0.00  0.00    +0.022 A 
ATOM     24  C   UNL     1      -5.390  -5.564   0.533  0.00  0.00    +0.013 A 
ATOM     25  C   UNL     1      -6.261  -5.606   1.604  0.00  0.00    +0.046 A 
ATOM     26  C   UNL     1      -5.767  -5.620   2.901  0.00  0.00    +0.124 A 
ATOM     27  C   UNL     1      -4.399  -5.593   3.121  0.00  0.00    +0.091 A 
ATOM     28  C   UNL     1      -3.526  -5.556   2.044  0.00  0.00    +0.129 A 
BRANCH  28  29
ATOM     29  O   UNL     1      -2.184  -5.535   2.256  0.00  0.00    -0.495 OA
ATOM     30  C   UNL     1      -1.739  -5.661   3.608  0.00  0.00    +0.277 C 
ENDBRANCH  28  29
BRANCH  26  31
ATOM     31  O   UNL     1      -6.624  -5.661   3.955  0.00  0.00    -0.495 OA
ATOM     32  C   UNL     1      -8.021  -5.687   3.654  0.00  0.00    +0.277 C 
ENDBRANCH  26  31
ENDBRANCH  11  23
BRANCH   1  33
ATOM     33  C   UNL     1      -3.220  -8.005  -0.739  0.00  0.00    +0.339 C 
ATOM     34  O   UNL     1      -2.696  -9.104  -0.743  0.00  0.00    -0.245 OA
BRANCH  33  35
ATOM     35  O   UNL     1      -4.556  -7.893  -0.911  0.00  0.00    -0.462 OA
BRANCH  35  37
ATOM     36  C   UNL     1      -6.767  -8.789  -1.297  0.00  0.00    +0.048 C 
ATOM     37  C   UNL     1      -5.304  -9.108  -0.981  0.00  0.00    +0.229 C 
ENDBRANCH  35  37
ENDBRANCH  33  35
ENDBRANCH   1  33
TORSDOF 9
