REMARK  Name = ZINC27314099
REMARK  11 active torsions:
REMARK  status: ('A' for Active; 'I' for Inactive)
REMARK    1  A    between atoms: C_1  and  C_2
REMARK    2  A    between atoms: C_5  and  C_8
REMARK    3  A    between atoms: C_8  and  N_9
REMARK    4  A    between atoms: C_10  and  C_12
REMARK    5  A    between atoms: C_17  and  N_18
REMARK    6  A    between atoms: C_19  and  C_21
REMARK    7  A    between atoms: C_21  and  O_22
REMARK    8  A    between atoms: O_22  and  C_23
REMARK    9  A    between atoms: C_23  and  C_25
REMARK   10  A    between atoms: C_28  and  N_32
REMARK   11  A    between atoms: C_30  and  N_31
REMARK                            x       y       z     vdW  Elec       q    Type
REMARK                         _______ _______ _______ _____ _____    ______ ____
ROOT
ATOM      1  N   UNL     1       2.762  -9.372   1.468  0.00  0.00    -0.282 N 
ATOM      2  C   UNL     1       2.874 -10.560   0.840  0.00  0.00    +0.255 C 
ATOM      3  O   UNL     1       3.959 -10.942   0.456  0.00  0.00    -0.272 OA
ATOM      4  H   UNL     1       1.911  -9.103   1.848  0.00  0.00    +0.155 HD
ENDROOT
BRANCH   1  10
ATOM      5  C   UNL     1       3.717  -7.146   1.417  0.00  0.00    +0.058 A 
ATOM      6  C   UNL     1       4.834  -6.314   1.529  0.00  0.00    +0.015 A 
ATOM      7  C   UNL     1       6.074  -6.858   1.784  0.00  0.00    +0.001 A 
ATOM      8  C   UNL     1       6.220  -8.228   1.930  0.00  0.00    +0.002 A 
ATOM      9  C   UNL     1       5.127  -9.063   1.823  0.00  0.00    +0.024 A 
ATOM     10  C   UNL     1       3.868  -8.532   1.572  0.00  0.00    +0.046 A 
BRANCH   5  12
ATOM     11  N   UNL     1       2.235  -5.234   1.062  0.00  0.00    -0.307 N 
ATOM     12  C   UNL     1       2.387  -6.570   1.145  0.00  0.00    +0.246 C 
ATOM     13  O   UNL     1       1.427  -7.302   0.995  0.00  0.00    -0.270 OA
ATOM     14  H   UNL     1       3.001  -4.650   1.182  0.00  0.00    +0.149 HD
BRANCH  11  15
ATOM     15  C   UNL     1       0.914  -4.662   0.792  0.00  0.00    +0.139 C 
BRANCH  15  20
ATOM     16  C   UNL     1       1.302   1.101   0.631  0.00  0.00    +0.044 C 
ATOM     17  C   UNL     1       1.200  -0.402   0.673  0.00  0.00    -0.050 A 
ATOM     18  C   UNL     1       1.375  -1.139  -0.483  0.00  0.00    +0.003 A 
ATOM     19  C   UNL     1       1.282  -2.517  -0.445  0.00  0.00    +0.005 A 
ATOM     20  C   UNL     1       1.016  -3.159   0.750  0.00  0.00    -0.030 A 
ATOM     21  C   UNL     1       0.842  -2.422   1.907  0.00  0.00    +0.005 A 
ATOM     22  C   UNL     1       0.939  -1.044   1.869  0.00  0.00    +0.003 A 
ENDBRANCH  15  20
ENDBRANCH  11  15
ENDBRANCH   5  12
ENDBRANCH   1  10
BRANCH   2  23
ATOM     23  C   UNL     1       1.652 -11.412   0.617  0.00  0.00    +0.328 C 
BRANCH  23  24
ATOM     24  O   UNL     1       2.026 -12.612  -0.063  0.00  0.00    -0.452 OA
BRANCH  24  25
ATOM     25  C   UNL     1       1.042 -13.490  -0.342  0.00  0.00    +0.341 C 
ATOM     26  O   UNL     1      -0.102 -13.243  -0.016  0.00  0.00    -0.245 OA
BRANCH  25  27
ATOM     27  C   UNL     1       1.353 -14.748  -1.041  0.00  0.00    +0.080 A 
ATOM     28  C   UNL     1       2.639 -14.977  -1.539  0.00  0.00    +0.019 A 
ATOM     29  C   UNL     1       2.924 -16.155  -2.191  0.00  0.00    +0.033 A 
ATOM     30  C   UNL     1       1.942 -17.119  -2.358  0.00  0.00    +0.128 A 
ATOM     31  C   UNL     1       0.667 -16.909  -1.872  0.00  0.00    +0.056 A 
ATOM     32  C   UNL     1       0.362 -15.729  -1.206  0.00  0.00    +0.041 A 
BRANCH  32  33
ATOM     33  N   UNL     1      -0.918 -15.518  -0.711  0.00  0.00    -0.357 N 
ATOM     34  H   UNL     1      -1.200 -14.624  -0.463  0.00  0.00    +0.142 HD
ATOM     35  H   UNL     1      -1.529 -16.265  -0.613  0.00  0.00    +0.142 HD
ENDBRANCH  32  33
BRANCH  30  36
ATOM     36  N   UNL     1       2.261 -18.381  -3.062  0.00  0.00    +0.056 N 
ATOM     37  O   UNL     1       3.377 -18.569  -3.490  0.00  0.00    -0.126 OA
ATOM     38  O   UNL     1       1.407 -19.224  -3.209  0.00  0.00    -0.126 OA
ENDBRANCH  30  36
ENDBRANCH  25  27
ENDBRANCH  24  25
ENDBRANCH  23  24
ENDBRANCH   2  23
TORSDOF 10
