REMARK  Name = ZINC39469625
REMARK  6 active torsions:
REMARK  status: ('A' for Active; 'I' for Inactive)
REMARK    1  A    between atoms: C_4  and  O_7
REMARK    2  A    between atoms: O_7  and  S_8
REMARK    3  A    between atoms: S_8  and  P_11
REMARK    4  A    between atoms: C_19  and  O_36
REMARK    5  A    between atoms: C_20  and  C_29
REMARK    6  A    between atoms: C_34  and  O_35
REMARK                            x       y       z     vdW  Elec       q    Type
REMARK                         _______ _______ _______ _____ _____    ______ ____
ROOT
ATOM      1  P   UNL     1       3.000  -2.544   2.135  0.00  0.00    +0.431 P 
ATOM      2  O   UNL     1       1.582  -2.144   2.276  0.00  0.00    -0.246 OA
ATOM      3  N   UNL     1       3.611  -3.019   3.593  0.00  0.00    -0.271 NA
ATOM      4  N   UNL     1       4.742  -3.808   3.589  0.00  0.00    +0.398 N 
ATOM      5  C   UNL     1       4.991  -4.169   4.994  0.00  0.00    -0.046 C 
ATOM      6  C   UNL     1       6.238  -5.034   5.122  0.00  0.00    +0.008 C 
ATOM      7  C   UNL     1       7.446  -4.293   4.614  0.00  0.00    +0.021 C 
ATOM      8  C   UNL     1       8.522  -4.978   4.222  0.00  0.00    +0.121 C 
ATOM      9  C   UNL     1       8.511  -6.457   4.306  0.00  0.00    +0.023 C 
ATOM     10  C   UNL     1       7.338  -7.109   4.345  0.00  0.00    -0.011 C 
ATOM     11  C   UNL     1       6.056  -6.314   4.301  0.00  0.00    +0.016 C 
ATOM     12  C   UNL     1       5.756  -5.925   2.853  0.00  0.00    -0.003 C 
ATOM     13  C   UNL     1       4.525  -5.013   2.784  0.00  0.00    -0.020 C 
ATOM     14  C   UNL     1       4.302  -4.667   1.306  0.00  0.00    +0.158 C 
ATOM     15  O   UNL     1       3.124  -3.852   1.175  0.00  0.00    -0.301 OA
ATOM     16  H   UNL     1       3.189  -2.752   4.424  0.00  0.00    +0.113 HD
ATOM     17  H   UNL     1       5.521  -3.286   3.217  0.00  0.00    -0.055 HD
ENDROOT
BRANCH   9  18
ATOM     18  C   UNL     1       9.786  -7.213   4.346  0.00  0.00    +0.027 A 
ATOM     19  C   UNL     1      10.229  -7.898   3.216  0.00  0.00    +0.012 A 
ATOM     20  C   UNL     1      11.417  -8.600   3.259  0.00  0.00    +0.001 A 
ATOM     21  C   UNL     1      12.170  -8.626   4.420  0.00  0.00    +0.004 A 
ATOM     22  C   UNL     1      11.740  -7.950   5.545  0.00  0.00    +0.046 A 
ATOM     23  C   UNL     1      10.553  -7.236   5.515  0.00  0.00    +0.125 A 
BRANCH  23  24
ATOM     24  O   UNL     1      10.132  -6.566   6.620  0.00  0.00    -0.506 OA
ATOM     25  H   UNL     1       9.575  -7.091   7.210  0.00  0.00    +0.292 HD
ENDBRANCH  23  24
ENDBRANCH   9  18
BRANCH   1  26
ATOM     26  S   UNL     1       4.140  -0.941   1.346  0.00  0.00    +0.209 S 
ATOM     27  O   UNL     1       5.458  -1.436   1.154  0.00  0.00    -0.126 OA
ATOM     28  O   UNL     1       3.863   0.192   2.158  0.00  0.00    -0.126 OA
BRANCH  26  29
ATOM     29  O   UNL     1       3.586  -0.632  -0.037  0.00  0.00    -0.339 OA
BRANCH  29  33
ATOM     30  C   UNL     1      -0.017   1.378   0.010  0.00  0.00    +0.000 A 
ATOM     31  C   UNL     1       1.170   2.088   0.002  0.00  0.00    +0.004 A 
ATOM     32  C   UNL     1       2.377   1.417  -0.013  0.00  0.00    +0.048 A 
ATOM     33  C   UNL     1       2.399   0.030  -0.021  0.00  0.00    +0.157 A 
ATOM     34  C   UNL     1       1.207  -0.680  -0.013  0.00  0.00    +0.048 A 
ATOM     35  C   UNL     1       0.002  -0.004   0.002  0.00  0.00    +0.004 A 
ENDBRANCH  29  33
ENDBRANCH  26  29
ENDBRANCH   1  26
BRANCH   8  36
ATOM     36  O   UNL     1       9.617  -4.325   3.751  0.00  0.00    -0.506 OA
ATOM     37  H   UNL     1       9.525  -3.363   3.736  0.00  0.00    +0.292 HD
ENDBRANCH   8  36
TORSDOF 6
