REMARK  Name = ZINC09076768
REMARK  6 active torsions:
REMARK  status: ('A' for Active; 'I' for Inactive)
REMARK    1  A    between atoms: C_2  and  C_3
REMARK    2  A    between atoms: C_3  and  N_4
REMARK    3  A    between atoms: N_13  and  C_14
REMARK    4  A    between atoms: C_14  and  C_16
REMARK    5  A    between atoms: C_19  and  S_22
REMARK    6  A    between atoms: S_22  and  N_25
REMARK                            x       y       z     vdW  Elec       q    Type
REMARK                         _______ _______ _______ _____ _____    ______ ____
ROOT
ATOM      1  C   UNL     1      -3.262  -1.649  -4.306  0.00  0.00    +0.039 A 
ATOM      2  C   UNL     1      -2.035  -1.730  -3.648  0.00  0.00    +0.015 A 
ATOM      3  C   UNL     1      -1.935  -1.339  -2.329  0.00  0.00    +0.029 A 
ATOM      4  C   UNL     1      -3.049  -0.867  -1.658  0.00  0.00    +0.109 A 
ATOM      5  C   UNL     1      -4.271  -0.790  -2.303  0.00  0.00    +0.029 A 
ATOM      6  C   UNL     1      -4.382  -1.172  -3.624  0.00  0.00    +0.015 A 
ENDROOT
BRANCH   4   7
ATOM      7  S   UNL     1      -2.913  -0.370   0.027  0.00  0.00    +0.075 S 
ATOM      8  O   UNL     1      -1.791  -1.056   0.564  0.00  0.00    -0.150 OA
ATOM      9  O   UNL     1      -4.214  -0.481   0.589  0.00  0.00    -0.150 OA
BRANCH   7  10
ATOM     10  N   UNL     1      -2.531   1.241   0.033  0.00  0.00    -0.202 N 
ATOM     11  C   UNL     1      -3.505   2.335   0.048  0.00  0.00    +0.136 C 
ATOM     12  C   UNL     1      -2.665   3.623   0.047  0.00  0.00    +0.058 C 
ATOM     13  C   UNL     1      -1.232   3.141   0.031  0.00  0.00    -0.023 A 
ATOM     14  C   UNL     1      -1.233   1.754   0.017  0.00  0.00    +0.054 A 
ATOM     15  C   UNL     1      -0.013   1.076   0.008  0.00  0.00    +0.025 A 
ATOM     16  C   UNL     1       1.174   1.778   0.000  0.00  0.00    +0.002 A 
ATOM     17  C   UNL     1       1.164   3.161   0.008  0.00  0.00    +0.000 A 
ATOM     18  C   UNL     1      -0.040   3.840   0.023  0.00  0.00    +0.005 A 
ENDBRANCH   7  10
ENDBRANCH   4   7
BRANCH   1  19
ATOM     19  C   UNL     1      -3.376  -2.066  -5.722  0.00  0.00    +0.269 C 
ATOM     20  O   UNL     1      -2.396  -2.481  -6.316  0.00  0.00    -0.268 OA
BRANCH  19  30
ATOM     21  N   UNL     1      -5.759  -2.353  -8.416  0.00  0.00    -0.317 N 
ATOM     22  C   UNL     1      -5.671  -2.784  -9.727  0.00  0.00    +0.058 A 
ATOM     23  C   UNL     1      -6.688  -2.848 -10.693  0.00  0.00    +0.028 A 
ATOM     24  C   UNL     1      -6.426  -3.307 -11.962  0.00  0.00    +0.022 A 
ATOM     25  C   UNL     1      -5.154  -3.719 -12.328  0.00  0.00    +0.042 A 
ATOM     26  C   UNL     1      -4.132  -3.665 -11.395  0.00  0.00    +0.037 A 
ATOM     27  C   UNL     1      -4.395  -3.207 -10.126  0.00  0.00    +0.040 A 
ATOM     28  S   UNL     1      -3.414  -2.971  -8.665  0.00  0.00    -0.052 S 
ATOM     29  C   UNL     1      -4.656  -2.361  -7.621  0.00  0.00    +0.167 A 
ATOM     30  N   UNL     1      -4.554  -1.987  -6.350  0.00  0.00    -0.152 NA
ATOM     31 CL   UNL     1      -4.846  -4.295 -13.936  0.00  0.00    -0.084 Cl
BRANCH  21  32
ATOM     32  C   UNL     1      -7.042  -1.887  -7.884  0.00  0.00    +0.151 C 
BRANCH  32  34
ATOM     33  C   UNL     1      -7.352  -1.200  -5.561  0.00  0.00    +0.005 C 
ATOM     34  C   UNL     1      -7.105  -2.171  -6.405  0.00  0.00    -0.013 C 
ENDBRANCH  32  34
ENDBRANCH  21  32
ENDBRANCH  19  30
ENDBRANCH   1  19
TORSDOF 6
