REMARK  Name = ZINC39943184
REMARK  10 active torsions:
REMARK  status: ('A' for Active; 'I' for Inactive)
REMARK    1  A    between atoms: C_1  and  C_2
REMARK    2  A    between atoms: C_2  and  O_3
REMARK    3  A    between atoms: O_3  and  C_4
REMARK    4  A    between atoms: C_4  and  C_6
REMARK    5  A    between atoms: C_7  and  N_19
REMARK    6  A    between atoms: C_9  and  C_12
REMARK    7  A    between atoms: C_20  and  C_22
REMARK    8  A    between atoms: C_22  and  O_23
REMARK    9  A    between atoms: O_23  and  C_24
REMARK   10  A    between atoms: C_24  and  C_26
REMARK                            x       y       z     vdW  Elec       q    Type
REMARK                         _______ _______ _______ _____ _____    ______ ____
ROOT
ATOM      1  N   UNL     1       0.889  -4.635   2.080  0.00  0.00    -0.285 N 
ATOM      2  C   UNL     1       0.933  -5.924   2.471  0.00  0.00    +0.255 C 
ATOM      3  O   UNL     1       1.353  -6.209   3.572  0.00  0.00    -0.272 OA
ATOM      4  H   UNL     1       0.506  -4.402   1.220  0.00  0.00    +0.155 HD
ENDROOT
BRANCH   1   6
ATOM      5  C   UNL     1       1.466  -2.372   2.471  0.00  0.00    +0.110 C 
ATOM      6  C   UNL     1       1.389  -3.647   2.903  0.00  0.00    +0.032 C 
ATOM      7  C   UNL     1       1.852  -3.975   4.286  0.00  0.00    +0.071 C 
ATOM      8  C   UNL     1       1.921  -2.700   5.165  0.00  0.00    +0.087 C 
ATOM      9  S   UNL     1       2.137  -1.440   3.836  0.00  0.00    -0.108 S 
BRANCH   8  10
ATOM     10  C   UNL     1       3.111  -2.732   6.089  0.00  0.00    -0.034 A 
ATOM     11  C   UNL     1       4.389  -2.806   5.567  0.00  0.00    +0.007 A 
ATOM     12  C   UNL     1       5.481  -2.835   6.414  0.00  0.00    +0.038 A 
ATOM     13  C   UNL     1       5.295  -2.789   7.785  0.00  0.00    +0.123 A 
ATOM     14  C   UNL     1       4.014  -2.714   8.307  0.00  0.00    +0.038 A 
ATOM     15  C   UNL     1       2.924  -2.680   7.458  0.00  0.00    +0.007 A 
ATOM     16  F   UNL     1       6.361  -2.817   8.614  0.00  0.00    -0.205 F 
ENDBRANCH   8  10
BRANCH   5  17
ATOM     17  C   UNL     1       1.084  -1.860   1.155  0.00  0.00    +0.347 C 
ATOM     18  O   UNL     1       0.734  -2.630   0.281  0.00  0.00    -0.244 OA
BRANCH  17  19
ATOM     19  O   UNL     1       1.119  -0.533   0.911  0.00  0.00    -0.461 OA
BRANCH  19  21
ATOM     20  C   UNL     1       0.837   1.420  -0.483  0.00  0.00    +0.048 C 
ATOM     21  C   UNL     1       0.733  -0.104  -0.396  0.00  0.00    +0.229 C 
ENDBRANCH  19  21
ENDBRANCH  17  19
ENDBRANCH   5  17
ENDBRANCH   1   6
BRANCH   2  22
ATOM     22  C   UNL     1       0.462  -7.010   1.539  0.00  0.00    +0.328 C 
BRANCH  22  23
ATOM     23  O   UNL     1       0.608  -8.281   2.176  0.00  0.00    -0.452 OA
BRANCH  23  24
ATOM     24  C   UNL     1       0.229  -9.366   1.472  0.00  0.00    +0.337 C 
ATOM     25  O   UNL     1      -0.213  -9.236   0.348  0.00  0.00    -0.245 OA
BRANCH  24  26
ATOM     26  C   UNL     1       0.350 -10.711   2.067  0.00  0.00    +0.054 C 
ATOM     27  C   UNL     1       0.998 -10.912   3.268  0.00  0.00    +0.007 A 
ATOM     28  C   UNL     1       1.591  -9.793   4.001  0.00  0.00    +0.010 A 
ATOM     29  C   UNL     1       2.217 -10.041   5.178  0.00  0.00    +0.001 A 
ATOM     30  C   UNL     1       2.306 -11.337   5.700  0.00  0.00    +0.002 A 
ATOM     31  C   UNL     1       1.780 -12.417   5.074  0.00  0.00    +0.024 A 
ATOM     32  C   UNL     1       1.106 -12.271   3.841  0.00  0.00    +0.041 A 
ATOM     33  N   UNL     1       0.594 -13.331   3.234  0.00  0.00    -0.285 N 
ATOM     34  C   UNL     1      -0.051 -13.267   2.075  0.00  0.00    +0.222 C 
ATOM     35  O   UNL     1      -0.496 -14.279   1.570  0.00  0.00    -0.275 OA
ATOM     36  C   UNL     1      -0.237 -11.934   1.387  0.00  0.00    +0.139 C 
ATOM     37  H   UNL     1       0.696 -14.198   3.657  0.00  0.00    +0.155 HD
ENDBRANCH  24  26
ENDBRANCH  23  24
ENDBRANCH  22  23
ENDBRANCH   2  22
TORSDOF 9
