REMARK  Name = ZINC39277379
REMARK  7 active torsions:
REMARK  status: ('A' for Active; 'I' for Inactive)
REMARK    1  A    between atoms: C_1  and  C_2
REMARK    2  A    between atoms: C_2  and  C_7
REMARK    3  A    between atoms: C_3  and  C_4
REMARK    4  A    between atoms: C_8  and  C_9
REMARK    5  A    between atoms: C_9  and  O_18
REMARK    6  A    between atoms: C_15  and  C_16
REMARK    7  A    between atoms: C_15  and  C_17
REMARK                            x       y       z     vdW  Elec       q    Type
REMARK                         _______ _______ _______ _____ _____    ______ ____
ROOT
ATOM      1  C   UNL     1      -0.087  -1.841  -3.297  0.00  0.00    +0.108 C 
ATOM      2  C   UNL     1       1.177  -1.763  -4.101  0.00  0.00    +0.015 C 
ATOM      3  C   UNL     1       1.213  -1.935  -5.417  0.00  0.00    +0.045 C 
ATOM      4  C   UNL     1      -0.017  -2.208  -6.168  0.00  0.00    +0.157 C 
ATOM      5  O   UNL     1      -0.034  -2.164  -7.380  0.00  0.00    -0.293 OA
ATOM      6  C   UNL     1      -1.265  -2.547  -5.379  0.00  0.00    +0.088 C 
ATOM      7  C   UNL     1      -1.315  -1.598  -4.173  0.00  0.00    +0.008 C 
ATOM      8  C   UNL     1      -1.315  -0.148  -4.663  0.00  0.00    +0.015 C 
ATOM      9  C   UNL     1      -2.584  -1.866  -3.362  0.00  0.00    +0.015 C 
ENDROOT
BRANCH   1  11
ATOM     10  C   UNL     1      -0.081  -1.175  -0.925  0.00  0.00    +0.002 C 
ATOM     11  C   UNL     1      -0.044  -0.801  -2.207  0.00  0.00    +0.012 C 
BRANCH  10  13
ATOM     12  C   UNL     1      -0.088   1.298  -0.221  0.00  0.00    +0.044 C 
ATOM     13  C   UNL     1      -0.039  -0.167   0.132  0.00  0.00    -0.044 C 
ATOM     14  C   UNL     1       0.043  -0.548   1.430  0.00  0.00    +0.099 C 
BRANCH  14  15
ATOM     15  C   UNL     1      -0.028  -1.919   1.769  0.00  0.00    +0.380 C 
ATOM     16  O   UNL     1      -0.056  -2.768   0.886  0.00  0.00    -0.241 OA
ATOM     17  O   UNL     1      -0.062  -2.257   2.946  0.00  0.00    -0.241 OA
ENDBRANCH  14  15
ENDBRANCH  10  13
ENDBRANCH   1  11
BRANCH   1  18
ATOM     18  O   UNL     1      -0.184  -3.138  -2.704  0.00  0.00    -0.380 OA
ATOM     19  H   UNL     1       0.555  -3.360  -2.122  0.00  0.00    +0.211 HD
ENDBRANCH   1  18
TORSDOF 4
