REMARK  Name = ZINC40035565
REMARK  10 active torsions:
REMARK  status: ('A' for Active; 'I' for Inactive)
REMARK    1  A    between atoms: C_1  and  C_2
REMARK    2  A    between atoms: C_2  and  C_3
REMARK    3  A    between atoms: C_3  and  C_34
REMARK    4  A    between atoms: N_15  and  C_31
REMARK    5  A    between atoms: N_18  and  N_19
REMARK    6  A    between atoms: C_20  and  C_21
REMARK    7  A    between atoms: C_23  and  O_29
REMARK    8  A    between atoms: C_24  and  O_28
REMARK    9  A    between atoms: O_29  and  C_30
REMARK   10  A    between atoms: C_31  and  C_32
REMARK                            x       y       z     vdW  Elec       q    Type
REMARK                         _______ _______ _______ _____ _____    ______ ____
ROOT
ATOM      1  C   UNL     1      -1.433  -0.534   0.013  0.00  0.00    +0.004 C 
ATOM      2  C   UNL     1      -1.300  -2.053   0.091  0.00  0.00    +0.047 C 
ATOM      3  C   UNL     1      -0.797  -2.607  -1.214  0.00  0.00    -0.037 A 
ATOM      4  C   UNL     1       0.056  -3.692  -1.231  0.00  0.00    +0.004 A 
ATOM      5  C   UNL     1       0.511  -4.197  -2.436  0.00  0.00    +0.000 A 
ATOM      6  C   UNL     1       0.116  -3.622  -3.631  0.00  0.00    +0.001 A 
ATOM      7  C   UNL     1      -0.736  -2.536  -3.628  0.00  0.00    +0.010 A 
ATOM      8  C   UNL     1      -1.194  -2.023  -2.418  0.00  0.00    +0.004 A 
ATOM      9  C   UNL     1      -2.100  -0.852  -2.383  0.00  0.00    +0.084 A 
ATOM     10  C   UNL     1      -2.220  -0.133  -1.203  0.00  0.00    +0.049 A 
ATOM     11  C   UNL     1      -3.084   0.970  -1.169  0.00  0.00    +0.260 A 
ATOM     12  O   UNL     1      -3.217   1.626  -0.149  0.00  0.00    -0.267 OA
ATOM     13  N   UNL     1      -3.767   1.290  -2.289  0.00  0.00    -0.276 N 
ATOM     14  C   UNL     1      -3.608   0.553  -3.424  0.00  0.00    +0.219 A 
ATOM     15  N   UNL     1      -2.797  -0.485  -3.463  0.00  0.00    -0.214 NA
ATOM     16  N   UNL     1      -4.307   0.900  -4.551  0.00  0.00    -0.206 N 
ATOM     17  C   UNL     1      -2.149  -0.026   1.266  0.00  0.00    +0.016 C 
ATOM     18  H   UNL     1      -4.907   1.662  -4.534  0.00  0.00    +0.177 HD
ENDROOT
BRANCH   1  20
ATOM     19  C   UNL     1      -0.165   1.615  -0.110  0.00  0.00    +0.005 C 
ATOM     20  C   UNL     1      -0.039   0.092  -0.060  0.00  0.00    +0.008 C 
ENDBRANCH   1  20
BRANCH  16  21
ATOM     21  N   UNL     1      -4.156   0.152  -5.726  0.00  0.00    -0.188 NA
ATOM     22  C   UNL     1      -4.819   0.480  -6.793  0.00  0.00    +0.138 C 
BRANCH  22  23
ATOM     23  C   UNL     1      -4.659  -0.306  -8.030  0.00  0.00    -0.001 A 
ATOM     24  C   UNL     1      -5.367   0.049  -9.182  0.00  0.00    +0.059 A 
ATOM     25  C   UNL     1      -5.214  -0.691 -10.339  0.00  0.00    +0.163 A 
ATOM     26  C   UNL     1      -4.356  -1.788 -10.356  0.00  0.00    +0.173 A 
ATOM     27  C   UNL     1      -3.653  -2.142  -9.213  0.00  0.00    +0.063 A 
ATOM     28  C   UNL     1      -3.796  -1.404  -8.056  0.00  0.00    +0.028 A 
ATOM     29 BR   UNL     1      -2.490  -3.633  -9.244  0.00  0.00    -0.046 Br
BRANCH  26  30
ATOM     30  O   UNL     1      -4.207  -2.514 -11.496  0.00  0.00    -0.503 OA
ATOM     31  H   UNL     1      -3.498  -2.200 -12.073  0.00  0.00    +0.292 HD
ENDBRANCH  26  30
BRANCH  25  32
ATOM     32  O   UNL     1      -5.902  -0.348 -11.461  0.00  0.00    -0.491 OA
ATOM     33  C   UNL     1      -6.765   0.788 -11.371  0.00  0.00    +0.277 C 
ENDBRANCH  25  32
ENDBRANCH  22  23
ENDBRANCH  16  21
BRANCH  13  34
ATOM     34  C   UNL     1      -4.681   2.435  -2.284  0.00  0.00    +0.155 C 
BRANCH  34  35
ATOM     35  C   UNL     1      -3.931   3.679  -2.687  0.00  0.00    -0.013 C 
ATOM     36  C   UNL     1      -4.359   4.406  -3.688  0.00  0.00    +0.005 C 
ENDBRANCH  34  35
ENDBRANCH  13  34
TORSDOF 7
