REMARK  Name = ZINC36029096
REMARK  8 active torsions:
REMARK  status: ('A' for Active; 'I' for Inactive)
REMARK    1  A    between atoms: C_1  and  C_2
REMARK    2  A    between atoms: C_2  and  C_3
REMARK    3  A    between atoms: C_3  and  C_5
REMARK    4  A    between atoms: C_3  and  C_6
REMARK    5  A    between atoms: N_10  and  C_28
REMARK    6  A    between atoms: N_15  and  S_18
REMARK    7  A    between atoms: S_18  and  C_21
REMARK    8  A    between atoms: C_28  and  C_29
REMARK                            x       y       z     vdW  Elec       q    Type
REMARK                         _______ _______ _______ _____ _____    ______ ____
ROOT
ATOM      1  C   UNL     1      -1.570  -2.079   0.130  0.00  0.00    +0.022 C 
ATOM      2  C   UNL     1      -0.886  -2.619  -1.108  0.00  0.00    +0.201 C 
ATOM      3  O   UNL     1       0.065  -2.117  -1.669  0.00  0.00    -0.277 OA
ATOM      4  N   UNL     1      -1.514  -3.754  -1.483  0.00  0.00    -0.314 N 
ATOM      5  C   UNL     1      -2.610  -4.037  -0.552  0.00  0.00    +0.006 C 
ATOM      6  N   UNL     1      -2.877  -2.778   0.178  0.00  0.00    +0.401 N 
ATOM      7  C   UNL     1      -2.195  -5.126   0.436  0.00  0.00    +0.023 C 
ATOM      8  C   UNL     1      -1.881  -6.415  -0.331  0.00  0.00    +0.109 C 
ATOM      9  N   UNL     1      -3.037  -6.758  -1.172  0.00  0.00    -0.177 NA
ATOM     10  C   UNL     1      -3.558  -5.748  -2.103  0.00  0.00    +0.109 C 
ATOM     11  C   UNL     1      -3.858  -4.465  -1.321  0.00  0.00    +0.023 C 
ATOM     12  H   UNL     1      -3.145  -2.967   1.132  0.00  0.00    -0.082 HD
ATOM     13  H   UNL     1      -3.587  -2.238  -0.293  0.00  0.00    -0.082 HD
ENDROOT
BRANCH   9  14
ATOM     14  S   UNL     1      -3.737  -8.255  -1.072  0.00  0.00    +0.061 S 
ATOM     15  O   UNL     1      -4.395  -8.479  -2.311  0.00  0.00    -0.153 OA
ATOM     16  O   UNL     1      -2.743  -9.135  -0.567  0.00  0.00    -0.153 OA
BRANCH  14  17
ATOM     17  C   UNL     1      -4.997  -8.159   0.157  0.00  0.00    +0.106 A 
ATOM     18  C   UNL     1      -4.695  -8.432   1.478  0.00  0.00    +0.030 A 
ATOM     19  C   UNL     1      -5.683  -8.358   2.442  0.00  0.00    +0.022 A 
ATOM     20  C   UNL     1      -6.973  -8.010   2.085  0.00  0.00    +0.041 A 
ATOM     21  C   UNL     1      -7.274  -7.737   0.762  0.00  0.00    +0.022 A 
ATOM     22  C   UNL     1      -6.285  -7.806  -0.200  0.00  0.00    +0.030 A 
ATOM     23 CL   UNL     1      -8.214  -7.917   3.295  0.00  0.00    -0.084 Cl
ENDBRANCH  14  17
ENDBRANCH   9  14
BRANCH   1  24
ATOM     24  C   UNL     1      -1.778  -0.568   0.007  0.00  0.00    -0.020 C 
ATOM     25  C   UNL     1      -2.587  -0.266  -1.255  0.00  0.00    +0.006 C 
BRANCH  24  27
ATOM     26  C   UNL     1      -0.620   1.644  -0.077  0.00  0.00    +0.004 C 
ATOM     27  C   UNL     1      -0.418   0.128  -0.080  0.00  0.00    -0.001 C 
ENDBRANCH  24  27
ENDBRANCH   1  24
BRANCH   4  28
ATOM     28  C   UNL     1      -1.154  -4.575  -2.641  0.00  0.00    +0.102 C 
ATOM     29  C   UNL     1      -1.901  -4.069  -3.877  0.00  0.00    +0.024 C 
ENDBRANCH   4  28
TORSDOF 5
