REMARK  Name = ZINC39499760
REMARK  9 active torsions:
REMARK  status: ('A' for Active; 'I' for Inactive)
REMARK    1  A    between atoms: C_1  and  C_2
REMARK    2  A    between atoms: C_2  and  O_3
REMARK    3  A    between atoms: O_3  and  C_4
REMARK    4  A    between atoms: C_9  and  C_10
REMARK    5  A    between atoms: C_15  and  O_16
REMARK    6  A    between atoms: C_18  and  C_19
REMARK    7  A    between atoms: N_25  and  S_27
REMARK    8  A    between atoms: S_27  and  O_30
REMARK    9  A    between atoms: O_30  and  C_31
REMARK                            x       y       z     vdW  Elec       q    Type
REMARK                         _______ _______ _______ _____ _____    ______ ____
ROOT
ATOM      1  C   UNL     1      -0.843  -2.188  -2.154  0.00  0.00    +0.129 A 
ATOM      2  C   UNL     1      -0.918  -2.922  -0.979  0.00  0.00    +0.052 A 
ATOM      3  C   UNL     1      -0.353  -4.176  -0.910  0.00  0.00    -0.016 A 
ATOM      4  C   UNL     1       0.299  -4.722  -2.019  0.00  0.00    +0.003 A 
ATOM      5  C   UNL     1       0.378  -3.988  -3.204  0.00  0.00    +0.022 A 
ATOM      6  C   UNL     1      -0.197  -2.725  -3.274  0.00  0.00    +0.028 A 
ATOM      7  C   UNL     1       0.800  -6.062  -1.658  0.00  0.00    +0.062 C 
ATOM      8  C   UNL     1       1.483  -6.887  -2.482  0.00  0.00    +0.033 C 
ATOM      9  N   UNL     1       0.463  -6.345  -0.342  0.00  0.00    -0.170 N 
ATOM     10  C   UNL     1      -0.271  -5.196   0.200  0.00  0.00    +0.170 C 
ENDROOT
BRANCH   6  11
ATOM     11  C   UNL     1      -0.121  -1.943  -4.532  0.00  0.00    +0.027 A 
ATOM     12  C   UNL     1      -0.776  -2.394  -5.676  0.00  0.00    +0.012 A 
ATOM     13  C   UNL     1      -0.702  -1.663  -6.845  0.00  0.00    +0.001 A 
ATOM     14  C   UNL     1       0.020  -0.484  -6.885  0.00  0.00    +0.004 A 
ATOM     15  C   UNL     1       0.673  -0.028  -5.755  0.00  0.00    +0.046 A 
ATOM     16  C   UNL     1       0.603  -0.748  -4.574  0.00  0.00    +0.125 A 
BRANCH  16  17
ATOM     17  O   UNL     1       1.239  -0.297  -3.462  0.00  0.00    -0.506 OA
ATOM     18  H   UNL     1       2.149  -0.614  -3.373  0.00  0.00    +0.292 HD
ENDBRANCH  16  17
ENDBRANCH   6  11
BRANCH   8  19
ATOM     19  C   UNL     1       2.062  -6.365  -3.730  0.00  0.00    -0.023 A 
ATOM     20  C   UNL     1       2.741  -5.143  -3.733  0.00  0.00    +0.008 A 
ATOM     21  C   UNL     1       3.282  -4.661  -4.906  0.00  0.00    +0.001 A 
ATOM     22  C   UNL     1       3.154  -5.384  -6.080  0.00  0.00    +0.000 A 
ATOM     23  C   UNL     1       2.482  -6.595  -6.085  0.00  0.00    +0.001 A 
ATOM     24  C   UNL     1       1.942  -7.093  -4.919  0.00  0.00    +0.008 A 
ENDBRANCH   8  19
BRANCH   9  25
ATOM     25  S   UNL     1       0.825  -7.739   0.476  0.00  0.00    +0.210 S 
ATOM     26  O   UNL     1      -0.132  -7.857   1.520  0.00  0.00    -0.115 OA
ATOM     27  O   UNL     1       1.010  -8.749  -0.506  0.00  0.00    -0.115 OA
BRANCH  25  28
ATOM     28  O   UNL     1       2.175  -7.530   1.146  0.00  0.00    -0.331 OA
BRANCH  28  29
ATOM     29  C   UNL     1       2.131  -6.728   2.242  0.00  0.00    +0.158 A 
ATOM     30  C   UNL     1       2.298  -5.357   2.107  0.00  0.00    +0.048 A 
ATOM     31  C   UNL     1       2.252  -4.544   3.223  0.00  0.00    +0.004 A 
ATOM     32  C   UNL     1       2.039  -5.095   4.473  0.00  0.00    +0.000 A 
ATOM     33  C   UNL     1       1.873  -6.461   4.610  0.00  0.00    +0.004 A 
ATOM     34  C   UNL     1       1.913  -7.278   3.497  0.00  0.00    +0.048 A 
ENDBRANCH  28  29
ENDBRANCH  25  28
ENDBRANCH   9  25
BRANCH   1  35
ATOM     35  O   UNL     1      -1.400  -0.951  -2.219  0.00  0.00    -0.492 OA
BRANCH  35  37
ATOM     36  C   UNL     1      -2.606   0.932  -1.302  0.00  0.00    +0.048 C 
ATOM     37  C   UNL     1      -2.043  -0.466  -1.038  0.00  0.00    +0.226 C 
ENDBRANCH  35  37
ENDBRANCH   1  35
TORSDOF 8
