REMARK  Name = ZINC67510396
REMARK  4 active torsions:
REMARK  status: ('A' for Active; 'I' for Inactive)
REMARK    1  A    between atoms: C_6  and  N_7
REMARK    2  A    between atoms: C_8  and  C_22
REMARK    3  A    between atoms: C_9  and  C_12
REMARK    4  A    between atoms: C_18  and  O_21
REMARK                            x       y       z     vdW  Elec       q    Type
REMARK                         _______ _______ _______ _____ _____    ______ ____
ROOT
ATOM      1  N   UNL     1      -1.271  -0.629  -0.035  0.00  0.00    -0.227 N 
ATOM      2  C   UNL     1      -1.543  -1.667  -0.847  0.00  0.00    +0.159 A 
ATOM      3  C   UNL     1      -2.759  -2.190  -0.454  0.00  0.00    +0.087 A 
ATOM      4  C   UNL     1      -3.213  -1.417   0.639  0.00  0.00    +0.148 A 
ATOM      5  N   UNL     1      -2.319  -0.498   0.883  0.00  0.00    -0.174 NA
ENDROOT
BRANCH   3   6
ATOM      6  C   UNL     1      -3.454  -3.339  -1.062  0.00  0.00    +0.250 C 
ATOM      7  O   UNL     1      -3.498  -3.453  -2.272  0.00  0.00    -0.270 OA
ATOM      8  N   UNL     1      -4.041  -4.264  -0.276  0.00  0.00    -0.295 N 
ATOM      9  C   UNL     1      -4.836  -5.350  -0.865  0.00  0.00    +0.108 C 
ATOM     10  C   UNL     1      -4.306  -6.689  -0.342  0.00  0.00    +0.021 C 
ATOM     11  C   UNL     1      -4.303  -6.669   1.188  0.00  0.00    +0.034 C 
ATOM     12  C   UNL     1      -3.378  -5.556   1.685  0.00  0.00    +0.132 C 
ATOM     13  C   UNL     1      -3.893  -4.208   1.185  0.00  0.00    +0.139 C 
BRANCH  12  14
ATOM     14  O   UNL     1      -3.352  -5.559   3.114  0.00  0.00    -0.390 OA
ATOM     15  H   UNL     1      -2.784  -4.877   3.498  0.00  0.00    +0.210 HD
ENDBRANCH  12  14
ENDBRANCH   3   6
BRANCH   1  21
ATOM     16  C   UNL     1       0.346   0.625  -1.320  0.00  0.00    +0.029 A 
ATOM     17  C   UNL     1       1.473   1.423  -1.376  0.00  0.00    +0.022 A 
ATOM     18  C   UNL     1       2.129   1.777  -0.210  0.00  0.00    +0.041 A 
ATOM     19  C   UNL     1       1.659   1.334   1.014  0.00  0.00    +0.022 A 
ATOM     20  C   UNL     1       0.533   0.536   1.074  0.00  0.00    +0.029 A 
ATOM     21  C   UNL     1      -0.127   0.179  -0.094  0.00  0.00    +0.066 A 
ATOM     22 CL   UNL     1       3.545   2.779  -0.283  0.00  0.00    -0.084 Cl
ENDBRANCH   1  21
BRANCH   2  23
ATOM     23  C   UNL     1      -0.679  -2.166  -1.976  0.00  0.00    +0.435 C 
ATOM     24  F   UNL     1       0.668  -1.970  -1.656  0.00  0.00    -0.164 F 
ATOM     25  F   UNL     1      -0.917  -3.530  -2.177  0.00  0.00    -0.164 F 
ATOM     26  F   UNL     1      -0.988  -1.462  -3.145  0.00  0.00    -0.164 F 
ENDBRANCH   2  23
TORSDOF 4
