REMARK  Name = ZINC40328947
REMARK  3 active torsions:
REMARK  status: ('A' for Active; 'I' for Inactive)
REMARK    1  A    between atoms: C_4  and  C_7
REMARK    2  A    between atoms: C_5  and  N_6
REMARK    3  A    between atoms: C_12  and  N_15
REMARK                            x       y       z     vdW  Elec       q    Type
REMARK                         _______ _______ _______ _____ _____    ______ ____
ROOT
ATOM      1  C   UNL     1       1.623  -1.955  -0.024  0.00  0.00    +0.255 C 
ATOM      2  O   UNL     1       1.322  -0.779  -0.119  0.00  0.00    -0.269 OA
ATOM      3  N   UNL     1       2.920  -2.314   0.063  0.00  0.00    -0.297 N 
ATOM      4  C   UNL     1       3.972  -1.295   0.177  0.00  0.00    +0.110 C 
ATOM      5  C   UNL     1       5.011  -1.535  -0.923  0.00  0.00    +0.041 C 
ATOM      6  C   UNL     1       5.519  -2.975  -0.834  0.00  0.00    +0.081 C 
ATOM      7  C   UNL     1       4.354  -3.943  -1.051  0.00  0.00    +0.041 C 
ATOM      8  C   UNL     1       3.307  -3.731   0.053  0.00  0.00    +0.110 C 
ENDROOT
BRANCH   6   9
ATOM      9  N   UNL     1       6.538  -3.199  -1.863  0.00  0.00    -0.281 N 
ATOM     10  C   UNL     1       7.930  -3.599  -1.611  0.00  0.00    +0.128 C 
ATOM     11  C   UNL     1       8.549  -3.690  -3.019  0.00  0.00    +0.124 C 
ATOM     12  N   UNL     1       7.439  -3.331  -3.915  0.00  0.00    -0.298 N 
ATOM     13  C   UNL     1       6.347  -3.076  -3.183  0.00  0.00    +0.303 C 
ATOM     14  O   UNL     1       5.280  -2.759  -3.672  0.00  0.00    -0.253 OA
ATOM     15  H   UNL     1       7.489  -3.290  -4.883  0.00  0.00    +0.150 HD
ENDBRANCH   6   9
BRANCH   1  19
ATOM     16  C   UNL     1      -1.359  -4.117  -0.503  0.00  0.00    +0.031 A 
ATOM     17  C   UNL     1      -0.951  -5.029   0.409  0.00  0.00    +0.048 A 
ATOM     18  S   UNL     1       0.514  -4.433   0.972  0.00  0.00    -0.090 S 
ATOM     19  C   UNL     1       0.613  -2.946  -0.006  0.00  0.00    +0.095 A 
ATOM     20  C   UNL     1      -0.566  -3.012  -0.748  0.00  0.00    +0.044 A 
BRANCH  20  21
ATOM     21  N   UNL     1      -0.920  -2.033  -1.672  0.00  0.00    -0.357 N 
ATOM     22  H   UNL     1      -1.749  -2.113  -2.170  0.00  0.00    +0.142 HD
ATOM     23  H   UNL     1      -0.338  -1.271  -1.818  0.00  0.00    +0.142 HD
ENDBRANCH  20  21
ENDBRANCH   1  19
TORSDOF 3
