REMARK  Name = ZINC38904003
REMARK  15 active torsions:
REMARK  status: ('A' for Active; 'I' for Inactive)
REMARK    1  A    between atoms: C_1  and  C_2
REMARK    2  A    between atoms: C_5  and  C_9
REMARK    3  A    between atoms: C_6  and  C_8
REMARK    4  A    between atoms: C_9  and  C_11
REMARK    5  A    between atoms: C_9  and  N_14
REMARK    6  A    between atoms: C_11  and  C_12
REMARK    7  A    between atoms: C_11  and  C_13
REMARK    8  A    between atoms: C_15  and  C_17
REMARK    9  A    between atoms: N_22  and  C_24
REMARK   10  A    between atoms: C_24  and  C_25
REMARK   11  A    between atoms: C_27  and  C_30
REMARK   12  A    between atoms: C_33  and  C_36
REMARK   13  A    between atoms: C_36  and  C_37
REMARK   14  A    between atoms: C_36  and  C_38
REMARK   15  A    between atoms: C_36  and  C_39
REMARK                            x       y       z     vdW  Elec       q    Type
REMARK                         _______ _______ _______ _____ _____    ______ ____
ROOT
ATOM      1  C   UNL     1       1.824  -6.451  -2.630  0.00  0.00    +0.058 C 
ATOM      2  C   UNL     1       0.737  -6.513  -3.707  0.00  0.00    +0.009 C 
ATOM      3  C   UNL     1       1.339  -7.083  -4.994  0.00  0.00    -0.018 C 
ATOM      4  C   UNL     1       1.945  -8.458  -4.703  0.00  0.00    -0.078 C 
ATOM      5  N   UNL     1       2.995  -8.327  -3.686  0.00  0.00    +0.386 N 
ATOM      6  C   UNL     1       2.413  -7.848  -2.426  0.00  0.00    -0.065 C 
ATOM      7  H   UNL     1       3.691  -7.669  -4.004  0.00  0.00    -0.081 HD
ENDROOT
BRANCH   1   9
ATOM      8  N   UNL     1       0.642  -4.749  -1.279  0.00  0.00    -0.308 N 
ATOM      9  C   UNL     1       1.224  -5.963  -1.337  0.00  0.00    +0.215 C 
ATOM     10  O   UNL     1       1.266  -6.664  -0.347  0.00  0.00    -0.276 OA
ATOM     11  H   UNL     1       0.610  -4.189  -2.070  0.00  0.00    +0.149 HD
BRANCH   8  12
ATOM     12  C   UNL     1       0.059  -4.275  -0.021  0.00  0.00    +0.106 C 
BRANCH  12  17
ATOM     13  C   UNL     1      -0.018   1.503   0.010  0.00  0.00    +0.044 C 
ATOM     14  C   UNL     1       0.002  -0.004   0.002  0.00  0.00    -0.050 A 
ATOM     15  C   UNL     1       0.006  -0.689  -1.199  0.00  0.00    +0.004 A 
ATOM     16  C   UNL     1       0.025  -2.071  -1.207  0.00  0.00    +0.006 A 
ATOM     17  C   UNL     1       0.040  -2.768  -0.013  0.00  0.00    -0.024 A 
ATOM     18  C   UNL     1       0.037  -2.084   1.188  0.00  0.00    -0.045 A 
ATOM     19  C   UNL     1       0.023  -0.702   1.195  0.00  0.00    +0.007 A 
ATOM     20  C   UNL     1       0.054  -2.845   2.489  0.00  0.00    +0.044 C 
ENDBRANCH  12  17
BRANCH  12  21
ATOM     21  C   UNL     1      -1.370  -4.804   0.109  0.00  0.00    +0.008 C 
ATOM     22  C   UNL     1      -2.178  -4.403  -1.127  0.00  0.00    +0.009 C 
ATOM     23  C   UNL     1      -1.341  -6.330   0.226  0.00  0.00    +0.009 C 
ENDBRANCH  12  21
ENDBRANCH   8  12
ENDBRANCH   1   9
BRANCH   5  24
ATOM     24  C   UNL     1       3.627  -9.635  -3.466  0.00  0.00    +0.022 C 
BRANCH  24  25
ATOM     25  C   UNL     1       4.339 -10.067  -4.722  0.00  0.00    +0.211 A 
ATOM     26  N   UNL     1       5.580  -9.808  -5.020  0.00  0.00    -0.193 NA
ATOM     27  C   UNL     1       5.887 -10.344  -6.215  0.00  0.00    +0.202 A 
ATOM     28  N   UNL     1       4.827 -10.954  -6.686  0.00  0.00    -0.056 NA
ATOM     29  O   UNL     1       3.803 -10.786  -5.716  0.00  0.00    -0.340 OA
BRANCH  27  30
ATOM     30  C   UNL     1       7.207 -10.259  -6.889  0.00  0.00    +0.022 A 
ATOM     31  C   UNL     1       8.261  -9.582  -6.278  0.00  0.00    +0.012 A 
ATOM     32  C   UNL     1       9.486  -9.506  -6.909  0.00  0.00    +0.005 A 
ATOM     33  C   UNL     1       9.669 -10.099  -8.145  0.00  0.00    -0.042 A 
ATOM     34  C   UNL     1       8.626 -10.771  -8.756  0.00  0.00    +0.005 A 
ATOM     35  C   UNL     1       7.398 -10.859  -8.131  0.00  0.00    +0.012 A 
BRANCH  33  36
ATOM     36  C   UNL     1      11.009 -10.011  -8.829  0.00  0.00    -0.013 C 
ATOM     37  C   UNL     1      12.076 -10.659  -7.945  0.00  0.00    +0.015 C 
ATOM     38  C   UNL     1      10.945 -10.743 -10.171  0.00  0.00    +0.015 C 
ATOM     39  C   UNL     1      11.366  -8.542  -9.065  0.00  0.00    +0.015 C 
ENDBRANCH  33  36
ENDBRANCH  27  30
ENDBRANCH  24  25
ENDBRANCH   5  24
TORSDOF 8
