REMARK  Name = ZINC24449414
REMARK  6 active torsions:
REMARK  status: ('A' for Active; 'I' for Inactive)
REMARK    1  A    between atoms: C_1  and  C_2
REMARK    2  A    between atoms: C_7  and  C_32
REMARK    3  A    between atoms: N_12  and  C_16
REMARK    4  A    between atoms: C_16  and  N_17
REMARK    5  A    between atoms: N_20  and  S_23
REMARK    6  A    between atoms: S_23  and  C_26
REMARK                            x       y       z     vdW  Elec       q    Type
REMARK                         _______ _______ _______ _____ _____    ______ ____
ROOT
ATOM      1  C   UNL     1      -0.815   5.087  -4.356  0.00  0.00    +0.205 C 
ENDROOT
BRANCH   1  11
ATOM      2  C   UNL     1      -1.482   5.154   0.050  0.00  0.00    +0.010 C 
ATOM      3  C   UNL     1      -1.486   3.624   0.046  0.00  0.00    +0.019 C 
ATOM      4  C   UNL     1      -0.743   3.109   1.282  0.00  0.00    +0.006 C 
ATOM      5  C   UNL     1      -0.729   1.579   1.266  0.00  0.00    +0.001 C 
ATOM      6  C   UNL     1      -0.013   1.086   0.008  0.00  0.00    +0.006 C 
ATOM      7  C   UNL     1      -0.754   1.593  -1.232  0.00  0.00    +0.019 C 
ATOM      8  C   UNL     1      -0.793   3.117  -1.214  0.00  0.00    +0.118 C 
ATOM      9  C   UNL     1      -1.491   3.642  -2.447  0.00  0.00    +0.248 C 
ATOM     10  O   UNL     1      -2.638   3.440  -2.784  0.00  0.00    -0.273 OA
ATOM     11  N   UNL     1      -0.568   4.383  -3.095  0.00  0.00    -0.211 N 
ATOM     12  C   UNL     1       0.601   4.394  -2.443  0.00  0.00    +0.310 C 
ATOM     13  O   UNL     1       1.586   4.993  -2.831  0.00  0.00    -0.252 OA
ATOM     14  N   UNL     1       0.565   3.668  -1.310  0.00  0.00    -0.284 N 
ATOM     15  C   UNL     1      -0.026   1.117  -2.491  0.00  0.00    +0.010 C 
ATOM     16  H   UNL     1       1.306   3.444  -0.529  0.00  0.00    +0.151 HD
ENDBRANCH   1  11
BRANCH   1  17
ATOM     17  N   UNL     1      -0.493   4.201  -5.483  0.00  0.00    -0.284 NA
ATOM     18  C   UNL     1       0.953   4.179  -5.739  0.00  0.00    +0.103 C 
ATOM     19  C   UNL     1       1.265   3.113  -6.795  0.00  0.00    +0.125 C 
ATOM     20  N   UNL     1       0.428   3.367  -7.977  0.00  0.00    -0.174 NA
ATOM     21  C   UNL     1      -1.020   3.538  -7.781  0.00  0.00    +0.125 C 
ATOM     22  C   UNL     1      -1.242   4.588  -6.686  0.00  0.00    +0.103 C 
BRANCH  20  23
ATOM     23  S   UNL     1       1.097   3.458  -9.489  0.00  0.00    +0.067 S 
ATOM     24  O   UNL     1       2.316   2.728  -9.438  0.00  0.00    -0.152 OA
ATOM     25  O   UNL     1       0.061   3.147 -10.411  0.00  0.00    -0.152 OA
BRANCH  23  26
ATOM     26  C   UNL     1       1.530   5.143  -9.768  0.00  0.00    +0.144 A 
ATOM     27  C   UNL     1       2.693   5.782  -9.491  0.00  0.00    +0.038 A 
ATOM     28  C   UNL     1       2.810   7.124  -9.800  0.00  0.00    +0.030 A 
ATOM     29  C   UNL     1       1.757   7.761 -10.371  0.00  0.00    +0.080 A 
ATOM     30  S   UNL     1       0.553   6.449 -10.494  0.00  0.00    -0.057 S 
ATOM     31 CL   UNL     1       1.619   9.421 -10.863  0.00  0.00    -0.076 Cl
ENDBRANCH  23  26
ENDBRANCH  20  23
ENDBRANCH   1  17
TORSDOF 4
