REMARK  Name = ZINC13096352
REMARK  10 active torsions:
REMARK  status: ('A' for Active; 'I' for Inactive)
REMARK    1  A    between atoms: C_1  and  C_2
REMARK    2  A    between atoms: C_6  and  N_9
REMARK    3  A    between atoms: C_7  and  C_8
REMARK    4  A    between atoms: C_10  and  C_12
REMARK    5  A    between atoms: C_12  and  N_58
REMARK    6  A    between atoms: C_13  and  N_58
REMARK    7  A    between atoms: C_14  and  C_15
REMARK    8  A    between atoms: C_14  and  N_58
REMARK    9  A    between atoms: N_17  and  C_18
REMARK   10  A    between atoms: C_19  and  C_28
REMARK                            x       y       z     vdW  Elec       q    Type
REMARK                         _______ _______ _______ _____ _____    ______ ____
ROOT
ATOM      1  C   UNL     1      -1.472   7.587  -0.132  0.00  0.00    +0.019 C 
ENDROOT
BRANCH   1   2
ATOM      2  C   UNL     1      -2.908   8.014   0.026  0.00  0.00    +0.201 C 
ATOM      3  O   UNL     1      -3.791   7.183   0.026  0.00  0.00    -0.278 OA
ATOM      4  N   UNL     1      -3.211   9.320   0.166  0.00  0.00    -0.281 N 
ATOM      5  H   UNL     1      -2.505   9.985   0.166  0.00  0.00    +0.155 HD
BRANCH   4   6
ATOM      6  C   UNL     1      -4.534   9.713   0.311  0.00  0.00    +0.090 A 
ATOM      7  C   UNL     1      -5.039  10.993   0.472  0.00  0.00    +0.084 A 
ATOM      8  C   UNL     1      -6.482  11.142   0.597  0.00  0.00    -0.018 A 
ATOM      9  C   UNL     1      -7.179   9.986   0.558  0.00  0.00    -0.004 A 
ATOM     10  S   UNL     1      -5.955   8.723   0.344  0.00  0.00    -0.077 S 
ATOM     11  C   UNL     1      -8.660   9.805   0.685  0.00  0.00    +0.043 C 
ATOM     12  C   UNL     1      -9.372  10.787  -0.255  0.00  0.00    +0.005 C 
ATOM     13  C   UNL     1      -9.614  12.089   0.501  0.00  0.00    +0.001 C 
ATOM     14  C   UNL     1      -8.481  12.339   1.495  0.00  0.00    +0.005 C 
ATOM     15  C   UNL     1      -7.155  12.500   0.760  0.00  0.00    +0.037 C 
BRANCH   7  16
ATOM     16  C   UNL     1      -4.172  12.132   0.509  0.00  0.00    +0.102 C 
ATOM     17  N   UNL     1      -3.483  13.035   0.539  0.00  0.00    -0.191 NA
ENDBRANCH   7  16
ENDBRANCH   4   6
ENDBRANCH   1   2
BRANCH   1  19
ATOM     18  C   UNL     1      -2.043   5.683  -1.514  0.00  0.00    -0.095 C 
ATOM     19  N   UNL     1      -1.422   6.114  -0.244  0.00  0.00    +0.389 N 
ATOM     20  H   UNL     1      -1.943   5.702   0.538  0.00  0.00    -0.081 HD
BRANCH  19  21
ATOM     21  C   UNL     1      -0.020   5.650  -0.184  0.00  0.00    +0.019 C 
BRANCH  21  23
ATOM     22  N   UNL     1       1.162   3.485   0.009  0.00  0.00    -0.287 N 
ATOM     23  C   UNL     1      -0.009   4.147  -0.078  0.00  0.00    +0.201 C 
ATOM     24  O   UNL     1      -1.055   3.532  -0.072  0.00  0.00    -0.278 OA
ATOM     25  H   UNL     1       1.993   3.979   0.085  0.00  0.00    +0.155 HD
BRANCH  22  31
ATOM     26  C   UNL     1       3.389  -0.737   1.187  0.00  0.00    +0.044 C 
ATOM     27  C   UNL     1       2.245   0.014   0.554  0.00  0.00    -0.046 A 
ATOM     28  C   UNL     1       1.211  -0.680  -0.045  0.00  0.00    +0.004 A 
ATOM     29  C   UNL     1       0.160   0.005  -0.627  0.00  0.00    +0.002 A 
ATOM     30  C   UNL     1       0.141   1.386  -0.611  0.00  0.00    +0.023 A 
ATOM     31  C   UNL     1       1.178   2.086  -0.009  0.00  0.00    +0.036 A 
ATOM     32  C   UNL     1       2.232   1.395   0.575  0.00  0.00    -0.026 A 
ATOM     33  C   UNL     1       3.359   2.151   1.229  0.00  0.00    +0.046 C 
ENDBRANCH  22  31
ENDBRANCH  21  23
ENDBRANCH  19  21
ENDBRANCH   1  19
TORSDOF 7
