REMARK  Name = ZINC35415852
REMARK  9 active torsions:
REMARK  status: ('A' for Active; 'I' for Inactive)
REMARK    1  A    between atoms: C_1  and  C_2
REMARK    2  A    between atoms: C_2  and  C_3
REMARK    3  A    between atoms: C_3  and  C_4
REMARK    4  A    between atoms: C_3  and  C_6
REMARK    5  A    between atoms: C_4  and  C_5
REMARK    6  A    between atoms: C_8  and  C_18
REMARK    7  A    between atoms: C_10  and  C_12
REMARK    8  A    between atoms: C_27  and  C_29
REMARK    9  A    between atoms: C_29  and  N_30
REMARK                            x       y       z     vdW  Elec       q    Type
REMARK                         _______ _______ _______ _____ _____    ______ ____
ROOT
ATOM      1  C   UNL     1       1.262  -1.565   1.083  0.00  0.00    +0.048 A 
ATOM      2  C   UNL     1       0.184  -2.327   1.509  0.00  0.00    +0.047 A 
ATOM      3  C   UNL     1       0.263  -3.707   1.399  0.00  0.00    +0.047 A 
ATOM      4  N   UNL     1       1.357  -4.252   0.894  0.00  0.00    -0.232 NA
ATOM      5  C   UNL     1       2.369  -3.495   0.496  0.00  0.00    +0.160 A 
ATOM      6  N   UNL     1       2.324  -2.172   0.583  0.00  0.00    -0.232 NA
ENDROOT
BRANCH   3   7
ATOM      7  C   UNL     1      -0.883  -4.575   1.849  0.00  0.00    +0.024 C 
ATOM      8  C   UNL     1      -0.361  -5.966   2.215  0.00  0.00    -0.069 C 
ATOM      9  N   UNL     1      -0.654  -6.259   3.619  0.00  0.00    +0.381 N 
ATOM     10  C   UNL     1      -2.100  -6.258   3.855  0.00  0.00    -0.078 C 
ATOM     11  C   UNL     1      -2.681  -4.877   3.544  0.00  0.00    -0.015 C 
ATOM     12  C   UNL     1      -1.546  -3.952   3.085  0.00  0.00    -0.007 C 
ATOM     13  C   UNL     1      -0.502  -3.877   4.208  0.00  0.00    -0.013 C 
ATOM     14  C   UNL     1       0.012  -5.295   4.498  0.00  0.00    -0.086 C 
ATOM     15  H   UNL     1      -0.304  -7.181   3.833  0.00  0.00    -0.082 HD
BRANCH  14  16
ATOM     16  C   UNL     1       1.522  -5.348   4.257  0.00  0.00    -0.102 C 
BRANCH  16  17
ATOM     17  N   UNL     1       2.001  -6.723   4.454  0.00  0.00    +0.377 N 
ATOM     18  H   UNL     1       2.997  -6.758   4.295  0.00  0.00    -0.090 HD
ATOM     19  H   UNL     1       1.801  -7.016   5.399  0.00  0.00    -0.090 HD
ATOM     20  H   UNL     1       1.535  -7.338   3.805  0.00  0.00    -0.090 HD
ENDBRANCH  16  17
ENDBRANCH  14  16
ENDBRANCH   3   7
BRANCH   5  21
ATOM     21  C   UNL     1       3.581  -4.142  -0.065  0.00  0.00    +0.022 A 
ATOM     22  C   UNL     1       3.662  -5.532  -0.183  0.00  0.00    +0.031 A 
ATOM     23  C   UNL     1       4.808  -6.093  -0.712  0.00  0.00    +0.111 A 
ATOM     24  N   UNL     1       5.815  -5.336  -1.101  0.00  0.00    -0.263 NA
ATOM     25  C   UNL     1       5.778  -4.021  -1.006  0.00  0.00    +0.111 A 
ATOM     26  C   UNL     1       4.669  -3.378  -0.495  0.00  0.00    +0.031 A 
ENDBRANCH   5  21
BRANCH   1  27
ATOM     27  C   UNL     1       1.221  -0.061   1.184  0.00  0.00    +0.037 C 
BRANCH  27  29
ATOM     28  C   UNL     1       1.351   0.228  -1.294  0.00  0.00    +0.004 C 
ATOM     29  C   UNL     1       0.514   0.513  -0.045  0.00  0.00    +0.006 C 
ENDBRANCH  27  29
BRANCH  27  30
ATOM     30  C   UNL     1       0.458   0.344   2.447  0.00  0.00    +0.006 C 
ATOM     31  C   UNL     1       0.549   1.860   2.633  0.00  0.00    +0.004 C 
ENDBRANCH  27  30
ENDBRANCH   1  27
TORSDOF 7
