REMARK  Name = ZINC08664947
REMARK  4 active torsions:
REMARK  status: ('A' for Active; 'I' for Inactive)
REMARK    1  A    between atoms: C_1  and  C_2
REMARK    2  A    between atoms: C_16  and  C_18
REMARK    3  A    between atoms: C_22  and  O_24
REMARK    4  A    between atoms: C_27  and  C_31
REMARK                            x       y       z     vdW  Elec       q    Type
REMARK                         _______ _______ _______ _____ _____    ______ ____
ROOT
ATOM      1  C   UNL     1      -2.291   3.037  -7.170  0.00  0.00    +0.044 C 
ATOM      2  C   UNL     1      -2.393   3.108  -5.668  0.00  0.00    -0.050 A 
ATOM      3  C   UNL     1      -3.433   3.813  -5.080  0.00  0.00    +0.007 A 
ATOM      4  C   UNL     1      -3.546   3.891  -3.709  0.00  0.00    +0.047 A 
ATOM      5  C   UNL     1      -2.609   3.256  -2.898  0.00  0.00    +0.139 A 
ATOM      6  C   UNL     1      -1.559   2.544  -3.504  0.00  0.00    +0.065 A 
ATOM      7  C   UNL     1      -1.461   2.476  -4.892  0.00  0.00    +0.018 A 
ATOM      8  C   UNL     1      -0.575   1.878  -2.628  0.00  0.00    +0.199 A 
ATOM      9  O   UNL     1       0.361   1.244  -3.083  0.00  0.00    -0.287 OA
ATOM     10  C   UNL     1      -0.780   2.018  -1.183  0.00  0.00    +0.072 A 
ATOM     11  C   UNL     1      -1.833   2.732  -0.717  0.00  0.00    +0.199 A 
ATOM     12  O   UNL     1      -2.704   3.323  -1.558  0.00  0.00    -0.450 OA
ATOM     13  C   UNL     1      -1.795   2.707   0.766  0.00  0.00    +0.288 C 
ATOM     14  O   UNL     1      -2.602   3.254   1.492  0.00  0.00    -0.266 OA
ATOM     15  N   UNL     1      -0.738   1.992   1.193  0.00  0.00    -0.238 N 
ATOM     16  C   UNL     1      -0.018   1.503   0.010  0.00  0.00    +0.151 C 
ATOM     17  C   UNL     1      -0.388   1.757   2.520  0.00  0.00    +0.129 A 
ATOM     18  C   UNL     1       0.791   1.079   2.812  0.00  0.00    +0.047 A 
ATOM     19  C   UNL     1       1.129   0.858   4.135  0.00  0.00    -0.046 A 
ATOM     20  C   UNL     1       0.269   1.313   5.124  0.00  0.00    +0.023 A 
ATOM     21  C   UNL     1      -0.888   1.974   4.762  0.00  0.00    +0.113 A 
ATOM     22  N   UNL     1      -1.183   2.176   3.492  0.00  0.00    -0.240 NA
ATOM     23  C   UNL     1       2.401   0.132   4.494  0.00  0.00    +0.044 C 
ENDROOT
BRANCH  16  24
ATOM     24  C   UNL     1       0.002  -0.004   0.002  0.00  0.00    -0.019 A 
ATOM     25  C   UNL     1      -1.103  -0.712   0.438  0.00  0.00    +0.006 A 
ATOM     26  C   UNL     1      -1.089  -2.095   0.427  0.00  0.00    +0.004 A 
ATOM     27  C   UNL     1       0.033  -2.772  -0.010  0.00  0.00    +0.045 A 
ATOM     28  C   UNL     1       1.145  -2.064  -0.442  0.00  0.00    +0.117 A 
ATOM     29  C   UNL     1       1.127  -0.676  -0.435  0.00  0.00    +0.051 A 
BRANCH  28  30
ATOM     30  O   UNL     1       2.250  -2.728  -0.873  0.00  0.00    -0.507 OA
ATOM     31  H   UNL     1       2.890  -2.920  -0.174  0.00  0.00    +0.292 HD
ENDBRANCH  28  30
ENDBRANCH  16  24
TORSDOF 2
