REMARK  Name = ZINC21168357
REMARK  10 active torsions:
REMARK  status: ('A' for Active; 'I' for Inactive)
REMARK    1  A    between atoms: C_1  and  C_2
REMARK    2  A    between atoms: C_7  and  C_9
REMARK    3  A    between atoms: C_7  and  C_10
REMARK    4  A    between atoms: N_13  and  C_17
REMARK    5  A    between atoms: C_17  and  C_18
REMARK    6  A    between atoms: C_18  and  O_20
REMARK    7  A    between atoms: O_20  and  C_21
REMARK    8  A    between atoms: C_21  and  C_23
REMARK    9  A    between atoms: C_21  and  C_24
REMARK   10  A    between atoms: N_26  and  C_27
REMARK                            x       y       z     vdW  Elec       q    Type
REMARK                         _______ _______ _______ _____ _____    ______ ____
ROOT
ATOM      1  C   UNL     1       0.908  -4.968  -4.665  0.00  0.00    +0.326 C 
ATOM      2  O   UNL     1       1.120  -5.620  -3.670  0.00  0.00    -0.249 OA
ENDROOT
BRANCH   1   3
ATOM      3  C   UNL     1       0.564  -3.506  -4.548  0.00  0.00    +0.238 C 
BRANCH   3  15
ATOM      4  C   UNL     1       0.954   0.813   1.059  0.00  0.00    +0.007 C 
ATOM      5  C   UNL     1       0.776  -0.664   0.704  0.00  0.00    -0.011 C 
ATOM      6  C   UNL     1       1.303  -0.916  -0.711  0.00  0.00    +0.038 C 
ATOM      7  C   UNL     1       1.146  -2.393  -1.058  0.00  0.00    +0.113 C 
ATOM      8  C   UNL     1       1.901  -3.265  -0.062  0.00  0.00    +0.041 C 
ATOM      9  C   UNL     1       1.372  -3.004   1.351  0.00  0.00    -0.032 C 
ATOM     10  C   UNL     1       1.556  -1.526   1.699  0.00  0.00    +0.009 C 
ATOM     11  C   UNL     1      -0.115  -3.361   1.412  0.00  0.00    +0.011 C 
ATOM     12  C   UNL     1       2.145  -3.864   2.353  0.00  0.00    +0.011 C 
ATOM     13  C   UNL     1       1.629  -2.659  -2.465  0.00  0.00    +0.247 C 
ATOM     14  O   UNL     1       2.748  -2.494  -2.900  0.00  0.00    -0.273 OA
ATOM     15  N   UNL     1       0.552  -3.119  -3.135  0.00  0.00    -0.213 N 
ATOM     16  C   UNL     1      -0.530  -3.177  -2.349  0.00  0.00    +0.310 C 
ATOM     17  O   UNL     1      -1.620  -3.559  -2.726  0.00  0.00    -0.252 OA
ATOM     18  N   UNL     1      -0.275  -2.764  -1.092  0.00  0.00    -0.285 N 
ATOM     19  H   UNL     1      -0.904  -2.720  -0.356  0.00  0.00    +0.151 HD
ENDBRANCH   3  15
ENDBRANCH   1   3
BRANCH   1  20
ATOM     20  O   UNL     1       0.978  -5.547  -5.874  0.00  0.00    -0.451 OA
BRANCH  20  21
ATOM     21  C   UNL     1       1.308  -6.936  -5.911  0.00  0.00    +0.259 C 
ATOM     22  C   UNL     1       0.025  -7.768  -5.844  0.00  0.00    +0.062 C 
BRANCH  21  23
ATOM     23  C   UNL     1       2.041  -7.245  -7.191  0.00  0.00    +0.258 C 
ATOM     24  O   UNL     1       2.259  -6.362  -7.993  0.00  0.00    -0.271 OA
ATOM     25  N   UNL     1       2.455  -8.502  -7.444  0.00  0.00    -0.282 N 
ATOM     26  H   UNL     1       2.224  -9.221  -6.835  0.00  0.00    +0.155 HD
BRANCH  25  27
ATOM     27  C   UNL     1       3.217  -8.771  -8.586  0.00  0.00    +0.034 A 
ATOM     28  C   UNL     1       2.958  -8.074  -9.772  0.00  0.00    +0.024 A 
ATOM     29  C   UNL     1       3.683  -8.315 -10.896  0.00  0.00    +0.010 A 
ATOM     30  C   UNL     1       4.709  -9.276 -10.876  0.00  0.00    -0.018 A 
ATOM     31  C   UNL     1       5.475  -9.545 -12.023  0.00  0.00    +0.008 A 
ATOM     32  C   UNL     1       6.462 -10.481 -11.970  0.00  0.00    +0.001 A 
ATOM     33  C   UNL     1       6.727 -11.179 -10.793  0.00  0.00    +0.001 A 
ATOM     34  C   UNL     1       6.006 -10.946  -9.663  0.00  0.00    +0.008 A 
ATOM     35  C   UNL     1       4.979  -9.986  -9.679  0.00  0.00    -0.016 A 
ATOM     36  C   UNL     1       4.218  -9.715  -8.530  0.00  0.00    +0.031 A 
ENDBRANCH  25  27
ENDBRANCH  21  23
ENDBRANCH  20  21
ENDBRANCH   1  20
TORSDOF 6
