REMARK  Name = ZINC02858953
REMARK  10 active torsions:
REMARK  status: ('A' for Active; 'I' for Inactive)
REMARK    1  A    between atoms: C_1  and  C_2
REMARK    2  A    between atoms: C_2  and  O_3
REMARK    3  A    between atoms: O_3  and  C_4
REMARK    4  A    between atoms: C_4  and  C_6
REMARK    5  A    between atoms: C_8  and  C_24
REMARK    6  A    between atoms: C_10  and  N_11
REMARK    7  A    between atoms: N_11  and  C_12
REMARK    8  A    between atoms: C_12  and  N_14
REMARK    9  A    between atoms: N_14  and  N_15
REMARK   10  A    between atoms: C_16  and  C_18
REMARK                            x       y       z     vdW  Elec       q    Type
REMARK                         _______ _______ _______ _____ _____    ______ ____
ROOT
ATOM      1  C   UNL     1       0.002  -0.004   0.002  0.00  0.00    +0.088 A 
ATOM      2  C   UNL     1      -1.182  -0.743   0.009  0.00  0.00    +0.033 A 
ATOM      3  C   UNL     1      -1.080  -2.100   0.001  0.00  0.00    +0.022 A 
ATOM      4  S   UNL     1       0.683  -2.363  -0.017  0.00  0.00    -0.073 S 
ATOM      5  C   UNL     1       1.204  -0.710  -0.019  0.00  0.00    +0.086 A 
ENDROOT
BRANCH   3   6
ATOM      6  C   UNL     1      -2.163  -3.106   0.006  0.00  0.00    -0.011 A 
ATOM      7  C   UNL     1      -3.498  -2.699   0.027  0.00  0.00    +0.009 A 
ATOM      8  C   UNL     1      -4.504  -3.643   0.027  0.00  0.00    +0.001 A 
ATOM      9  C   UNL     1      -4.191  -4.991   0.017  0.00  0.00    +0.000 A 
ATOM     10  C   UNL     1      -2.870  -5.401   0.001  0.00  0.00    +0.001 A 
ATOM     11  C   UNL     1      -1.855  -4.467  -0.004  0.00  0.00    +0.009 A 
ENDBRANCH   3   6
BRANCH   1  12
ATOM     12  C   UNL     1      -0.018   1.461   0.010  0.00  0.00    +0.342 C 
ATOM     13  O   UNL     1       1.027   2.083   0.003  0.00  0.00    -0.245 OA
BRANCH  12  14
ATOM     14  O   UNL     1      -1.195   2.119   0.019  0.00  0.00    -0.461 OA
BRANCH  14  16
ATOM     15  C   UNL     1      -2.560   4.135   0.037  0.00  0.00    +0.048 C 
ATOM     16  C   UNL     1      -1.139   3.570   0.027  0.00  0.00    +0.229 C 
ENDBRANCH  14  16
ENDBRANCH  12  14
ENDBRANCH   1  12
BRANCH   5  17
ATOM     17  N   UNL     1       2.496  -0.214  -0.035  0.00  0.00    -0.290 N 
ATOM     18  H   UNL     1       2.647   0.745  -0.032  0.00  0.00    +0.154 HD
BRANCH  17  19
ATOM     19  C   UNL     1       3.543  -1.061  -0.054  0.00  0.00    +0.151 C 
ATOM     20  S   UNL     1       3.276  -2.752  -0.058  0.00  0.00    -0.017 S 
BRANCH  19  21
ATOM     21  N   UNL     1       4.801  -0.578  -0.070  0.00  0.00    -0.245 N 
ATOM     22  H   UNL     1       5.555  -1.188  -0.083  0.00  0.00    +0.172 HD
BRANCH  21  23
ATOM     23  N   UNL     1       5.020   0.806  -0.066  0.00  0.00    -0.231 N 
ATOM     24  C   UNL     1       6.278   1.290  -0.082  0.00  0.00    +0.267 C 
ATOM     25  O   UNL     1       7.224   0.525  -0.099  0.00  0.00    -0.268 OA
ATOM     26  H   UNL     1       4.266   1.416  -0.052  0.00  0.00    +0.173 HD
BRANCH  24  27
ATOM     27  C   UNL     1       6.506   2.737  -0.078  0.00  0.00    +0.076 A 
ATOM     28  C   UNL     1       7.706   3.432  -0.092  0.00  0.00    +0.022 A 
ATOM     29  C   UNL     1       7.634   4.803  -0.085  0.00  0.00    +0.024 A 
ATOM     30  C   UNL     1       6.414   5.403  -0.065  0.00  0.00    +0.056 A 
ATOM     31  S   UNL     1       5.313   4.064  -0.063  0.00  0.00    -0.077 S 
ATOM     32 BR   UNL     1       6.014   7.252  -0.052  0.00  0.00    -0.043 Br
ENDBRANCH  24  27
ENDBRANCH  21  23
ENDBRANCH  19  21
ENDBRANCH  17  19
ENDBRANCH   5  17
TORSDOF 9
