REMARK  Name = ZINC39633761
REMARK  4 active torsions:
REMARK  status: ('A' for Active; 'I' for Inactive)
REMARK    1  A    between atoms: C_6  and  C_7
REMARK    2  A    between atoms: C_10  and  C_12
REMARK    3  A    between atoms: C_16  and  C_25
REMARK    4  A    between atoms: N_27  and  C_28
REMARK                            x       y       z     vdW  Elec       q    Type
REMARK                         _______ _______ _______ _____ _____    ______ ____
ROOT
ATOM      1  C   UNL     1      -4.587  -0.946   0.150  0.00  0.00    +0.282 C 
ATOM      2  O   UNL     1      -5.233  -1.976   0.189  0.00  0.00    -0.267 OA
ATOM      3  N   UNL     1      -5.217   0.245   0.116  0.00  0.00    -0.294 N 
ATOM      4  C   UNL     1      -4.608   1.594   0.060  0.00  0.00    +0.121 C 
ATOM      5  C   UNL     1      -5.514   2.392  -0.904  0.00  0.00    +0.100 C 
ATOM      6  C   UNL     1      -6.871   1.670  -0.855  0.00  0.00    -0.004 C 
ATOM      7  C   UNL     1      -6.678   0.500   0.120  0.00  0.00    +0.115 C 
ATOM      8  C   UNL     1      -7.239   1.142  -2.238  0.00  0.00    -0.010 C 
ATOM      9  C   UNL     1      -8.618   0.479  -2.175  0.00  0.00    -0.082 C 
ATOM     10  N   UNL     1      -9.614   1.458  -1.722  0.00  0.00    +0.379 N 
ATOM     11  C   UNL     1      -9.303   1.891  -0.355  0.00  0.00    -0.082 C 
ATOM     12  C   UNL     1      -7.954   2.614  -0.340  0.00  0.00    -0.010 C 
ATOM     13  H   UNL     1      -9.602   2.257  -2.338  0.00  0.00    -0.086 HD
ATOM     14  H   UNL     1     -10.530   1.036  -1.740  0.00  0.00    -0.086 HD
ENDROOT
BRANCH   1  18
ATOM     15  C   UNL     1      -1.018  -0.369   0.101  0.00  0.00    +0.136 A 
ATOM     16  C   UNL     1      -1.019  -1.734   0.146  0.00  0.00    +0.050 A 
ATOM     17  C   UNL     1      -2.355  -2.144   0.171  0.00  0.00    +0.055 A 
ATOM     18  C   UNL     1      -3.123  -1.000   0.139  0.00  0.00    +0.190 A 
ATOM     19  O   UNL     1      -2.291   0.062   0.103  0.00  0.00    -0.450 OA
BRANCH  15  25
ATOM     20  C   UNL     1       0.047   1.881   0.024  0.00  0.00    +0.014 A 
ATOM     21  C   UNL     1       1.171   2.679  -0.010  0.00  0.00    +0.039 A 
ATOM     22  C   UNL     1       2.433   2.104  -0.007  0.00  0.00    +0.123 A 
ATOM     23  C   UNL     1       2.572   0.725   0.031  0.00  0.00    +0.039 A 
ATOM     24  C   UNL     1       1.455  -0.082   0.065  0.00  0.00    +0.014 A 
ATOM     25  C   UNL     1       0.182   0.491   0.063  0.00  0.00    +0.017 A 
ATOM     26  F   UNL     1       3.531   2.890  -0.041  0.00  0.00    -0.205 F 
ENDBRANCH  15  25
ENDBRANCH   1  18
BRANCH   5  27
ATOM     27  C   UNL     1      -4.950   2.360  -2.301  0.00  0.00    +0.218 C 
ATOM     28  O   UNL     1      -4.306   1.403  -2.674  0.00  0.00    -0.275 OA
ATOM     29  N   UNL     1      -5.163   3.395  -3.138  0.00  0.00    -0.312 N 
ATOM     30  H   UNL     1      -5.679   4.161  -2.840  0.00  0.00    +0.149 HD
BRANCH  29  31
ATOM     31  C   UNL     1      -4.615   3.364  -4.496  0.00  0.00    +0.073 C 
ATOM     32  C   UNL     1      -3.138   3.805  -4.449  0.00  0.00    +0.022 C 
ATOM     33  C   UNL     1      -2.449   3.300  -5.688  0.00  0.00    +0.002 C 
ATOM     34  C   UNL     1      -2.427   4.346  -6.819  0.00  0.00    +0.000 C 
ATOM     35  C   UNL     1      -3.762   5.103  -6.957  0.00  0.00    +0.000 C 
ATOM     36  C   UNL     1      -4.955   4.197  -6.820  0.00  0.00    +0.002 C 
ATOM     37  C   UNL     1      -5.423   4.222  -5.350  0.00  0.00    +0.022 C 
ENDBRANCH  29  31
ENDBRANCH   5  27
TORSDOF 4
