REMARK  Name = ZINC35427356
REMARK  4 active torsions:
REMARK  status: ('A' for Active; 'I' for Inactive)
REMARK    1  A    between atoms: C_1  and  C_2
REMARK    2  A    between atoms: C_7  and  N_8
REMARK    3  A    between atoms: C_23  and  C_25
REMARK    4  A    between atoms: N_33  and  C_36
REMARK                            x       y       z     vdW  Elec       q    Type
REMARK                         _______ _______ _______ _____ _____    ______ ____
ROOT
ATOM      1  N   UNL     1       0.028  -0.047   2.411  0.00  0.00    -0.269 N 
ATOM      2  C   UNL     1      -0.057  -0.716   3.578  0.00  0.00    +0.308 C 
ATOM      3  O   UNL     1      -0.045  -1.932   3.583  0.00  0.00    -0.252 OA
ATOM      4  N   UNL     1      -0.153  -0.038   4.738  0.00  0.00    -0.268 N 
ATOM      5  C   UNL     1      -0.176   1.435   4.772  0.00  0.00    +0.148 C 
ATOM      6  C   UNL     1       0.621   2.007   5.924  0.00  0.00    +0.004 A 
ATOM      7  C   UNL     1       1.827   2.711   5.750  0.00  0.00    -0.034 A 
ATOM      8  C   UNL     1       2.447   3.193   6.862  0.00  0.00    -0.021 A 
ATOM      9  S   UNL     1       1.384   2.692   8.189  0.00  0.00    -0.077 S 
ATOM     10  C   UNL     1       0.182   1.852   7.203  0.00  0.00    +0.090 A 
ATOM     11  N   UNL     1      -0.963   1.149   7.553  0.00  0.00    -0.312 N 
ATOM     12  C   UNL     1      -1.974   1.447   8.402  0.00  0.00    +0.092 A 
ATOM     13  C   UNL     1      -2.889   0.452   8.329  0.00  0.00    +0.020 A 
ATOM     14  C   UNL     1      -2.404  -0.504   7.411  0.00  0.00    +0.025 A 
ATOM     15  C   UNL     1      -1.215  -0.070   6.968  0.00  0.00    +0.049 A 
ATOM     16  C   UNL     1      -0.248  -0.738   6.042  0.00  0.00    +0.155 C 
ATOM     17  C   UNL     1       3.727   3.959   6.913  0.00  0.00    -0.036 C 
ATOM     18  N   UNL     1       4.414   3.799   5.617  0.00  0.00    +0.381 N 
ATOM     19  C   UNL     1       3.474   4.091   4.527  0.00  0.00    -0.074 C 
ATOM     20  C   UNL     1       2.458   2.955   4.381  0.00  0.00    +0.018 C 
ATOM     21  C   UNL     1       5.550   4.729   5.547  0.00  0.00    -0.096 C 
ATOM     22  H   UNL     1       0.081   0.922   2.410  0.00  0.00    +0.156 HD
ATOM     23  H   UNL     1       4.749   2.852   5.528  0.00  0.00    -0.082 HD
ENDROOT
BRANCH   1  30
ATOM     24  C   UNL     1      -1.255   1.134   0.162  0.00  0.00    +0.045 C 
ATOM     25  C   UNL     1      -0.576  -0.209   0.078  0.00  0.00    -0.029 A 
ATOM     26  C   UNL     1      -0.560  -0.902  -1.117  0.00  0.00    +0.005 A 
ATOM     27  C   UNL     1       0.063  -2.135  -1.194  0.00  0.00    +0.000 A 
ATOM     28  C   UNL     1       0.670  -2.677  -0.076  0.00  0.00    +0.002 A 
ATOM     29  C   UNL     1       0.657  -1.990   1.121  0.00  0.00    +0.023 A 
ATOM     30  C   UNL     1       0.038  -0.749   1.201  0.00  0.00    +0.038 A 
ENDBRANCH   1  30
BRANCH  16  31
ATOM     31  C   UNL     1       1.113  -0.755   6.690  0.00  0.00    -0.020 A 
ATOM     32  C   UNL     1       1.222  -0.773   8.068  0.00  0.00    +0.006 A 
ATOM     33  C   UNL     1       2.469  -0.789   8.663  0.00  0.00    +0.002 A 
ATOM     34  C   UNL     1       3.609  -0.785   7.880  0.00  0.00    +0.020 A 
ATOM     35  C   UNL     1       3.500  -0.767   6.501  0.00  0.00    +0.041 A 
ATOM     36  C   UNL     1       2.251  -0.757   5.906  0.00  0.00    +0.025 A 
ATOM     37 CL   UNL     1       4.931  -0.762   5.518  0.00  0.00    -0.084 Cl
ENDBRANCH  16  31
TORSDOF 2
