REMARK  Name = ZINC40010954
REMARK  11 active torsions:
REMARK  status: ('A' for Active; 'I' for Inactive)
REMARK    1  A    between atoms: C_1  and  C_2
REMARK    2  A    between atoms: C_2  and  N_3
REMARK    3  A    between atoms: N_3  and  C_4
REMARK    4  A    between atoms: C_4  and  N_6
REMARK    5  A    between atoms: C_11  and  O_33
REMARK    6  A    between atoms: C_12  and  O_31
REMARK    7  A    between atoms: C_15  and  C_17
REMARK    8  A    between atoms: C_23  and  O_29
REMARK    9  A    between atoms: O_29  and  C_30
REMARK   10  A    between atoms: O_31  and  C_32
REMARK   11  A    between atoms: O_33  and  C_34
REMARK                            x       y       z     vdW  Elec       q    Type
REMARK                         _______ _______ _______ _____ _____    ______ ____
ROOT
ATOM      1  N   UNL     1      -2.917  -2.292  -0.104  0.00  0.00    -0.304 N 
ATOM      2  C   UNL     1      -4.096  -1.419  -0.234  0.00  0.00    +0.112 C 
ATOM      3  C   UNL     1      -4.727  -1.684  -1.599  0.00  0.00    +0.054 C 
ATOM      4  C   UNL     1      -4.872  -3.162  -1.847  0.00  0.00    -0.037 A 
ATOM      5  C   UNL     1      -5.789  -3.566  -2.811  0.00  0.00    +0.053 A 
ATOM      6  C   UNL     1      -5.966  -4.907  -3.096  0.00  0.00    +0.162 A 
ATOM      7  C   UNL     1      -5.218  -5.861  -2.413  0.00  0.00    +0.162 A 
ATOM      8  C   UNL     1      -4.309  -5.457  -1.452  0.00  0.00    +0.055 A 
ATOM      9  C   UNL     1      -4.139  -4.108  -1.165  0.00  0.00    -0.019 A 
ATOM     10  C   UNL     1      -3.150  -3.740  -0.093  0.00  0.00    +0.121 C 
ENDROOT
BRANCH  10  11
ATOM     11  C   UNL     1      -3.705  -4.156   1.271  0.00  0.00    +0.123 C 
ATOM     12  C   UNL     1      -5.119  -3.620   1.380  0.00  0.00    -0.003 C 
ATOM     13  C   UNL     1      -5.394  -2.788   2.421  0.00  0.00    -0.007 A 
ATOM     14  C   UNL     1      -6.736  -2.228   2.597  0.00  0.00    +0.013 A 
ATOM     15  C   UNL     1      -6.972  -1.404   3.646  0.00  0.00    +0.046 A 
ATOM     16  C   UNL     1      -5.960  -1.080   4.560  0.00  0.00    +0.122 A 
ATOM     17  C   UNL     1      -4.679  -1.576   4.447  0.00  0.00    +0.069 A 
ATOM     18  C   UNL     1      -4.343  -2.435   3.393  0.00  0.00    +0.044 A 
ATOM     19  N   UNL     1      -3.099  -2.909   3.293  0.00  0.00    -0.284 N 
ATOM     20  C   UNL     1      -2.714  -3.724   2.327  0.00  0.00    +0.226 C 
ATOM     21  O   UNL     1      -1.566  -4.124   2.288  0.00  0.00    -0.275 OA
ATOM     22  H   UNL     1      -2.447  -2.643   3.961  0.00  0.00    +0.155 HD
BRANCH  16  23
ATOM     23  O   UNL     1      -6.251  -0.251   5.591  0.00  0.00    -0.495 OA
ATOM     24  C   UNL     1      -7.591   0.240   5.670  0.00  0.00    +0.277 C 
ENDBRANCH  16  23
ENDBRANCH  10  11
BRANCH   1  25
ATOM     25  C   UNL     1      -1.674  -1.781  -0.005  0.00  0.00    +0.133 C 
ATOM     26  S   UNL     1      -1.451  -0.088   0.110  0.00  0.00    -0.019 S 
BRANCH  25  27
ATOM     27  N   UNL     1      -0.606  -2.603   0.004  0.00  0.00    -0.327 N 
ATOM     28  H   UNL     1      -0.735  -3.565   0.013  0.00  0.00    +0.148 HD
BRANCH  27  30
ATOM     29  C   UNL     1       1.770  -3.184   0.011  0.00  0.00    +0.024 C 
ATOM     30  C   UNL     1       0.748  -2.045  -0.000  0.00  0.00    +0.100 C 
ENDBRANCH  27  30
ENDBRANCH  25  27
ENDBRANCH   1  25
BRANCH   7  31
ATOM     31  O   UNL     1      -5.380  -7.183  -2.687  0.00  0.00    -0.491 OA
ATOM     32  C   UNL     1      -4.577  -8.103  -1.945  0.00  0.00    +0.277 C 
ENDBRANCH   7  31
BRANCH   6  33
ATOM     33  O   UNL     1      -6.867  -5.291  -4.039  0.00  0.00    -0.491 OA
ATOM     34  C   UNL     1      -7.598  -4.256  -4.698  0.00  0.00    +0.277 C 
ENDBRANCH   6  33
TORSDOF 7
