REMARK  Name = ZINC17971107
REMARK  10 active torsions:
REMARK  status: ('A' for Active; 'I' for Inactive)
REMARK    1  A    between atoms: C_1  and  C_2
REMARK    2  A    between atoms: C_2  and  C_3
REMARK    3  A    between atoms: C_2  and  C_4
REMARK    4  A    between atoms: C_4  and  C_5
REMARK    5  A    between atoms: C_5  and  N_6
REMARK    6  A    between atoms: N_6  and  C_7
REMARK    7  A    between atoms: C_8  and  N_23
REMARK    8  A    between atoms: N_9  and  C_16
REMARK    9  A    between atoms: C_16  and  C_17
REMARK   10  A    between atoms: C_24  and  C_26
REMARK                            x       y       z     vdW  Elec       q    Type
REMARK                         _______ _______ _______ _____ _____    ______ ____
ROOT
ATOM      1  N   UNL     1       3.478   1.236  -1.760  0.00  0.00    -0.264 N 
ATOM      2  C   UNL     1       4.092   0.569  -0.760  0.00  0.00    +0.226 C 
ATOM      3  O   UNL     1       5.019   1.083  -0.168  0.00  0.00    -0.275 OA
ENDROOT
BRANCH   2   4
ATOM      4  C   UNL     1       3.628  -0.813  -0.380  0.00  0.00    +0.050 C 
ATOM      5  C   UNL     1       2.223  -0.732   0.220  0.00  0.00    +0.019 C 
ATOM      6  C   UNL     1       1.752  -2.135   0.607  0.00  0.00    -0.008 C 
ATOM      7  C   UNL     1       1.725  -3.026  -0.638  0.00  0.00    +0.007 C 
ATOM      8  C   UNL     1       3.130  -3.107  -1.237  0.00  0.00    -0.008 C 
ATOM      9  C   UNL     1       3.602  -1.703  -1.624  0.00  0.00    +0.019 C 
ATOM     10  C   UNL     1       4.091  -3.701  -0.205  0.00  0.00    +0.026 C 
ATOM     11  C   UNL     1       4.118  -2.811   1.039  0.00  0.00    +0.047 C 
ATOM     12  C   UNL     1       2.712  -2.730   1.638  0.00  0.00    +0.026 C 
ATOM     13  C   UNL     1       4.589  -1.408   0.652  0.00  0.00    +0.039 C 
ATOM     14 CL   UNL     1       5.250  -3.511   2.255  0.00  0.00    -0.118 Cl
ENDBRANCH   2   4
BRANCH   1  15
ATOM     15  C   UNL     1       3.940   2.511  -2.146  0.00  0.00    +0.140 A 
ATOM     16  C   UNL     1       5.183   2.661  -2.727  0.00  0.00    +0.128 A 
ATOM     17  N   UNL     1       5.604   3.917  -3.097  0.00  0.00    -0.276 N 
ATOM     18  C   UNL     1       4.818   4.989  -2.886  0.00  0.00    +0.331 A 
ATOM     19  O   UNL     1       5.210   6.091  -3.217  0.00  0.00    -0.246 OA
ATOM     20  N   UNL     1       3.606   4.862  -2.316  0.00  0.00    -0.273 N 
ATOM     21  H   UNL     1       2.980   5.752  -2.152  0.00  0.00    +0.173 HD
ATOM     22  C   UNL     1       3.144   3.654  -1.940  0.00  0.00    +0.277 A 
ATOM     23  O   UNL     1       2.044   3.550  -1.424  0.00  0.00    -0.266 OA
BRANCH  16  24
ATOM     24  N   UNL     1       5.989   1.568  -2.937  0.00  0.00    -0.343 N 
ATOM     25  H   UNL     1       6.978   1.695  -3.401  0.00  0.00    +0.144 HD
ATOM     26  H   UNL     1       5.644   0.566  -2.643  0.00  0.00    +0.144 HD
ENDBRANCH  16  24
BRANCH  17  27
ATOM     27  C   UNL     1       6.918   4.090  -3.721  0.00  0.00    +0.163 C 
BRANCH  27  28
ATOM     28  C   UNL     1       7.954   4.327  -2.652  0.00  0.00    -0.028 A 
ATOM     29  C   UNL     1       8.242   5.615  -2.241  0.00  0.00    +0.005 A 
ATOM     30  C   UNL     1       9.189   5.831  -1.258  0.00  0.00    +0.000 A 
ATOM     31  C   UNL     1       9.855   4.760  -0.692  0.00  0.00    +0.000 A 
ATOM     32  C   UNL     1       9.571   3.472  -1.107  0.00  0.00    +0.000 A 
ATOM     33  C   UNL     1       8.620   3.256  -2.087  0.00  0.00    +0.005 A 
ENDBRANCH  27  28
ENDBRANCH  17  27
ENDBRANCH   1  15
BRANCH   1  34
ATOM     34  C   UNL     1       2.331   0.634  -2.445  0.00  0.00    +0.114 C 
BRANCH  34  35
ATOM     35  C   UNL     1       2.760   0.150  -3.831  0.00  0.00    +0.022 C 
BRANCH  35  37
ATOM     36  C   UNL     1       0.979  -1.601  -3.888  0.00  0.00    +0.007 C 
ATOM     37  C   UNL     1       1.538  -0.363  -4.593  0.00  0.00    -0.016 C 
ATOM     38  C   UNL     1       1.944  -0.731  -6.022  0.00  0.00    +0.007 C 
ENDBRANCH  35  37
ENDBRANCH  34  35
ENDBRANCH   1  34
TORSDOF 8
