REMARK  Name = ZINC39324806
REMARK  8 active torsions:
REMARK  status: ('A' for Active; 'I' for Inactive)
REMARK    1  A    between atoms: C_1  and  C_2
REMARK    2  A    between atoms: C_7  and  C_14
REMARK    3  A    between atoms: C_14  and  N_15
REMARK    4  A    between atoms: N_15  and  C_16
REMARK    5  A    between atoms: N_15  and  S_24
REMARK    6  A    between atoms: C_16  and  C_17
REMARK    7  A    between atoms: C_17  and  C_18
REMARK    8  A    between atoms: S_24  and  C_27
REMARK                            x       y       z     vdW  Elec       q    Type
REMARK                         _______ _______ _______ _____ _____    ______ ____
ROOT
ATOM      1  N   UNL     1      -1.041  -6.678   2.477  0.00  0.00    -0.175 NA
ENDROOT
BRANCH   1   2
ATOM      2  S   UNL     1      -0.211  -8.106   2.356  0.00  0.00    +0.061 S 
ATOM      3  O   UNL     1      -0.667  -8.931   3.420  0.00  0.00    -0.153 OA
ATOM      4  O   UNL     1      -0.288  -8.507   0.995  0.00  0.00    -0.153 OA
BRANCH   2   5
ATOM      5  C   UNL     1       1.484  -7.753   2.682  0.00  0.00    +0.109 A 
ATOM      6  C   UNL     1       2.328  -7.405   1.645  0.00  0.00    +0.032 A 
ATOM      7  C   UNL     1       3.659  -7.129   1.896  0.00  0.00    +0.051 A 
ATOM      8  C   UNL     1       4.150  -7.199   3.192  0.00  0.00    +0.162 A 
ATOM      9  C   UNL     1       3.300  -7.546   4.235  0.00  0.00    +0.164 A 
ATOM     10  C   UNL     1       1.965  -7.819   3.976  0.00  0.00    +0.078 A 
ATOM     11  O   UNL     1       3.760  -7.614   5.514  0.00  0.00    -0.485 OA
ATOM     12  C   UNL     1       5.179  -7.692   5.685  0.00  0.00    +0.270 C 
ATOM     13  C   UNL     1       5.832  -6.641   4.777  0.00  0.00    +0.270 C 
ATOM     14  O   UNL     1       5.463  -6.928   3.424  0.00  0.00    -0.485 OA
ENDBRANCH   2   5
ENDBRANCH   1   2
BRANCH   1  15
ATOM     15  C   UNL     1      -1.215  -5.830   1.295  0.00  0.00    +0.126 C 
BRANCH  15  22
ATOM     16  C   UNL     1      -0.124   1.520   0.298  0.00  0.00    +0.044 C 
ATOM     17  C   UNL     1      -0.135   0.017   0.195  0.00  0.00    -0.049 A 
ATOM     18  C   UNL     1      -0.309  -0.567  -1.060  0.00  0.00    +0.004 A 
ATOM     19  C   UNL     1      -0.328  -1.916  -1.215  0.00  0.00    +0.010 A 
ATOM     20  C   UNL     1      -0.161  -2.765  -0.035  0.00  0.00    -0.007 A 
ATOM     21  C   UNL     1      -0.173  -4.124  -0.143  0.00  0.00    -0.003 C 
ATOM     22  C   UNL     1       0.007  -4.924   1.132  0.00  0.00    +0.114 C 
ATOM     23  C   UNL     1       0.185  -4.151   2.419  0.00  0.00    +0.225 C 
ATOM     24  O   UNL     1       0.334  -4.742   3.471  0.00  0.00    -0.275 OA
ATOM     25  N   UNL     1       0.179  -2.829   2.396  0.00  0.00    -0.284 N 
ATOM     26  C   UNL     1       0.021  -2.121   1.278  0.00  0.00    +0.041 A 
ATOM     27  C   UNL     1       0.029  -0.715   1.328  0.00  0.00    +0.027 A 
ATOM     28  H   UNL     1       0.294  -2.351   3.232  0.00  0.00    +0.155 HD
ENDBRANCH  15  22
ENDBRANCH   1  15
BRANCH   1  29
ATOM     29  C   UNL     1      -1.601  -6.262   3.765  0.00  0.00    +0.114 C 
BRANCH  29  30
ATOM     30  C   UNL     1      -3.054  -6.728   3.864  0.00  0.00    +0.052 C 
BRANCH  30  31
ATOM     31  C   UNL     1      -3.630  -6.301   5.189  0.00  0.00    -0.046 A 
ATOM     32  C   UNL     1      -3.526  -7.133   6.288  0.00  0.00    +0.003 A 
ATOM     33  C   UNL     1      -4.054  -6.740   7.504  0.00  0.00    +0.000 A 
ATOM     34  C   UNL     1      -4.686  -5.516   7.621  0.00  0.00    +0.000 A 
ATOM     35  C   UNL     1      -4.789  -4.684   6.522  0.00  0.00    +0.000 A 
ATOM     36  C   UNL     1      -4.258  -5.075   5.307  0.00  0.00    +0.003 A 
ENDBRANCH  30  31
ENDBRANCH  29  30
ENDBRANCH   1  29
TORSDOF 7
