REMARK  Name = ZINC11184244
REMARK  12 active torsions:
REMARK  status: ('A' for Active; 'I' for Inactive)
REMARK    1  A    between atoms: C_1  and  C_2
REMARK    2  A    between atoms: C_5  and  C_36
REMARK    3  A    between atoms: C_6  and  N_8
REMARK    4  A    between atoms: C_14  and  C_19
REMARK    5  A    between atoms: C_19  and  O_21
REMARK    6  A    between atoms: O_21  and  C_22
REMARK    7  A    between atoms: C_22  and  C_24
REMARK    8  A    between atoms: C_22  and  C_25
REMARK    9  A    between atoms: N_27  and  C_28
REMARK   10  A    between atoms: N_32  and  C_33
REMARK   11  A    between atoms: C_33  and  C_34
REMARK   12  A    between atoms: C_33  and  C_35
REMARK                            x       y       z     vdW  Elec       q    Type
REMARK                         _______ _______ _______ _____ _____    ______ ____
ROOT
ATOM      1  N   UNL     1     -11.949   5.806  -1.996  0.00  0.00    -0.202 N 
ATOM      2  C   UNL     1     -11.608   4.668  -1.365  0.00  0.00    +0.258 C 
ATOM      3  O   UNL     1     -12.361   3.756  -1.092  0.00  0.00    -0.269 OA
ATOM      4  C   UNL     1     -10.160   4.715  -1.058  0.00  0.00    +0.050 A 
ATOM      5  C   UNL     1      -9.277   3.846  -0.436  0.00  0.00    +0.014 A 
ATOM      6  C   UNL     1      -7.944   4.195  -0.304  0.00  0.00    +0.016 A 
ATOM      7  C   UNL     1      -7.484   5.417  -0.794  0.00  0.00    +0.060 A 
ATOM      8  C   UNL     1      -8.369   6.302  -1.418  0.00  0.00    +0.028 A 
ATOM      9  C   UNL     1      -9.701   5.952  -1.556  0.00  0.00    +0.051 A 
ATOM     10  C   UNL     1     -10.884   6.614  -2.147  0.00  0.00    +0.258 C 
ATOM     11  O   UNL     1     -10.892   7.706  -2.679  0.00  0.00    -0.269 OA
ENDROOT
BRANCH   1  17
ATOM     12  C   UNL     1     -16.360   7.798  -1.125  0.00  0.00    +0.044 C 
ATOM     13  C   UNL     1     -15.401   7.075  -2.036  0.00  0.00    -0.049 A 
ATOM     14  C   UNL     1     -15.799   6.713  -3.310  0.00  0.00    +0.004 A 
ATOM     15  C   UNL     1     -14.922   6.049  -4.148  0.00  0.00    +0.005 A 
ATOM     16  C   UNL     1     -13.644   5.752  -3.717  0.00  0.00    -0.029 A 
ATOM     17  C   UNL     1     -13.243   6.111  -2.437  0.00  0.00    +0.048 A 
ATOM     18  C   UNL     1     -14.126   6.777  -1.598  0.00  0.00    +0.027 A 
ATOM     19  C   UNL     1     -12.687   5.035  -4.634  0.00  0.00    +0.045 C 
ENDBRANCH   1  17
BRANCH   7  20
ATOM     20  C   UNL     1      -6.058   5.781  -0.648  0.00  0.00    +0.340 C 
ATOM     21  O   UNL     1      -5.656   6.845  -1.074  0.00  0.00    -0.245 OA
BRANCH  20  22
ATOM     22  O   UNL     1      -5.205   4.933  -0.042  0.00  0.00    -0.449 OA
BRANCH  22  23
ATOM     23  C   UNL     1      -3.820   5.356   0.066  0.00  0.00    +0.259 C 
ATOM     24  C   UNL     1      -3.622   6.122   1.375  0.00  0.00    +0.062 C 
BRANCH  23  25
ATOM     25  C   UNL     1      -2.923   4.145   0.052  0.00  0.00    +0.259 C 
ATOM     26  O   UNL     1      -3.405   3.032   0.051  0.00  0.00    -0.271 OA
ATOM     27  N   UNL     1      -1.584   4.299   0.040  0.00  0.00    -0.268 N 
ATOM     28  H   UNL     1      -1.198   5.189   0.040  0.00  0.00    +0.156 HD
BRANCH  27  29
ATOM     29  C   UNL     1      -0.753   3.179   0.026  0.00  0.00    +0.123 A 
ATOM     30  C   UNL     1      -1.157   1.879   0.017  0.00  0.00    +0.065 A 
ATOM     31  C   UNL     1      -0.013   1.076   0.008  0.00  0.00    +0.136 A 
ATOM     32  N   UNL     1       1.038   1.856   0.002  0.00  0.00    -0.178 NA
ATOM     33  N   UNL     1       0.599   3.187   0.013  0.00  0.00    -0.248 N 
BRANCH  33  34
ATOM     34  C   UNL     1       1.454   4.376   0.012  0.00  0.00    +0.103 C 
ATOM     35  C   UNL     1       2.349   4.362   1.253  0.00  0.00    +0.032 C 
ATOM     36  C   UNL     1       2.326   4.377  -1.245  0.00  0.00    +0.032 C 
ENDBRANCH  33  34
ENDBRANCH  27  29
ENDBRANCH  23  25
ENDBRANCH  22  23
ENDBRANCH  20  22
ENDBRANCH   7  20
TORSDOF 7
