REMARK  Name = ZINC28056885
REMARK  5 active torsions:
REMARK  status: ('A' for Active; 'I' for Inactive)
REMARK    1  A    between atoms: C_1  and  C_2
REMARK    2  A    between atoms: C_10  and  C_18
REMARK    3  A    between atoms: C_22  and  O_24
REMARK    4  A    between atoms: O_24  and  C_25
REMARK    5  A    between atoms: C_26  and  C_29
REMARK                            x       y       z     vdW  Elec       q    Type
REMARK                         _______ _______ _______ _____ _____    ______ ____
ROOT
ATOM      1  C   UNL     1       4.858   0.135   0.573  0.00  0.00    +0.044 C 
ATOM      2  C   UNL     1       3.391  -0.188   0.456  0.00  0.00    -0.050 A 
ATOM      3  C   UNL     1       2.460   0.836   0.439  0.00  0.00    +0.007 A 
ATOM      4  C   UNL     1       1.109   0.555   0.333  0.00  0.00    +0.046 A 
ATOM      5  C   UNL     1       0.686  -0.757   0.243  0.00  0.00    +0.131 A 
ATOM      6  C   UNL     1       1.627  -1.795   0.258  0.00  0.00    +0.038 A 
ATOM      7  C   UNL     1       2.982  -1.505   0.366  0.00  0.00    +0.016 A 
ATOM      8  C   UNL     1       1.139  -3.190   0.152  0.00  0.00    +0.050 C 
ATOM      9  C   UNL     1      -0.152  -3.431   0.393  0.00  0.00    +0.025 C 
ATOM     10  C   UNL     1      -0.745  -4.816   0.306  0.00  0.00    +0.174 C 
ATOM     11  N   UNL     1       0.190  -5.722  -0.345  0.00  0.00    -0.201 N 
ATOM     12  C   UNL     1       1.497  -5.427  -0.572  0.00  0.00    +0.240 A 
ATOM     13  N   UNL     1       2.032  -6.459  -1.157  0.00  0.00    -0.092 NA
ATOM     14  N   UNL     1       1.151  -7.386  -1.322  0.00  0.00    -0.021 NA
ATOM     15  N   UNL     1       0.006  -7.007  -0.854  0.00  0.00    -0.042 NA
ATOM     16  N   UNL     1       2.035  -4.205  -0.203  0.00  0.00    -0.282 N 
ATOM     17  C   UNL     1      -1.057  -2.281   0.773  0.00  0.00    +0.235 C 
ATOM     18  O   UNL     1      -0.630  -1.075   0.141  0.00  0.00    -0.479 OA
ATOM     19  H   UNL     1       3.118  -4.014  -0.182  0.00  0.00    +0.155 HD
ENDROOT
BRANCH  17  20
ATOM     20  C   UNL     1      -1.026  -2.097   2.268  0.00  0.00    +0.015 A 
ATOM     21  C   UNL     1       0.079  -1.527   2.871  0.00  0.00    +0.010 A 
ATOM     22  C   UNL     1       0.108  -1.357   4.243  0.00  0.00    +0.020 A 
ATOM     23  C   UNL     1      -0.969  -1.758   5.013  0.00  0.00    +0.042 A 
ATOM     24  C   UNL     1      -2.075  -2.329   4.410  0.00  0.00    +0.040 A 
ATOM     25  C   UNL     1      -2.106  -2.494   3.037  0.00  0.00    +0.049 A 
ATOM     26 CL   UNL     1      -3.497  -3.204   2.278  0.00  0.00    -0.083 Cl
ATOM     27 CL   UNL     1      -0.932  -1.546   6.735  0.00  0.00    -0.083 Cl
ENDBRANCH  17  20
BRANCH  10  28
ATOM     28  C   UNL     1      -1.040  -5.321   1.695  0.00  0.00    -0.015 A 
ATOM     29  C   UNL     1      -0.036  -5.358   2.645  0.00  0.00    +0.006 A 
ATOM     30  C   UNL     1      -0.304  -5.820   3.920  0.00  0.00    +0.004 A 
ATOM     31  C   UNL     1      -1.577  -6.246   4.248  0.00  0.00    +0.045 A 
ATOM     32  C   UNL     1      -2.586  -6.210   3.297  0.00  0.00    +0.120 A 
ATOM     33  C   UNL     1      -2.316  -5.741   2.020  0.00  0.00    +0.051 A 
BRANCH  32  34
ATOM     34  O   UNL     1      -3.838  -6.629   3.617  0.00  0.00    -0.495 OA
ATOM     35  C   UNL     1      -4.045  -7.094   4.953  0.00  0.00    +0.277 C 
ENDBRANCH  32  34
ENDBRANCH  10  28
TORSDOF 3
