REMARK  Name = ZINC40144268
REMARK  8 active torsions:
REMARK  status: ('A' for Active; 'I' for Inactive)
REMARK    1  A    between atoms: C_1  and  C_2
REMARK    2  A    between atoms: C_5  and  C_8
REMARK    3  A    between atoms: C_11  and  C_13
REMARK    4  A    between atoms: C_13  and  C_15
REMARK    5  A    between atoms: C_13  and  N_28
REMARK    6  A    between atoms: C_15  and  C_17
REMARK    7  A    between atoms: C_15  and  C_19
REMARK    8  A    between atoms: C_29  and  N_30
REMARK                            x       y       z     vdW  Elec       q    Type
REMARK                         _______ _______ _______ _____ _____    ______ ____
ROOT
ATOM      1  C   UNL     1       0.100  -7.510  -1.672  0.00  0.00    +0.196 C 
ENDROOT
BRANCH   1   2
ATOM      2  N   UNL     1      -0.791  -7.252  -2.806  0.00  0.00    -0.258 N 
ATOM      3  C   UNL     1      -1.891  -7.995  -3.152  0.00  0.00    +0.117 A 
ATOM      4  C   UNL     1      -2.449  -7.429  -4.263  0.00  0.00    +0.114 A 
ATOM      5  C   UNL     1      -1.680  -6.311  -4.614  0.00  0.00    +0.266 A 
ATOM      6  O   UNL     1      -1.887  -5.566  -5.557  0.00  0.00    -0.266 OA
ATOM      7  N   UNL     1      -0.674  -6.200  -3.723  0.00  0.00    -0.261 N 
ATOM      8  H   UNL     1       0.011  -5.513  -3.720  0.00  0.00    +0.190 HD
BRANCH   3   9
ATOM      9  N   UNL     1      -2.349  -9.109  -2.498  0.00  0.00    -0.343 N 
ATOM     10  H   UNL     1      -1.883  -9.437  -1.713  0.00  0.00    +0.144 HD
ATOM     11  H   UNL     1      -3.140  -9.570  -2.821  0.00  0.00    +0.144 HD
ENDBRANCH   3   9
ENDBRANCH   1   2
BRANCH   1  15
ATOM     12  C   UNL     1       0.058  -4.251  -0.021  0.00  0.00    +0.135 A 
ATOM     13  C   UNL     1       0.069  -5.054   1.075  0.00  0.00    +0.050 A 
ATOM     14  C   UNL     1       0.086  -6.383   0.605  0.00  0.00    +0.047 A 
ATOM     15  C   UNL     1       0.085  -6.325  -0.742  0.00  0.00    +0.132 A 
ATOM     16  O   UNL     1       0.062  -5.035  -1.116  0.00  0.00    -0.457 OA
BRANCH  12  21
ATOM     17  C   UNL     1      -0.018   1.503   0.010  0.00  0.00    +0.044 C 
ATOM     18  C   UNL     1       0.002  -0.004   0.002  0.00  0.00    -0.050 A 
ATOM     19  C   UNL     1       0.006  -0.686  -1.202  0.00  0.00    +0.004 A 
ATOM     20  C   UNL     1       0.024  -2.066  -1.216  0.00  0.00    +0.012 A 
ATOM     21  C   UNL     1       0.039  -2.773  -0.013  0.00  0.00    +0.017 A 
ATOM     22  C   UNL     1       0.036  -2.079   1.198  0.00  0.00    +0.012 A 
ATOM     23  C   UNL     1       0.023  -0.699   1.198  0.00  0.00    +0.004 A 
ENDBRANCH  12  21
ENDBRANCH   1  15
BRANCH   1  24
ATOM     24  C   UNL     1       1.524  -7.738  -2.184  0.00  0.00    +0.179 C 
BRANCH  24  25
ATOM     25  C   UNL     1       1.539  -8.923  -3.115  0.00  0.00    +0.099 A 
ATOM     26  N   UNL     1       1.198 -10.150  -2.849  0.00  0.00    -0.243 NA
ATOM     27  C   UNL     1       1.255 -11.129  -3.776  0.00  0.00    +0.079 A 
ATOM     28  C   UNL     1       0.930 -12.497  -3.668  0.00  0.00    +0.029 A 
ATOM     29  C   UNL     1       1.062 -13.327  -4.740  0.00  0.00    +0.002 A 
ATOM     30  C   UNL     1       1.518 -12.863  -5.966  0.00  0.00    +0.001 A 
ATOM     31  C   UNL     1       1.846 -11.528  -6.111  0.00  0.00    +0.017 A 
ATOM     32  C   UNL     1       1.716 -10.683  -5.035  0.00  0.00    +0.039 A 
ATOM     33  S   UNL     1       1.994  -8.957  -4.735  0.00  0.00    -0.071 S 
ENDBRANCH  24  25
BRANCH  24  34
ATOM     34  C   UNL     1       2.419  -7.997  -1.045  0.00  0.00    +0.075 C 
ATOM     35  N   UNL     1       3.111  -8.197  -0.166  0.00  0.00    -0.196 NA
ENDBRANCH  24  34
ENDBRANCH   1  24
TORSDOF 7
