REMARK  Name = ZINC63362537
REMARK  6 active torsions:
REMARK  status: ('A' for Active; 'I' for Inactive)
REMARK    1  A    between atoms: C_1  and  C_2
REMARK    2  A    between atoms: C_5  and  C_37
REMARK    3  A    between atoms: C_6  and  N_8
REMARK    4  A    between atoms: C_9  and  C_11
REMARK    5  A    between atoms: C_14  and  N_17
REMARK    6  A    between atoms: C_20  and  C_36
REMARK                            x       y       z     vdW  Elec       q    Type
REMARK                         _______ _______ _______ _____ _____    ______ ____
ROOT
ATOM      1  N   UNL     1       0.634  -5.003   8.399  0.00  0.00    -0.192 N 
ATOM      2  C   UNL     1       0.630  -4.433   9.621  0.00  0.00    +0.253 C 
ATOM      3  O   UNL     1       0.553  -3.250   9.877  0.00  0.00    -0.272 OA
ATOM      4  C   UNL     1       0.739  -5.575  10.608  0.00  0.00    +0.137 C 
ATOM      5  C   UNL     1       2.027  -5.440  11.429  0.00  0.00    +0.139 C 
ATOM      6  C   UNL     1       2.344  -6.830  11.966  0.00  0.00    -0.034 C 
ATOM      7  C   UNL     1       2.402  -6.715  13.290  0.00  0.00    -0.001 A 
ATOM      8  C   UNL     1       2.726  -7.692  14.342  0.00  0.00    +0.010 A 
ATOM      9  C   UNL     1       2.680  -7.231  15.620  0.00  0.00    +0.001 A 
ATOM     10  C   UNL     1       2.349  -5.914  15.953  0.00  0.00    +0.002 A 
ATOM     11  C   UNL     1       2.042  -4.949  15.049  0.00  0.00    +0.026 A 
ATOM     12  C   UNL     1       2.060  -5.311  13.671  0.00  0.00    +0.043 A 
ATOM     13  N   UNL     1       1.826  -4.586  12.602  0.00  0.00    -0.375 N 
ATOM     14  C   UNL     1       2.476  -8.049  11.085  0.00  0.00    +0.052 C 
ATOM     15  C   UNL     1       1.211  -8.114  10.207  0.00  0.00    +0.115 C 
ATOM     16  N   UNL     1       0.909  -6.759   9.736  0.00  0.00    -0.268 N 
ATOM     17  C   UNL     1       0.761  -6.334   8.475  0.00  0.00    +0.316 C 
ATOM     18  O   UNL     1       0.747  -7.072   7.509  0.00  0.00    -0.252 OA
ATOM     19  C   UNL     1      -0.504  -5.687  11.493  0.00  0.00    +0.044 C 
ATOM     20  H   UNL     1       1.563  -3.653  12.585  0.00  0.00    +0.160 HD
ENDROOT
BRANCH   1  24
ATOM     21  C   UNL     1       0.276  -2.885   4.826  0.00  0.00    +0.037 A 
ATOM     22  C   UNL     1       0.290  -4.282   4.814  0.00  0.00    +0.015 A 
ATOM     23  C   UNL     1       0.409  -4.978   5.995  0.00  0.00    +0.025 A 
ATOM     24  C   UNL     1       0.514  -4.293   7.201  0.00  0.00    +0.045 A 
ATOM     25  C   UNL     1       0.500  -2.902   7.217  0.00  0.00    +0.025 A 
ATOM     26  C   UNL     1       0.387  -2.199   6.039  0.00  0.00    +0.015 A 
BRANCH  21  28
ATOM     27  N   UNL     1       0.041  -2.797   2.393  0.00  0.00    -0.281 N 
ATOM     28  C   UNL     1       0.149  -2.135   3.561  0.00  0.00    +0.248 C 
ATOM     29  O   UNL     1       0.141  -0.919   3.574  0.00  0.00    -0.270 OA
ATOM     30  H   UNL     1      -0.036  -3.764   2.389  0.00  0.00    +0.155 HD
BRANCH  27  36
ATOM     31  C   UNL     1       1.281   1.215  -0.163  0.00  0.00    +0.044 C 
ATOM     32  C   UNL     1       0.634  -0.144  -0.082  0.00  0.00    -0.049 A 
ATOM     33  C   UNL     1       0.037  -0.693  -1.202  0.00  0.00    +0.004 A 
ATOM     34  C   UNL     1      -0.557  -1.939  -1.132  0.00  0.00    +0.005 A 
ATOM     35  C   UNL     1      -0.558  -2.640   0.059  0.00  0.00    -0.029 A 
ATOM     36  C   UNL     1       0.040  -2.091   1.186  0.00  0.00    +0.037 A 
ATOM     37  C   UNL     1       0.642  -0.841   1.110  0.00  0.00    +0.027 A 
ATOM     38  C   UNL     1      -1.207  -3.998   0.135  0.00  0.00    +0.045 C 
ENDBRANCH  27  36
ENDBRANCH  21  28
ENDBRANCH   1  24
TORSDOF 3
