REMARK  Name = ZINC57003513
REMARK  8 active torsions:
REMARK  status: ('A' for Active; 'I' for Inactive)
REMARK    1  A    between atoms: C_1  and  O_2
REMARK    2  A    between atoms: O_2  and  C_3
REMARK    3  A    between atoms: C_6  and  C_9
REMARK    4  A    between atoms: C_9  and  C_11
REMARK    5  A    between atoms: C_9  and  N_28
REMARK    6  A    between atoms: C_11  and  N_12
REMARK    7  A    between atoms: N_15  and  C_16
REMARK    8  A    between atoms: C_25  and  O_27
REMARK                            x       y       z     vdW  Elec       q    Type
REMARK                         _______ _______ _______ _____ _____    ______ ____
ROOT
ATOM      1  N   UNL     1      -5.490  -1.833   2.300  0.00  0.00    -0.301 N 
ATOM      2  C   UNL     1      -5.773  -1.949   3.613  0.00  0.00    +0.300 C 
ATOM      3  O   UNL     1      -5.989  -3.044   4.094  0.00  0.00    -0.253 OA
ATOM      4  N   UNL     1      -5.816  -0.850   4.392  0.00  0.00    -0.290 N 
ATOM      5  H   UNL     1      -5.318  -0.959   1.916  0.00  0.00    +0.150 HD
ATOM      6  H   UNL     1      -5.643   0.024   4.008  0.00  0.00    +0.151 HD
ENDROOT
BRANCH   4   7
ATOM      7  C   UNL     1      -6.123  -0.975   5.819  0.00  0.00    +0.134 C 
ATOM      8  C   UNL     1      -7.620  -0.927   6.040  0.00  0.00    -0.021 A 
ATOM      9  C   UNL     1      -8.586  -1.903   5.859  0.00  0.00    +0.006 A 
ATOM     10  C   UNL     1      -9.912  -1.626   6.129  0.00  0.00    +0.000 A 
ATOM     11  C   UNL     1     -10.277  -0.372   6.582  0.00  0.00    +0.000 A 
ATOM     12  C   UNL     1      -9.315   0.602   6.764  0.00  0.00    +0.004 A 
ATOM     13  C   UNL     1      -7.985   0.327   6.493  0.00  0.00    -0.040 A 
ATOM     14  C   UNL     1      -6.758   1.207   6.607  0.00  0.00    +0.069 C 
ATOM     15  C   UNL     1      -5.558   0.232   6.597  0.00  0.00    +0.143 C 
BRANCH  15  16
ATOM     16  O   UNL     1      -4.444   0.803   5.909  0.00  0.00    -0.389 OA
ATOM     17  H   UNL     1      -4.053   1.566   6.357  0.00  0.00    +0.210 HD
ENDBRANCH  15  16
ENDBRANCH   4   7
BRANCH   1  18
ATOM     18  C   UNL     1      -5.444  -3.028   1.453  0.00  0.00    +0.095 C 
BRANCH  18  19
ATOM     19  C   UNL     1      -4.974  -2.639   0.050  0.00  0.00    -0.020 C 
BRANCH  19  23
ATOM     20  C   UNL     1      -0.935  -1.255   0.231  0.00  0.00    +0.120 A 
ATOM     21  C   UNL     1      -1.980  -0.344   0.172  0.00  0.00    +0.046 A 
ATOM     22  C   UNL     1      -3.285  -0.794   0.113  0.00  0.00    +0.005 A 
ATOM     23  C   UNL     1      -3.550  -2.151   0.114  0.00  0.00    -0.059 A 
ATOM     24  C   UNL     1      -2.511  -3.061   0.173  0.00  0.00    +0.005 A 
ATOM     25  C   UNL     1      -1.204  -2.616   0.226  0.00  0.00    +0.046 A 
BRANCH  20  27
ATOM     26  C   UNL     1       0.550   0.600   0.291  0.00  0.00    +0.277 C 
ATOM     27  O   UNL     1       0.349  -0.815   0.289  0.00  0.00    -0.495 OA
ENDBRANCH  20  27
ENDBRANCH  19  23
BRANCH  19  28
ATOM     28  N   UNL     1      -5.051  -3.811  -0.834  0.00  0.00    +0.385 N 
ATOM     29  C   UNL     1      -6.461  -4.258  -0.970  0.00  0.00    -0.078 C 
ATOM     30  C   UNL     1      -6.452  -5.063  -2.293  0.00  0.00    -0.020 C 
ATOM     31  C   UNL     1      -5.478  -4.256  -3.182  0.00  0.00    -0.020 C 
ATOM     32  C   UNL     1      -4.609  -3.450  -2.198  0.00  0.00    -0.078 C 
ATOM     33  H   UNL     1      -4.481  -4.559  -0.470  0.00  0.00    -0.081 HD
ENDBRANCH  19  28
ENDBRANCH  18  19
ENDBRANCH   1  18
TORSDOF 7
