REMARK  Name = ZINC01961996
REMARK  4 active torsions:
REMARK  status: ('A' for Active; 'I' for Inactive)
REMARK    1  A    between atoms: C_10  and  N_11
REMARK    2  A    between atoms: C_12  and  C_14
REMARK    3  A    between atoms: C_14  and  O_15
REMARK    4  A    between atoms: O_15  and  C_16
REMARK                            x       y       z     vdW  Elec       q    Type
REMARK                         _______ _______ _______ _____ _____    ______ ____
ROOT
ATOM      1  C   UNL     1       3.546   7.381  -0.001  0.00  0.00    +0.324 C 
ENDROOT
BRANCH   1   3
ATOM      2  N   UNL     1       5.143   9.269   0.015  0.00  0.00    -0.282 N 
ATOM      3  C   UNL     1       4.947   7.936   0.004  0.00  0.00    +0.255 C 
ATOM      4  O   UNL     1       5.897   7.183  -0.003  0.00  0.00    -0.272 OA
ATOM      5  H   UNL     1       4.385   9.871  -0.046  0.00  0.00    +0.155 HD
BRANCH   2  15
ATOM      6  C   UNL     1       7.195  13.323   2.213  0.00  0.00    +0.001 A 
ATOM      7  C   UNL     1       5.896  12.828   2.125  0.00  0.00    +0.001 A 
ATOM      8  C   UNL     1       5.629  11.678   1.447  0.00  0.00    +0.010 A 
ATOM      9  C   UNL     1       6.675  10.981   0.822  0.00  0.00    +0.003 A 
ATOM     10  C   UNL     1       7.997  11.482   0.913  0.00  0.00    -0.016 A 
ATOM     11  C   UNL     1       8.235  12.672   1.622  0.00  0.00    +0.008 A 
ATOM     12  C   UNL     1       9.046  10.783   0.292  0.00  0.00    +0.008 A 
ATOM     13  C   UNL     1       8.787   9.633  -0.389  0.00  0.00    +0.002 A 
ATOM     14  C   UNL     1       7.493   9.128  -0.482  0.00  0.00    +0.024 A 
ATOM     15  C   UNL     1       6.437   9.783   0.115  0.00  0.00    +0.041 A 
ENDBRANCH   2  15
ENDBRANCH   1   3
BRANCH   1  16
ATOM     16  O   UNL     1       3.599   5.953  -0.013  0.00  0.00    -0.483 OA
BRANCH  16  17
ATOM     17  C   UNL     1       2.414   5.291  -0.018  0.00  0.00    +0.125 A 
ATOM     18  C   UNL     1       1.221   6.012  -0.012  0.00  0.00    +0.046 A 
ATOM     19  C   UNL     1       0.021   5.362  -0.016  0.00  0.00    +0.015 A 
ATOM     20  C   UNL     1      -0.012   3.963  -0.026  0.00  0.00    +0.021 A 
ATOM     21  C   UNL     1       1.189   3.230  -0.034  0.00  0.00    +0.143 A 
ATOM     22  C   UNL     1       2.400   3.906  -0.029  0.00  0.00    +0.092 A 
ATOM     23  O   UNL     1       1.151   1.881  -0.044  0.00  0.00    -0.422 OA
ATOM     24  C   UNL     1      -0.012   1.213  -0.046  0.00  0.00    +0.341 A 
ATOM     25  O   UNL     1       0.004  -0.005  -0.056  0.00  0.00    -0.245 OA
ATOM     26  C   UNL     1      -1.257   1.882  -0.043  0.00  0.00    +0.041 A 
ATOM     27  C   UNL     1      -1.285   3.239  -0.028  0.00  0.00    -0.027 A 
ATOM     28  C   UNL     1      -2.713   3.735  -0.021  0.00  0.00    +0.036 C 
ATOM     29  C   UNL     1      -3.558   2.515   0.408  0.00  0.00    +0.010 C 
ATOM     30  C   UNL     1      -2.668   1.335  -0.038  0.00  0.00    +0.043 C 
ENDBRANCH  16  17
ENDBRANCH   1  16
TORSDOF 4
