REMARK  Name = ZINC39227656
REMARK  5 active torsions:
REMARK  status: ('A' for Active; 'I' for Inactive)
REMARK    1  A    between atoms: C_1  and  C_2
REMARK    2  A    between atoms: C_2  and  C_3
REMARK    3  A    between atoms: C_2  and  N_4
REMARK    4  A    between atoms: C_15  and  C_20
REMARK    5  A    between atoms: C_23  and  C_26
REMARK                            x       y       z     vdW  Elec       q    Type
REMARK                         _______ _______ _______ _____ _____    ______ ____
ROOT
ATOM      1  N   UNL     1      -2.892  -0.798   0.787  0.00  0.00    +0.381 N 
ATOM      2  C   UNL     1      -3.768  -0.418  -0.328  0.00  0.00    -0.075 C 
ATOM      3  C   UNL     1      -4.653  -1.605  -0.713  0.00  0.00    +0.030 C 
ATOM      4  C   UNL     1      -3.767  -2.780  -1.133  0.00  0.00    +0.114 C 
ATOM      5  C   UNL     1      -2.803  -3.119   0.006  0.00  0.00    +0.030 C 
ATOM      6  C   UNL     1      -1.988  -1.875   0.366  0.00  0.00    -0.075 C 
ATOM      7  C   UNL     1      -4.648  -3.999  -1.434  0.00  0.00    +0.127 C 
ATOM      8  C   UNL     1      -5.563  -3.618  -2.585  0.00  0.00    +0.170 C 
ATOM      9  O   UNL     1      -6.726  -3.960  -2.615  0.00  0.00    -0.292 OA
ATOM     10  C   UNL     1      -4.963  -2.811  -3.663  0.00  0.00    +0.060 A 
ATOM     11  C   UNL     1      -5.641  -2.618  -4.866  0.00  0.00    +0.023 A 
ATOM     12  C   UNL     1      -5.057  -1.846  -5.864  0.00  0.00    -0.017 A 
ATOM     13  C   UNL     1      -3.800  -1.271  -5.656  0.00  0.00    +0.012 A 
ATOM     14  C   UNL     1      -3.130  -1.464  -4.468  0.00  0.00    +0.047 A 
ATOM     15  C   UNL     1      -3.697  -2.235  -3.461  0.00  0.00    +0.132 A 
ATOM     16  O   UNL     1      -3.026  -2.428  -2.301  0.00  0.00    -0.485 OA
ATOM     17  H   UNL     1      -3.455  -1.116   1.561  0.00  0.00    -0.081 HD
ENDROOT
BRANCH  12  18
ATOM     18  C   UNL     1      -5.767  -1.633  -7.148  0.00  0.00    -0.018 A 
ATOM     19  C   UNL     1      -7.024  -2.203  -7.352  0.00  0.00    +0.009 A 
ATOM     20  C   UNL     1      -7.684  -2.006  -8.544  0.00  0.00    +0.013 A 
ATOM     21  C   UNL     1      -7.095  -1.235  -9.550  0.00  0.00    +0.037 A 
ATOM     22  C   UNL     1      -5.836  -0.665  -9.344  0.00  0.00    +0.013 A 
ATOM     23  C   UNL     1      -5.180  -0.859  -8.149  0.00  0.00    +0.009 A 
BRANCH  21  24
ATOM     24  C   UNL     1      -7.801  -1.024 -10.829  0.00  0.00    +0.247 C 
ATOM     25  O   UNL     1      -9.009  -0.881 -10.840  0.00  0.00    -0.270 OA
ATOM     26  N   UNL     1      -7.108  -0.991 -11.984  0.00  0.00    -0.294 N 
ATOM     27  C   UNL     1      -5.667  -1.284 -12.010  0.00  0.00    +0.108 C 
ATOM     28  C   UNL     1      -5.397  -2.381 -13.043  0.00  0.00    +0.019 C 
ATOM     29  C   UNL     1      -5.985  -1.971 -14.397  0.00  0.00    +0.007 C 
ATOM     30  C   UNL     1      -7.495  -1.787 -14.253  0.00  0.00    +0.010 C 
ATOM     31  C   UNL     1      -7.771  -0.666 -13.252  0.00  0.00    +0.079 C 
ATOM     32  C   UNL     1      -9.281  -0.540 -13.051  0.00  0.00    +0.023 C 
ATOM     33  C   UNL     1      -9.935  -0.195 -14.392  0.00  0.00    +0.002 C 
ATOM     34  C   UNL     1      -9.637  -1.293 -15.413  0.00  0.00    +0.000 C 
ATOM     35  C   UNL     1      -8.125  -1.417 -15.595  0.00  0.00    +0.005 C 
ENDBRANCH  21  24
ENDBRANCH  12  18
BRANCH   1  37
ATOM     36  C   UNL     1      -3.041   1.491   1.644  0.00  0.00    -0.014 C 
ATOM     37  C   UNL     1      -2.101   0.367   1.205  0.00  0.00    -0.075 C 
ATOM     38  C   UNL     1      -1.194  -0.024   2.373  0.00  0.00    -0.014 C 
ENDBRANCH   1  37
TORSDOF 3
