REMARK  Name = ZINC06871146
REMARK  13 active torsions:
REMARK  status: ('A' for Active; 'I' for Inactive)
REMARK    1  A    between atoms: C_1  and  C_2
REMARK    2  A    between atoms: C_2  and  N_66
REMARK    3  A    between atoms: C_7  and  O_31
REMARK    4  A    between atoms: C_8  and  O_29
REMARK    5  A    between atoms: C_11  and  C_13
REMARK    6  A    between atoms: C_13  and  C_15
REMARK    7  A    between atoms: C_13  and  N_18
REMARK    8  A    between atoms: C_15  and  C_16
REMARK    9  A    between atoms: C_15  and  C_17
REMARK   10  A    between atoms: N_21  and  C_22
REMARK   11  A    between atoms: C_25  and  C_28
REMARK   12  A    between atoms: O_29  and  C_30
REMARK   13  A    between atoms: O_31  and  C_32
REMARK                            x       y       z     vdW  Elec       q    Type
REMARK                         _______ _______ _______ _____ _____    ______ ____
ROOT
ATOM      1  C   UNL     1       2.095   0.178  -0.802  0.00  0.00    -0.073 C 
ATOM      2  C   UNL     1       0.761  -0.543  -0.608  0.00  0.00    +0.017 C 
ATOM      3  C   UNL     1      -0.367   0.457  -0.586  0.00  0.00    -0.044 A 
ATOM      4  C   UNL     1      -1.661  -0.005  -0.775  0.00  0.00    +0.053 A 
ATOM      5  C   UNL     1      -2.728   0.876  -0.758  0.00  0.00    +0.162 A 
ATOM      6  C   UNL     1      -2.497   2.233  -0.549  0.00  0.00    +0.162 A 
ATOM      7  C   UNL     1      -1.204   2.688  -0.366  0.00  0.00    +0.051 A 
ATOM      8  C   UNL     1      -0.138   1.801  -0.382  0.00  0.00    -0.052 A 
ATOM      9  C   UNL     1       1.251   2.348  -0.178  0.00  0.00    -0.016 C 
ATOM     10  N   UNL     1       2.171   1.262   0.199  0.00  0.00    +0.386 N 
ATOM     11  H   UNL     1       1.894   0.891   1.116  0.00  0.00    -0.081 HD
ENDROOT
BRANCH  10  13
ATOM     12  C   UNL     1       3.893   2.602  -0.958  0.00  0.00    -0.017 C 
ATOM     13  C   UNL     1       3.556   1.777   0.285  0.00  0.00    -0.081 C 
ENDBRANCH  10  13
BRANCH   6  14
ATOM     14  O   UNL     1      -3.538   3.107  -0.528  0.00  0.00    -0.491 OA
ATOM     15  C   UNL     1      -3.225   4.484  -0.309  0.00  0.00    +0.277 C 
ENDBRANCH   6  14
BRANCH   5  16
ATOM     16  O   UNL     1      -3.995   0.419  -0.943  0.00  0.00    -0.491 OA
ATOM     17  C   UNL     1      -4.154  -0.986  -1.151  0.00  0.00    +0.277 C 
ENDBRANCH   5  16
BRANCH   9  18
ATOM     18  C   UNL     1       1.225   3.386   0.945  0.00  0.00    +0.068 C 
BRANCH  18  19
ATOM     19  N   UNL     1       2.510   4.088   0.992  0.00  0.00    -0.297 N 
ATOM     20  C   UNL     1       2.592   5.307   1.561  0.00  0.00    +0.304 C 
ATOM     21  O   UNL     1       1.600   5.824   2.036  0.00  0.00    -0.253 OA
ATOM     22  N   UNL     1       3.775   5.952   1.604  0.00  0.00    -0.269 N 
ATOM     23  H   UNL     1       3.302   3.675   0.613  0.00  0.00    +0.150 HD
ATOM     24  H   UNL     1       4.549   5.577   1.157  0.00  0.00    +0.156 HD
BRANCH  22  25
ATOM     25  C   UNL     1       3.885   7.165   2.294  0.00  0.00    +0.035 A 
ATOM     26  C   UNL     1       2.809   8.040   2.340  0.00  0.00    +0.023 A 
ATOM     27  C   UNL     1       2.920   9.234   3.026  0.00  0.00    +0.005 A 
ATOM     28  C   UNL     1       4.105   9.562   3.658  0.00  0.00    -0.050 A 
ATOM     29  C   UNL     1       5.180   8.694   3.611  0.00  0.00    +0.005 A 
ATOM     30  C   UNL     1       5.074   7.497   2.931  0.00  0.00    +0.023 A 
ATOM     31  C   UNL     1       4.224  10.867   4.402  0.00  0.00    +0.044 C 
ENDBRANCH  22  25
ENDBRANCH  18  19
BRANCH  18  32
ATOM     32  C   UNL     1       0.978   2.685   2.282  0.00  0.00    +0.002 C 
ATOM     33  C   UNL     1       2.190   1.820   2.636  0.00  0.00    +0.009 C 
ATOM     34  C   UNL     1       0.763   3.733   3.376  0.00  0.00    +0.009 C 
ENDBRANCH  18  32
ENDBRANCH   9  18
TORSDOF 7
