REMARK  Name = ZINC08770905
REMARK  10 active torsions:
REMARK  status: ('A' for Active; 'I' for Inactive)
REMARK    1  A    between atoms: C_1  and  C_2
REMARK    2  A    between atoms: C_2  and  C_3
REMARK    3  A    between atoms: C_3  and  C_4
REMARK    4  A    between atoms: C_7  and  C_10
REMARK    5  A    between atoms: C_10  and  C_12
REMARK    6  A    between atoms: C_14  and  C_36
REMARK    7  A    between atoms: C_36  and  C_38
REMARK    8  A    between atoms: C_38  and  C_39
REMARK    9  A    between atoms: C_38  and  C_40
REMARK   10  A    between atoms: C_38  and  C_41
REMARK                            x       y       z     vdW  Elec       q    Type
REMARK                         _______ _______ _______ _____ _____    ______ ____
ROOT
ATOM      1  C   UNL     1      -4.278   4.418  -1.133  0.00  0.00    +0.108 C 
ATOM      2  C   UNL     1      -3.456   5.479  -1.910  0.00  0.00    +0.136 C 
ATOM      3  C   UNL     1      -1.230   6.641  -1.282  0.00  0.00    +0.054 C 
ATOM      4  C   UNL     1       0.048   6.229  -1.146  0.00  0.00    +0.022 C 
ATOM      5  C   UNL     1       0.324   4.801  -0.889  0.00  0.00    -0.019 A 
ATOM      6  C   UNL     1       1.600   4.281  -1.111  0.00  0.00    +0.008 A 
ATOM      7  C   UNL     1       1.851   2.948  -0.858  0.00  0.00    +0.001 A 
ATOM      8  C   UNL     1       0.844   2.125  -0.385  0.00  0.00    +0.000 A 
ATOM      9  C   UNL     1      -0.427   2.630  -0.169  0.00  0.00    +0.006 A 
ATOM     10  C   UNL     1      -0.689   3.958  -0.414  0.00  0.00    -0.020 A 
ATOM     11  C   UNL     1      -2.062   4.536  -0.194  0.00  0.00    +0.107 C 
ATOM     12  C   UNL     1      -3.165   3.536  -0.529  0.00  0.00    +0.107 C 
ATOM     13  C   UNL     1      -3.639   2.769   0.655  0.00  0.00    -0.008 A 
ATOM     14  C   UNL     1      -4.169   3.168   1.863  0.00  0.00    +0.006 A 
ATOM     15  C   UNL     1      -4.513   2.167   2.765  0.00  0.00    +0.000 A 
ATOM     16  C   UNL     1      -4.330   0.833   2.462  0.00  0.00    +0.002 A 
ATOM     17  C   UNL     1      -3.798   0.423   1.250  0.00  0.00    +0.023 A 
ATOM     18  C   UNL     1      -3.449   1.417   0.336  0.00  0.00    +0.038 A 
ATOM     19  N   UNL     1      -2.905   1.293  -0.932  0.00  0.00    -0.284 N 
ATOM     20  C   UNL     1      -2.704   2.496  -1.516  0.00  0.00    +0.231 C 
ATOM     21  O   UNL     1      -2.242   2.698  -2.619  0.00  0.00    -0.274 OA
ATOM     22  H   UNL     1      -2.692   0.444  -1.351  0.00  0.00    +0.155 HD
ATOM     23  N   UNL     1      -2.404   5.761  -0.866  0.00  0.00    -0.384 NA
ATOM     24  H   UNL     1      -2.887   6.322  -0.153  0.00  0.00    +0.127 HD
ENDROOT
BRANCH   1  25
ATOM     25  C   UNL     1      -5.103   5.063  -0.049  0.00  0.00    +0.170 C 
ATOM     26  O   UNL     1      -4.685   6.045   0.527  0.00  0.00    -0.292 OA
BRANCH  25  30
ATOM     27  C   UNL     1      -8.884   3.444   0.987  0.00  0.00    -0.047 A 
ATOM     28  C   UNL     1      -8.460   4.628   1.566  0.00  0.00    +0.004 A 
ATOM     29  C   UNL     1      -7.232   5.160   1.234  0.00  0.00    +0.011 A 
ATOM     30  C   UNL     1      -6.415   4.501   0.310  0.00  0.00    +0.018 A 
ATOM     31  C   UNL     1      -6.853   3.309  -0.275  0.00  0.00    +0.011 A 
ATOM     32  C   UNL     1      -8.081   2.786   0.071  0.00  0.00    +0.004 A 
BRANCH  27  33
ATOM     33  C   UNL     1     -10.228   2.869   1.355  0.00  0.00    +0.035 C 
BRANCH  33  35
ATOM     34  C   UNL     1     -12.659   2.836   0.779  0.00  0.00    +0.004 C 
ATOM     35  C   UNL     1     -11.295   3.419   0.406  0.00  0.00    +0.001 C 
ENDBRANCH  33  35
ENDBRANCH  27  33
ENDBRANCH  25  30
ENDBRANCH   1  25
BRANCH   2  36
ATOM     36  C   UNL     1      -4.212   6.781  -1.971  0.00  0.00    +0.158 C 
ATOM     37  O   UNL     1      -3.965   7.660  -1.181  0.00  0.00    -0.295 OA
BRANCH  36  38
ATOM     38  C   UNL     1      -5.276   6.986  -3.018  0.00  0.00    +0.022 C 
ATOM     39  C   UNL     1      -5.787   8.426  -2.950  0.00  0.00    +0.018 C 
ATOM     40  C   UNL     1      -4.686   6.719  -4.404  0.00  0.00    +0.018 C 
ATOM     41  C   UNL     1      -6.436   6.020  -2.763  0.00  0.00    +0.018 C 
ENDBRANCH  36  38
ENDBRANCH   2  36
TORSDOF 6
