REMARK  Name = ZINC38959169
REMARK  7 active torsions:
REMARK  status: ('A' for Active; 'I' for Inactive)
REMARK    1  A    between atoms: C_1  and  C_2
REMARK    2  A    between atoms: C_9  and  C_14
REMARK    3  A    between atoms: C_14  and  N_15
REMARK    4  A    between atoms: N_15  and  C_16
REMARK    5  A    between atoms: C_20  and  C_23
REMARK    6  A    between atoms: C_21  and  C_22
REMARK    7  A    between atoms: C_24  and  C_26
REMARK                            x       y       z     vdW  Elec       q    Type
REMARK                         _______ _______ _______ _____ _____    ______ ____
ROOT
ATOM      1  N   UNL     1      -1.020  -6.348   2.992  0.00  0.00    -0.266 N 
ATOM      2  C   UNL     1      -1.551  -7.098   2.006  0.00  0.00    +0.252 C 
ATOM      3  O   UNL     1      -2.160  -6.565   1.099  0.00  0.00    -0.270 OA
ENDROOT
BRANCH   1   4
ATOM      4  C   UNL     1      -0.426  -6.966   4.097  0.00  0.00    +0.040 A 
ATOM      5  C   UNL     1       0.951  -7.149   4.135  0.00  0.00    +0.024 A 
ATOM      6  C   UNL     1       1.535  -7.759   5.228  0.00  0.00    +0.002 A 
ATOM      7  C   UNL     1       0.751  -8.188   6.283  0.00  0.00    +0.004 A 
ATOM      8  C   UNL     1      -0.619  -8.008   6.248  0.00  0.00    -0.046 A 
ATOM      9  C   UNL     1      -1.209  -7.393   5.161  0.00  0.00    -0.026 A 
ATOM     10  C   UNL     1      -2.703  -7.192   5.127  0.00  0.00    +0.046 C 
ATOM     11  C   UNL     1      -1.470  -8.477   7.401  0.00  0.00    +0.044 C 
ENDBRANCH   1   4
BRANCH   2  12
ATOM     12  C   UNL     1      -1.393  -8.567   2.028  0.00  0.00    +0.051 A 
ATOM     13  C   UNL     1      -0.127  -9.134   2.182  0.00  0.00    +0.014 A 
ATOM     14  C   UNL     1       0.014 -10.505   2.202  0.00  0.00    +0.001 A 
ATOM     15  C   UNL     1      -1.097 -11.321   2.069  0.00  0.00    +0.001 A 
ATOM     16  C   UNL     1      -2.355 -10.767   1.915  0.00  0.00    +0.016 A 
ATOM     17  C   UNL     1      -2.511  -9.395   1.899  0.00  0.00    +0.030 A 
ATOM     18 BR   UNL     1      -4.232  -8.639   1.697  0.00  0.00    -0.050 Br
ENDBRANCH   2  12
BRANCH   1  19
ATOM     19  C   UNL     1      -1.066  -4.887   2.907  0.00  0.00    +0.131 C 
BRANCH  19  28
ATOM     20  C   UNL     1       0.743   1.650   0.671  0.00  0.00    +0.044 C 
ATOM     21  C   UNL     1       0.683   0.150   0.537  0.00  0.00    -0.050 A 
ATOM     22  C   UNL     1       0.791  -0.427  -0.728  0.00  0.00    +0.005 A 
ATOM     23  C   UNL     1       0.746  -1.770  -0.927  0.00  0.00    +0.024 A 
ATOM     24  C   UNL     1       0.585  -2.648   0.160  0.00  0.00    +0.040 A 
ATOM     25  N   UNL     1       0.543  -3.964  -0.047  0.00  0.00    -0.284 N 
ATOM     26  C   UNL     1       0.394  -4.845   0.929  0.00  0.00    +0.226 C 
ATOM     27  O   UNL     1       0.363  -6.035   0.679  0.00  0.00    -0.275 OA
ATOM     28  C   UNL     1       0.263  -4.366   2.357  0.00  0.00    +0.116 C 
ATOM     29  C   UNL     1       0.311  -2.870   2.598  0.00  0.00    -0.003 C 
ATOM     30  C   UNL     1       0.469  -2.066   1.508  0.00  0.00    -0.007 A 
ATOM     31  C   UNL     1       0.531  -0.611   1.651  0.00  0.00    +0.012 A 
ATOM     32  H   UNL     1       0.625  -4.292  -0.956  0.00  0.00    +0.155 HD
ENDBRANCH  19  28
ENDBRANCH   1  19
TORSDOF 4
