REMARK  Name = ZINC39991360
REMARK  13 active torsions:
REMARK  status: ('A' for Active; 'I' for Inactive)
REMARK    1  A    between atoms: C_1  and  C_2
REMARK    2  A    between atoms: C_2  and  C_3
REMARK    3  A    between atoms: C_3  and  C_4
REMARK    4  A    between atoms: C_4  and  N_5
REMARK    5  A    between atoms: C_6  and  N_28
REMARK    6  A    between atoms: C_7  and  C_15
REMARK    7  A    between atoms: C_8  and  C_14
REMARK    8  A    between atoms: C_9  and  C_12
REMARK    9  A    between atoms: N_19  and  C_23
REMARK   10  A    between atoms: C_23  and  C_24
REMARK   11  A    between atoms: C_24  and  C_25
REMARK   12  A    between atoms: C_30  and  C_37
REMARK   13  A    between atoms: C_33  and  C_36
REMARK                            x       y       z     vdW  Elec       q    Type
REMARK                         _______ _______ _______ _____ _____    ______ ____
ROOT
ATOM      1  N   UNL     1      -3.047  -1.934   0.262  0.00  0.00    -0.295 N 
ATOM      2  C   UNL     1      -3.418  -2.369   1.493  0.00  0.00    +0.112 A 
ATOM      3  C   UNL     1      -4.476  -3.281   1.639  0.00  0.00    +0.019 A 
ATOM      4  C   UNL     1      -5.153  -3.742   0.497  0.00  0.00    -0.017 A 
ATOM      5  C   UNL     1      -4.754  -3.281  -0.754  0.00  0.00    +0.120 A 
ATOM      6  C   UNL     1      -3.682  -2.357  -0.846  0.00  0.00    +0.270 A 
ATOM      7  O   UNL     1      -3.331  -1.946  -1.938  0.00  0.00    -0.266 OA
ATOM      8  C   UNL     1      -6.292  -4.721   0.625  0.00  0.00    +0.046 C 
ENDROOT
BRANCH   3   9
ATOM      9  C   UNL     1      -4.871  -3.747   2.970  0.00  0.00    +0.032 C 
ATOM     10  C   UNL     1      -6.122  -3.485   3.439  0.00  0.00    +0.077 C 
ATOM     11  C   UNL     1      -6.752  -3.928   4.642  0.00  0.00    +0.258 C 
ATOM     12  O   UNL     1      -6.165  -4.649   5.428  0.00  0.00    -0.269 OA
ATOM     13  N   UNL     1      -7.990  -3.531   4.876  0.00  0.00    -0.255 N 
ATOM     14  C   UNL     1      -8.641  -2.730   4.003  0.00  0.00    +0.121 C 
ATOM     15  S   UNL     1     -10.230  -2.102   4.103  0.00  0.00    -0.027 S 
ATOM     16  S   UNL     1      -7.420  -2.487   2.722  0.00  0.00    -0.061 S 
BRANCH  13  17
ATOM     17  C   UNL     1      -8.668  -3.965   6.100  0.00  0.00    +0.126 C 
BRANCH  17  18
ATOM     18  C   UNL     1      -8.401  -2.954   7.217  0.00  0.00    +0.144 C 
BRANCH  18  19
ATOM     19  C   UNL     1      -9.098  -3.401   8.476  0.00  0.00    +0.358 C 
ATOM     20  O   UNL     1      -9.749  -4.433   8.480  0.00  0.00    -0.246 OA
ATOM     21  O   UNL     1      -9.012  -2.732   9.492  0.00  0.00    -0.246 OA
ENDBRANCH  18  19
ENDBRANCH  17  18
ENDBRANCH  13  17
ENDBRANCH   3   9
BRANCH   2  22
ATOM     22  N   UNL     1      -2.757  -1.917   2.598  0.00  0.00    -0.311 N 
ATOM     23  C   UNL     1      -2.987  -0.559   3.115  0.00  0.00    +0.137 C 
ATOM     24  C   UNL     1      -3.280  -0.656   4.617  0.00  0.00    +0.133 C 
ATOM     25  O   UNL     1      -2.244  -1.410   5.251  0.00  0.00    -0.371 OA
ATOM     26  C   UNL     1      -2.145  -2.763   4.800  0.00  0.00    +0.133 C 
ATOM     27  C   UNL     1      -1.798  -2.776   3.311  0.00  0.00    +0.137 C 
ATOM     28  C   UNL     1      -1.052  -3.486   5.589  0.00  0.00    +0.039 C 
ATOM     29  C   UNL     1      -4.625  -1.354   4.830  0.00  0.00    +0.039 C 
ENDBRANCH   2  22
BRANCH   5  30
ATOM     30  C   UNL     1      -5.422  -3.732  -1.937  0.00  0.00    +0.105 C 
ATOM     31  N   UNL     1      -5.953  -4.090  -2.876  0.00  0.00    -0.191 NA
ENDBRANCH   5  30
BRANCH   1  32
ATOM     32  C   UNL     1      -1.939  -0.984   0.138  0.00  0.00    +0.126 C 
BRANCH  32  33
ATOM     33  C   UNL     1      -2.496   0.437   0.025  0.00  0.00    +0.021 C 
BRANCH  33  35
ATOM     34  C   UNL     1      -1.897   2.859  -0.103  0.00  0.00    +0.004 C 
ATOM     35  C   UNL     1      -1.340   1.439   0.009  0.00  0.00    -0.002 C 
ENDBRANCH  33  35
ENDBRANCH  32  33
ENDBRANCH   1  32
TORSDOF 9
