REMARK  Name = ZINC04258877
REMARK  3 active torsions:
REMARK  status: ('A' for Active; 'I' for Inactive)
REMARK    1  A    between atoms: C_6  and  C_11
REMARK    2  A    between atoms: C_24  and  N_29
REMARK    3  A    between atoms: C_30  and  C_32
REMARK                            x       y       z     vdW  Elec       q    Type
REMARK                         _______ _______ _______ _____ _____    ______ ____
ROOT
ATOM      1  C   UNL     1      -2.342   3.667   0.082  0.00  0.00    +0.247 C 
ATOM      2  O   UNL     1      -1.318   3.033  -0.083  0.00  0.00    -0.270 OA
ATOM      3  N   UNL     1      -3.521   3.025   0.198  0.00  0.00    -0.297 N 
ATOM      4  C   UNL     1      -4.780   3.776   0.273  0.00  0.00    +0.113 C 
ATOM      5  C   UNL     1      -5.782   3.225  -0.732  0.00  0.00    +0.027 C 
ATOM      6  C   UNL     1      -5.903   1.706  -0.611  0.00  0.00    +0.018 C 
ATOM      7  C   UNL     1      -4.525   1.090  -0.864  0.00  0.00    +0.054 C 
ATOM      8  C   UNL     1      -3.575   1.556   0.248  0.00  0.00    +0.117 C 
ATOM      9  C   UNL     1      -3.973   1.596  -2.176  0.00  0.00    +0.027 A 
ATOM     10  C   UNL     1      -3.095   0.794  -2.835  0.00  0.00    +0.024 A 
ATOM     11  C   UNL     1      -2.491   1.222  -4.022  0.00  0.00    +0.030 A 
ATOM     12  C   UNL     1      -2.779   2.473  -4.497  0.00  0.00    +0.099 A 
ATOM     13  C   UNL     1      -3.691   3.279  -3.787  0.00  0.00    +0.273 A 
ATOM     14  O   UNL     1      -3.909   4.420  -4.162  0.00  0.00    -0.266 OA
ATOM     15  N   UNL     1      -4.328   2.798  -2.692  0.00  0.00    -0.310 N 
ATOM     16  C   UNL     1      -5.427   3.603  -2.158  0.00  0.00    +0.130 C 
ENDROOT
BRANCH   1  22
ATOM     17  C   UNL     1      -1.248  10.003  -0.323  0.00  0.00    +0.001 A 
ATOM     18  C   UNL     1      -0.323   9.331  -1.120  0.00  0.00    +0.001 A 
ATOM     19  C   UNL     1      -0.336   7.973  -1.214  0.00  0.00    +0.008 A 
ATOM     20  C   UNL     1      -1.294   7.235  -0.495  0.00  0.00    -0.017 A 
ATOM     21  C   UNL     1      -1.335   5.835  -0.569  0.00  0.00    +0.021 A 
ATOM     22  C   UNL     1      -2.293   5.143   0.153  0.00  0.00    +0.037 A 
ATOM     23  C   UNL     1      -3.216   5.833   0.960  0.00  0.00    +0.013 A 
ATOM     24  C   UNL     1      -3.195   7.188   1.038  0.00  0.00    +0.009 A 
ATOM     25  C   UNL     1      -2.235   7.920   0.316  0.00  0.00    -0.018 A 
ATOM     26  C   UNL     1      -2.189   9.322   0.386  0.00  0.00    +0.008 A 
ENDBRANCH   1  22
BRANCH  12  27
ATOM     27  N   UNL     1      -2.177   2.945  -5.670  0.00  0.00    -0.276 N 
ATOM     28  C   UNL     1      -2.940   3.400  -6.683  0.00  0.00    +0.268 C 
ATOM     29  O   UNL     1      -4.151   3.317  -6.617  0.00  0.00    -0.268 OA
ATOM     30  H   UNL     1      -1.210   2.944  -5.753  0.00  0.00    +0.155 HD
BRANCH  28  31
ATOM     31  C   UNL     1      -2.303   4.000  -7.878  0.00  0.00    +0.144 A 
ATOM     32  C   UNL     1      -3.091   4.472  -8.928  0.00  0.00    +0.143 A 
ATOM     33  N   UNL     1      -2.518   5.006  -9.991  0.00  0.00    -0.259 NA
ATOM     34  C   UNL     1      -1.202   5.094 -10.061  0.00  0.00    +0.130 A 
ATOM     35  C   UNL     1      -0.415   4.626  -9.018  0.00  0.00    +0.131 A 
ATOM     36  N   UNL     1      -0.979   4.096  -7.951  0.00  0.00    -0.247 NA
ENDBRANCH  28  31
ENDBRANCH  12  27
TORSDOF 3
