REMARK  Name = ZINC24953549
REMARK  7 active torsions:
REMARK  status: ('A' for Active; 'I' for Inactive)
REMARK    1  A    between atoms: C_1  and  N_2
REMARK    2  A    between atoms: N_2  and  C_3
REMARK    3  A    between atoms: C_3  and  C_4
REMARK    4  A    between atoms: N_6  and  C_7
REMARK    5  A    between atoms: C_15  and  C_17
REMARK    6  A    between atoms: C_17  and  C_18
REMARK    7  A    between atoms: C_18  and  C_19
REMARK                            x       y       z     vdW  Elec       q    Type
REMARK                         _______ _______ _______ _____ _____    ______ ____
ROOT
ATOM      1  C   UNL     1      -3.613   4.137  -8.817  0.00  0.00    +0.132 C 
ATOM      2  N   UNL     1      -2.361   3.826  -9.512  0.00  0.00    -0.296 N 
ATOM      3  C   UNL     1      -1.318   3.318  -8.825  0.00  0.00    +0.216 C 
ATOM      4  O   UNL     1      -0.282   3.061  -9.400  0.00  0.00    -0.276 OA
ENDROOT
BRANCH   2   5
ATOM      5  C   UNL     1      -2.243   4.066 -10.952  0.00  0.00    +0.203 C 
BRANCH   5   6
ATOM      6  C   UNL     1      -2.673   2.833 -11.704  0.00  0.00    +0.235 C 
ATOM      7  O   UNL     1      -3.041   1.850 -11.097  0.00  0.00    -0.274 OA
ATOM      8  N   UNL     1      -2.647   2.822 -13.051  0.00  0.00    -0.284 N 
ATOM      9  H   UNL     1      -2.387   3.737 -13.604  0.00  0.00    +0.155 HD
BRANCH   8  10
ATOM     10  C   UNL     1      -2.953   1.647 -13.748  0.00  0.00    +0.035 A 
ATOM     11  C   UNL     1      -2.297   1.352 -14.936  0.00  0.00    +0.025 A 
ATOM     12  C   UNL     1      -2.595   0.189 -15.618  0.00  0.00    +0.023 A 
ATOM     13  C   UNL     1      -3.556  -0.677 -15.126  0.00  0.00    +0.059 A 
ATOM     14  C   UNL     1      -4.216  -0.383 -13.945  0.00  0.00    +0.061 A 
ATOM     15  C   UNL     1      -3.917   0.777 -13.255  0.00  0.00    +0.044 A 
ATOM     16 CL   UNL     1      -5.421  -1.471 -13.330  0.00  0.00    -0.082 Cl
ATOM     17 CL   UNL     1      -3.934  -2.134 -15.990  0.00  0.00    -0.082 Cl
ENDBRANCH   8  10
ENDBRANCH   5   6
ENDBRANCH   2   5
BRANCH   3  18
ATOM     18  C   UNL     1      -1.440   3.071  -7.344  0.00  0.00    +0.103 C 
BRANCH  18  19
ATOM     19  C   UNL     1      -0.124   2.497  -6.813  0.00  0.00    +0.083 C 
BRANCH  19  20
ATOM     20  C   UNL     1      -0.246   2.250  -5.331  0.00  0.00    +0.111 A 
ATOM     21  N   UNL     1       0.813   1.738  -4.652  0.00  0.00    -0.310 N 
ATOM     22  H   UNL     1       1.748   1.509  -5.184  0.00  0.00    +0.170 HD
ATOM     23  C   UNL     1       0.747   1.501  -3.328  0.00  0.00    +0.260 A 
ATOM     24  O   UNL     1       1.705   1.041  -2.732  0.00  0.00    -0.267 OA
ATOM     25  C   UNL     1      -0.471   1.800  -2.634  0.00  0.00    +0.075 A 
ATOM     26  C   UNL     1      -0.766   1.623  -1.204  0.00  0.00    -0.023 A 
ATOM     27  C   UNL     1      -1.993   1.980  -0.789  0.00  0.00    -0.004 A 
ATOM     28  S   UNL     1      -2.821   2.564  -2.251  0.00  0.00    -0.073 S 
ATOM     29  C   UNL     1      -1.507   2.324  -3.417  0.00  0.00    +0.116 A 
ATOM     30  N   UNL     1      -1.368   2.532  -4.724  0.00  0.00    -0.227 NA
ATOM     31  C   UNL     1      -2.180   1.760   0.688  0.00  0.00    +0.043 C 
ATOM     32  C   UNL     1      -0.744   1.613   1.243  0.00  0.00    +0.010 C 
ATOM     33  C   UNL     1       0.017   1.103   0.004  0.00  0.00    +0.037 C 
ENDBRANCH  19  20
ENDBRANCH  18  19
ENDBRANCH   3  18
TORSDOF 6
