REMARK  Name = ZINC13591007
REMARK  8 active torsions:
REMARK  status: ('A' for Active; 'I' for Inactive)
REMARK    1  A    between atoms: C_1  and  C_2
REMARK    2  A    between atoms: C_3  and  C_29
REMARK    3  A    between atoms: C_4  and  C_23
REMARK    4  A    between atoms: C_10  and  C_11
REMARK    5  A    between atoms: C_14  and  N_17
REMARK    6  A    between atoms: N_17  and  C_18
REMARK    7  A    between atoms: N_17  and  C_19
REMARK    8  A    between atoms: N_31  and  C_32
REMARK                            x       y       z     vdW  Elec       q    Type
REMARK                         _______ _______ _______ _____ _____    ______ ____
ROOT
ATOM      1  C   UNL     1      -1.450   2.977   2.514  0.00  0.00    +0.066 C 
ATOM      2  C   UNL     1      -0.551   2.977   1.304  0.00  0.00    +0.051 C 
ATOM      3  C   UNL     1      -1.098   3.053   0.055  0.00  0.00    +0.063 C 
ATOM      4  C   UNL     1      -0.163   3.050  -1.132  0.00  0.00    +0.160 C 
ATOM      5  N   UNL     1       1.297   2.965  -0.848  0.00  0.00    -0.275 N 
ATOM      6  C   UNL     1       2.277   2.949  -1.760  0.00  0.00    +0.268 A 
ATOM      7  O   UNL     1       2.027   3.007  -2.950  0.00  0.00    -0.266 OA
ATOM      8  C   UNL     1       3.664   2.860  -1.282  0.00  0.00    +0.081 A 
ATOM      9  C   UNL     1       4.821   2.828  -1.993  0.00  0.00    +0.028 C 
ATOM     10  S   UNL     1       3.415   2.806   0.485  0.00  0.00    -0.046 S 
ATOM     11  C   UNL     1       1.635   2.897   0.485  0.00  0.00    +0.178 A 
ATOM     12  N   UNL     1       0.765   2.904   1.462  0.00  0.00    -0.228 NA
ENDROOT
BRANCH   9  13
ATOM     13  C   UNL     1       4.782   2.693  -3.453  0.00  0.00    -0.024 A 
ATOM     14  C   UNL     1       3.867   1.819  -4.054  0.00  0.00    +0.010 A 
ATOM     15  C   UNL     1       3.831   1.700  -5.420  0.00  0.00    +0.023 A 
ATOM     16  C   UNL     1       4.709   2.438  -6.208  0.00  0.00    +0.029 A 
ATOM     17  C   UNL     1       5.625   3.304  -5.616  0.00  0.00    +0.023 A 
ATOM     18  C   UNL     1       5.664   3.433  -4.251  0.00  0.00    +0.010 A 
BRANCH  16  19
ATOM     19  N   UNL     1       4.672   2.310  -7.594  0.00  0.00    -0.336 N 
ATOM     20  C   UNL     1       5.508   3.173  -8.432  0.00  0.00    +0.129 C 
ATOM     21  C   UNL     1       3.798   1.311  -8.214  0.00  0.00    +0.129 C 
ENDBRANCH  16  19
ENDBRANCH   9  13
BRANCH   4  22
ATOM     22  C   UNL     1      -0.409   4.312  -1.918  0.00  0.00    -0.020 A 
ATOM     23  C   UNL     1       0.185   5.497  -1.526  0.00  0.00    +0.006 A 
ATOM     24  C   UNL     1      -0.037   6.654  -2.249  0.00  0.00    +0.000 A 
ATOM     25  C   UNL     1      -0.861   6.628  -3.359  0.00  0.00    +0.000 A 
ATOM     26  C   UNL     1      -1.459   5.444  -3.748  0.00  0.00    +0.000 A 
ATOM     27  C   UNL     1      -1.233   4.286  -3.027  0.00  0.00    +0.006 A 
ENDBRANCH   4  22
BRANCH   3  28
ATOM     28  C   UNL     1      -2.491   3.131  -0.122  0.00  0.00    +0.248 C 
ATOM     29  O   UNL     1      -3.124   2.134  -0.422  0.00  0.00    -0.270 OA
ATOM     30  N   UNL     1      -3.126   4.309   0.041  0.00  0.00    -0.282 N 
ATOM     31  H   UNL     1      -2.614   5.121   0.176  0.00  0.00    +0.155 HD
BRANCH  30  32
ATOM     32  C   UNL     1      -4.524   4.359   0.015  0.00  0.00    +0.034 A 
ATOM     33  C   UNL     1      -5.267   3.286   0.490  0.00  0.00    +0.023 A 
ATOM     34  C   UNL     1      -6.647   3.341   0.468  0.00  0.00    +0.002 A 
ATOM     35  C   UNL     1      -7.288   4.458  -0.036  0.00  0.00    +0.000 A 
ATOM     36  C   UNL     1      -6.551   5.525  -0.514  0.00  0.00    +0.002 A 
ATOM     37  C   UNL     1      -5.170   5.479  -0.490  0.00  0.00    +0.023 A 
ENDBRANCH  30  32
ENDBRANCH   3  28
TORSDOF 5
