REMARK  Name = ZINC39466485
REMARK  4 active torsions:
REMARK  status: ('A' for Active; 'I' for Inactive)
REMARK    1  A    between atoms: C_4  and  C_7
REMARK    2  A    between atoms: C_7  and  C_8
REMARK    3  A    between atoms: P_17  and  C_27
REMARK    4  A    between atoms: C_27  and  C_28
REMARK                            x       y       z     vdW  Elec       q    Type
REMARK                         _______ _______ _______ _____ _____    ______ ____
ROOT
ATOM      1  C   UNL     1       4.164  -0.959   1.377  0.00  0.00    -0.012 C 
ATOM      2  C   UNL     1       3.892  -2.122   1.970  0.00  0.00    -0.016 C 
ATOM      3  C   UNL     1       4.370  -2.346   3.378  0.00  0.00    +0.016 C 
ATOM      4  C   UNL     1       4.487  -3.832   3.702  0.00  0.00    -0.003 C 
ATOM      5  C   UNL     1       5.013  -4.003   5.135  0.00  0.00    -0.020 C 
ATOM      6  C   UNL     1       5.134  -5.509   5.399  0.00  0.00    +0.156 C 
ATOM      7  O   UNL     1       5.540  -5.722   6.763  0.00  0.00    -0.319 OA
ATOM      8  P   UNL     1       6.830  -4.892   7.308  0.00  0.00    +0.262 P 
ATOM      9  O   UNL     1       8.083  -5.549   6.872  0.00  0.00    -0.274 OA
ATOM     10  N   UNL     1       6.702  -3.394   6.626  0.00  0.00    -0.291 NA
ATOM     11  N   UNL     1       6.307  -3.342   5.304  0.00  0.00    +0.397 N 
ATOM     12  C   UNL     1       6.228  -1.909   4.971  0.00  0.00    -0.046 C 
ATOM     13  C   UNL     1       5.761  -1.718   3.535  0.00  0.00    +0.007 C 
ATOM     14  C   UNL     1       5.685  -0.268   3.144  0.00  0.00    +0.014 C 
ATOM     15  C   UNL     1       4.916   0.077   2.110  0.00  0.00    +0.123 C 
ATOM     16  F   UNL     1       4.824   1.372   1.739  0.00  0.00    -0.206 F 
ATOM     17  H   UNL     1       6.905  -2.593   7.133  0.00  0.00    +0.111 HD
ATOM     18  H   UNL     1       6.993  -3.789   4.715  0.00  0.00    -0.055 HD
ENDROOT
BRANCH   1  19
ATOM     19  C   UNL     1       3.711  -0.707  -0.038  0.00  0.00    +0.072 C 
BRANCH  19  23
ATOM     20  C   UNL     1      -0.017   1.378   0.010  0.00  0.00    +0.000 A 
ATOM     21  C   UNL     1       1.171   2.086   0.002  0.00  0.00    +0.000 A 
ATOM     22  C   UNL     1       2.377   1.411  -0.013  0.00  0.00    +0.004 A 
ATOM     23  C   UNL     1       2.396   0.029  -0.020  0.00  0.00    -0.043 A 
ATOM     24  C   UNL     1       1.208  -0.679  -0.012  0.00  0.00    +0.004 A 
ATOM     25  C   UNL     1       0.002  -0.004   0.002  0.00  0.00    +0.000 A 
ENDBRANCH  19  23
ENDBRANCH   1  19
BRANCH   8  26
ATOM     26  C   UNL     1       6.781  -4.769   9.126  0.00  0.00    +0.147 C 
BRANCH  26  27
ATOM     27  C   UNL     1       6.797  -6.153   9.723  0.00  0.00    -0.037 A 
ATOM     28  C   UNL     1       5.609  -6.817   9.962  0.00  0.00    +0.004 A 
ATOM     29  C   UNL     1       5.624  -8.086  10.510  0.00  0.00    +0.000 A 
ATOM     30  C   UNL     1       6.828  -8.691  10.819  0.00  0.00    +0.000 A 
ATOM     31  C   UNL     1       8.017  -8.027  10.580  0.00  0.00    +0.000 A 
ATOM     32  C   UNL     1       8.001  -6.760  10.028  0.00  0.00    +0.004 A 
ENDBRANCH  26  27
ENDBRANCH   8  26
TORSDOF 4
