REMARK  Name = ZINC38546338
REMARK  10 active torsions:
REMARK  status: ('A' for Active; 'I' for Inactive)
REMARK    1  A    between atoms: C_1  and  C_2
REMARK    2  A    between atoms: N_5  and  C_8
REMARK    3  A    between atoms: C_8  and  C_10
REMARK    4  A    between atoms: C_8  and  C_20
REMARK    5  A    between atoms: C_14  and  O_18
REMARK    6  A    between atoms: C_15  and  O_16
REMARK    7  A    between atoms: O_16  and  C_17
REMARK    8  A    between atoms: O_18  and  C_19
REMARK    9  A    between atoms: C_24  and  N_25
REMARK   10  A    between atoms: C_26  and  C_28
REMARK                            x       y       z     vdW  Elec       q    Type
REMARK                         _______ _______ _______ _____ _____    ______ ____
ROOT
ATOM      1  C   UNL     1      -0.737  -3.938   1.387  0.00  0.00    -0.000 C 
ENDROOT
BRANCH   1   2
ATOM      2  C   UNL     1      -2.114  -4.540   1.498  0.00  0.00    -0.025 A 
ATOM      3  C   UNL     1      -2.450  -5.661   0.739  0.00  0.00    -0.033 A 
ATOM      4  C   UNL     1      -3.712  -6.146   0.894  0.00  0.00    -0.005 A 
ATOM      5  S   UNL     1      -4.442  -5.059   2.088  0.00  0.00    -0.078 S 
ATOM      6  C   UNL     1      -3.030  -3.994   2.342  0.00  0.00    +0.074 A 
ATOM      7  C   UNL     1      -4.326  -7.323   0.208  0.00  0.00    +0.043 C 
ATOM      8  C   UNL     1      -3.438  -7.703  -0.987  0.00  0.00    +0.005 C 
ATOM      9  C   UNL     1      -1.980  -7.751  -0.520  0.00  0.00    +0.005 C 
ATOM     10  C   UNL     1      -1.479  -6.337  -0.225  0.00  0.00    +0.036 C 
BRANCH   6  11
ATOM     11  N   UNL     1      -2.901  -2.889   3.185  0.00  0.00    -0.273 N 
ATOM     12  C   UNL     1      -3.971  -2.433   3.868  0.00  0.00    +0.284 C 
ATOM     13  O   UNL     1      -5.049  -2.986   3.748  0.00  0.00    -0.266 OA
ATOM     14  H   UNL     1      -2.042  -2.449   3.280  0.00  0.00    +0.156 HD
BRANCH  12  15
ATOM     15  C   UNL     1      -3.835  -1.273   4.753  0.00  0.00    +0.189 A 
ATOM     16  C   UNL     1      -4.831  -0.715   5.503  0.00  0.00    +0.054 A 
ATOM     17  C   UNL     1      -4.260   0.366   6.193  0.00  0.00    +0.042 A 
ATOM     18  C   UNL     1      -2.957   0.419   5.839  0.00  0.00    +0.196 A 
ATOM     19  O   UNL     1      -2.704  -0.573   4.975  0.00  0.00    -0.458 OA
ENDBRANCH  12  15
ENDBRANCH   6  11
ENDBRANCH   1   2
BRANCH   1  24
ATOM     20  C   UNL     1      -0.704   1.463  -0.443  0.00  0.00    +0.007 C 
ATOM     21  C   UNL     1      -0.532  -0.055  -0.355  0.00  0.00    -0.018 C 
ATOM     22  C   UNL     1      -1.898  -0.714  -0.142  0.00  0.00    -0.015 C 
ATOM     23  C   UNL     1      -1.710  -2.223   0.024  0.00  0.00    -0.077 C 
ATOM     24  N   UNL     1      -0.851  -2.487   1.185  0.00  0.00    +0.387 N 
ATOM     25  C   UNL     1       0.483  -1.920   0.957  0.00  0.00    -0.077 C 
ATOM     26  C   UNL     1       0.380  -0.399   0.826  0.00  0.00    -0.015 C 
ATOM     27  H   UNL     1      -1.258  -2.066   2.006  0.00  0.00    -0.080 HD
ENDBRANCH   1  24
BRANCH   1  28
ATOM     28  C   UNL     1       0.033  -4.210   2.654  0.00  0.00    -0.011 A 
ATOM     29  C   UNL     1       0.096  -3.247   3.645  0.00  0.00    +0.006 A 
ATOM     30  C   UNL     1       0.802  -3.493   4.808  0.00  0.00    +0.004 A 
ATOM     31  C   UNL     1       1.448  -4.702   4.985  0.00  0.00    +0.049 A 
ATOM     32  C   UNL     1       1.389  -5.670   3.996  0.00  0.00    +0.162 A 
ATOM     33  C   UNL     1       0.674  -5.425   2.828  0.00  0.00    +0.163 A 
BRANCH  33  34
ATOM     34  O   UNL     1       0.608  -6.375   1.857  0.00  0.00    -0.491 OA
ATOM     35  C   UNL     1       1.628  -6.351   0.856  0.00  0.00    +0.277 C 
ENDBRANCH  33  34
BRANCH  32  36
ATOM     36  O   UNL     1       2.025  -6.860   4.169  0.00  0.00    -0.491 OA
ATOM     37  C   UNL     1       2.735  -7.044   5.396  0.00  0.00    +0.277 C 
ENDBRANCH  32  36
ENDBRANCH   1  28
TORSDOF 7
