REMARK  Name = ZINC67289918
REMARK  8 active torsions:
REMARK  status: ('A' for Active; 'I' for Inactive)
REMARK    1  A    between atoms: C_1  and  C_2
REMARK    2  A    between atoms: C_5  and  C_9
REMARK    3  A    between atoms: C_7  and  C_8
REMARK    4  A    between atoms: C_12  and  S_18
REMARK    5  A    between atoms: S_18  and  C_19
REMARK    6  A    between atoms: C_19  and  C_20
REMARK    7  A    between atoms: N_22  and  C_23
REMARK    8  A    between atoms: C_23  and  C_24
REMARK                            x       y       z     vdW  Elec       q    Type
REMARK                         _______ _______ _______ _____ _____    ______ ____
ROOT
ATOM      1  C   UNL     1       0.060  -4.256  -0.021  0.00  0.00    +0.094 A 
ATOM      2  C   UNL     1       0.169  -5.063  -1.156  0.00  0.00    +0.060 A 
ATOM      3  C   UNL     1       0.149  -6.380  -0.735  0.00  0.00    +0.099 A 
ATOM      4  C   UNL     1       0.223  -7.623  -1.409  0.00  0.00    +0.123 A 
ATOM      5  N   UNL     1       0.176  -8.743  -0.712  0.00  0.00    -0.245 NA
ATOM      6  C   UNL     1       0.060  -8.724   0.620  0.00  0.00    +0.132 A 
ATOM      7  C   UNL     1      -0.015  -7.565   1.304  0.00  0.00    +0.132 A 
ATOM      8  N   UNL     1       0.030  -6.370   0.633  0.00  0.00    -0.235 N 
ATOM      9  N   UNL     1      -0.018  -5.035   1.046  0.00  0.00    -0.166 NA
ENDROOT
BRANCH   1  14
ATOM     10  C   UNL     1      -0.018   1.503   0.010  0.00  0.00    +0.044 C 
ATOM     11  C   UNL     1       0.002  -0.004   0.002  0.00  0.00    -0.047 A 
ATOM     12  C   UNL     1       0.006  -0.687  -1.201  0.00  0.00    +0.004 A 
ATOM     13  C   UNL     1       0.024  -2.067  -1.215  0.00  0.00    +0.010 A 
ATOM     14  C   UNL     1       0.040  -2.772  -0.013  0.00  0.00    +0.002 A 
ATOM     15  C   UNL     1       0.037  -2.080   1.196  0.00  0.00    +0.013 A 
ATOM     16  C   UNL     1       0.023  -0.699   1.197  0.00  0.00    -0.047 A 
ATOM     17  C   UNL     1       0.025   0.051   2.504  0.00  0.00    +0.044 C 
ENDBRANCH   1  14
BRANCH   4  18
ATOM     18  S   UNL     1       0.376  -7.675  -3.163  0.00  0.00    -0.095 S 
BRANCH  18  19
ATOM     19  C   UNL     1       0.432  -9.447  -3.547  0.00  0.00    +0.171 C 
BRANCH  19  20
ATOM     20  C   UNL     1       0.564  -9.635  -5.036  0.00  0.00    +0.224 C 
ATOM     21  O   UNL     1       0.615  -8.669  -5.767  0.00  0.00    -0.275 OA
ATOM     22  N   UNL     1       0.624 -10.877  -5.556  0.00  0.00    -0.311 N 
ATOM     23  H   UNL     1       0.583 -11.650  -4.972  0.00  0.00    +0.149 HD
BRANCH  22  24
ATOM     24  C   UNL     1       0.752 -11.060  -7.004  0.00  0.00    +0.139 C 
BRANCH  24  25
ATOM     25  C   UNL     1       0.799 -12.532  -7.323  0.00  0.00    -0.030 A 
ATOM     26  C   UNL     1       2.012 -13.193  -7.360  0.00  0.00    +0.006 A 
ATOM     27  C   UNL     1       2.055 -14.543  -7.652  0.00  0.00    +0.020 A 
ATOM     28  C   UNL     1       0.883 -15.233  -7.907  0.00  0.00    +0.041 A 
ATOM     29  C   UNL     1      -0.331 -14.571  -7.870  0.00  0.00    +0.020 A 
ATOM     30  C   UNL     1      -0.373 -13.222  -7.572  0.00  0.00    +0.006 A 
ATOM     31 CL   UNL     1       0.937 -16.929  -8.275  0.00  0.00    -0.084 Cl
ENDBRANCH  24  25
ENDBRANCH  22  24
ENDBRANCH  19  20
ENDBRANCH  18  19
ENDBRANCH   4  18
TORSDOF 6
