REMARK  Name = ZINC47613500
REMARK  7 active torsions:
REMARK  status: ('A' for Active; 'I' for Inactive)
REMARK    1  A    between atoms: C_4  and  C_7
REMARK    2  A    between atoms: C_7  and  C_8
REMARK    3  A    between atoms: C_8  and  N_9
REMARK    4  A    between atoms: N_9  and  C_10
REMARK    5  A    between atoms: N_9  and  C_17
REMARK    6  A    between atoms: C_10  and  C_11
REMARK    7  A    between atoms: C_17  and  C_18
REMARK                            x       y       z     vdW  Elec       q    Type
REMARK                         _______ _______ _______ _____ _____    ______ ____
ROOT
ATOM      1  N   UNL     1       4.735  -1.365   2.940  0.00  0.00    +0.391 N 
ATOM      2  H   UNL     1       4.132  -2.137   3.183  0.00  0.00    -0.080 HD
ENDROOT
BRANCH   1   3
ATOM      3  C   UNL     1       4.046  -0.488   1.983  0.00  0.00    -0.073 C 
BRANCH   3   4
ATOM      4  C   UNL     1       3.577  -1.313   0.783  0.00  0.00    +0.012 C 
BRANCH   4   8
ATOM      5  C   UNL     1       1.122   0.824  -2.025  0.00  0.00    +0.004 C 
ATOM      6  C   UNL     1       0.704   0.907  -0.551  0.00  0.00    +0.005 C 
ATOM      7  C   UNL     1       1.282  -0.303   0.185  0.00  0.00    +0.030 C 
ATOM      8  C   UNL     1       2.743  -0.447  -0.126  0.00  0.00    -0.075 C 
ATOM      9  C   UNL     1       3.331   0.125  -1.127  0.00  0.00    -0.028 C 
ATOM     10  C   UNL     1       2.637   1.022  -2.110  0.00  0.00    +0.027 C 
ENDBRANCH   4   8
ENDBRANCH   3   4
ENDBRANCH   1   3
BRANCH   1  11
ATOM     11  C   UNL     1       5.969  -1.880   2.332  0.00  0.00    +0.020 C 
BRANCH  11  12
ATOM     12  C   UNL     1       6.612  -2.873   3.265  0.00  0.00    +0.204 C 
ATOM     13  O   UNL     1       6.093  -3.127   4.331  0.00  0.00    -0.277 OA
ATOM     14  N   UNL     1       7.763  -3.480   2.914  0.00  0.00    -0.242 N 
ATOM     15  C   UNL     1       8.338  -4.368   3.748  0.00  0.00    +0.303 C 
ATOM     16  O   UNL     1       7.819  -4.623   4.817  0.00  0.00    -0.253 OA
ATOM     17  N   UNL     1       9.490  -4.975   3.397  0.00  0.00    -0.313 N 
ATOM     18  H   UNL     1       8.178  -3.276   2.061  0.00  0.00    +0.159 HD
ATOM     19  H   UNL     1       9.905  -4.771   2.544  0.00  0.00    +0.146 HD
ATOM     20  H   UNL     1       9.904  -5.614   3.998  0.00  0.00    +0.146 HD
ENDBRANCH  11  12
ENDBRANCH   1  11
BRANCH   1  21
ATOM     21  C   UNL     1       5.067  -0.602   4.151  0.00  0.00    +0.020 C 
BRANCH  21  22
ATOM     22  C   UNL     1       3.798  -0.220   4.867  0.00  0.00    +0.204 C 
ATOM     23  O   UNL     1       2.731  -0.647   4.481  0.00  0.00    -0.277 OA
ATOM     24  N   UNL     1       3.848   0.598   5.938  0.00  0.00    -0.242 N 
ATOM     25  C   UNL     1       2.713   0.940   6.578  0.00  0.00    +0.303 C 
ATOM     26  O   UNL     1       1.644   0.512   6.191  0.00  0.00    -0.253 OA
ATOM     27  N   UNL     1       2.764   1.758   7.649  0.00  0.00    -0.313 N 
ATOM     28  H   UNL     1       4.702   0.940   6.247  0.00  0.00    +0.159 HD
ATOM     29  H   UNL     1       3.617   2.100   7.958  0.00  0.00    +0.146 HD
ATOM     30  H   UNL     1       1.946   2.004   8.110  0.00  0.00    +0.146 HD
ENDBRANCH  21  22
ENDBRANCH   1  21
TORSDOF 7
