REMARK  Name = ZINC23352661
REMARK  12 active torsions:
REMARK  status: ('A' for Active; 'I' for Inactive)
REMARK    1  A    between atoms: C_1  and  N_2
REMARK    2  A    between atoms: N_2  and  C_3
REMARK    3  A    between atoms: N_2  and  S_24
REMARK    4  A    between atoms: C_3  and  C_4
REMARK    5  A    between atoms: C_4  and  C_5
REMARK    6  A    between atoms: C_5  and  C_6
REMARK    7  A    between atoms: N_8  and  C_9
REMARK    8  A    between atoms: C_14  and  C_15
REMARK    9  A    between atoms: C_15  and  N_16
REMARK   10  A    between atoms: N_16  and  C_17
REMARK   11  A    between atoms: N_16  and  C_18
REMARK   12  A    between atoms: S_24  and  C_27
REMARK                            x       y       z     vdW  Elec       q    Type
REMARK                         _______ _______ _______ _____ _____    ______ ____
ROOT
ATOM      1  C   UNL     1      -5.813   0.893  -1.879  0.00  0.00    +0.217 C 
ATOM      2  O   UNL     1      -6.090   2.023  -1.536  0.00  0.00    -0.275 OA
ATOM      3  N   UNL     1      -6.728  -0.090  -1.764  0.00  0.00    -0.285 N 
ATOM      4  H   UNL     1      -6.511  -1.093  -2.158  0.00  0.00    +0.155 HD
ENDROOT
BRANCH   3   5
ATOM      5  C   UNL     1      -7.956   0.167  -1.143  0.00  0.00    +0.035 A 
ATOM      6  C   UNL     1      -8.065   1.196  -0.217  0.00  0.00    +0.023 A 
ATOM      7  C   UNL     1      -9.280   1.450   0.390  0.00  0.00    +0.002 A 
ATOM      8  C   UNL     1     -10.383   0.674   0.085  0.00  0.00    +0.000 A 
ATOM      9  C   UNL     1     -10.275  -0.355  -0.832  0.00  0.00    +0.003 A 
ATOM     10  C   UNL     1      -9.065  -0.611  -1.447  0.00  0.00    -0.043 A 
BRANCH  10  11
ATOM     11  C   UNL     1      -8.949  -1.732  -2.447  0.00  0.00    -0.041 C 
BRANCH  11  12
ATOM     12  N   UNL     1      -8.350  -2.906  -1.798  0.00  0.00    +0.382 N 
ATOM     13  C   UNL     1      -9.242  -3.450  -0.766  0.00  0.00    -0.095 C 
ATOM     14  H   UNL     1      -7.421  -2.584  -1.306  0.00  0.00    -0.081 HD
BRANCH  12  15
ATOM     15  C   UNL     1      -8.003  -3.935  -2.789  0.00  0.00    -0.069 C 
ATOM     16  C   UNL     1      -9.281  -4.464  -3.443  0.00  0.00    -0.015 C 
ATOM     17  C   UNL     1      -8.919  -5.535  -4.474  0.00  0.00    -0.002 C 
ATOM     18  C   UNL     1      -8.187  -6.685  -3.780  0.00  0.00    -0.000 C 
ATOM     19  C   UNL     1      -6.910  -6.156  -3.126  0.00  0.00    -0.002 C 
ATOM     20  C   UNL     1      -7.271  -5.085  -2.094  0.00  0.00    -0.015 C 
ENDBRANCH  12  15
ENDBRANCH  11  12
ENDBRANCH  10  11
ENDBRANCH   3   5
BRANCH   1  21
ATOM     21  C   UNL     1      -4.446   0.587  -2.434  0.00  0.00    +0.097 C 
BRANCH  21  22
ATOM     22  C   UNL     1      -3.607   1.867  -2.457  0.00  0.00    +0.026 C 
BRANCH  22  23
ATOM     23  C   UNL     1      -2.219   1.557  -3.021  0.00  0.00    +0.109 C 
BRANCH  23  25
ATOM     24  C   UNL     1      -1.517   3.704  -4.178  0.00  0.00    +0.131 C 
ATOM     25  N   UNL     1      -1.416   2.782  -3.043  0.00  0.00    -0.180 NA
BRANCH  25  26
ATOM     26  S   UNL     1      -0.395   3.126  -1.786  0.00  0.00    +0.061 S 
ATOM     27  O   UNL     1      -0.083   1.886  -1.165  0.00  0.00    -0.153 OA
ATOM     28  O   UNL     1       0.606   3.993  -2.301  0.00  0.00    -0.153 OA
BRANCH  26  29
ATOM     29  C   UNL     1      -1.314   4.061  -0.609  0.00  0.00    +0.106 A 
ATOM     30  C   UNL     1      -1.338   5.441  -0.690  0.00  0.00    +0.031 A 
ATOM     31  C   UNL     1      -2.063   6.175   0.230  0.00  0.00    +0.040 A 
ATOM     32  C   UNL     1      -2.756   5.529   1.240  0.00  0.00    +0.124 A 
ATOM     33  C   UNL     1      -2.727   4.147   1.323  0.00  0.00    +0.040 A 
ATOM     34  C   UNL     1      -2.006   3.414   0.399  0.00  0.00    +0.031 A 
ATOM     35  F   UNL     1      -3.461   6.245   2.142  0.00  0.00    -0.205 F 
ENDBRANCH  26  29
ENDBRANCH  25  26
ENDBRANCH  23  25
ENDBRANCH  22  23
ENDBRANCH  21  22
ENDBRANCH   1  21
TORSDOF 10
