REMARK  Name = ZINC09357657
REMARK  9 active torsions:
REMARK  status: ('A' for Active; 'I' for Inactive)
REMARK    1  A    between atoms: C_1  and  O_2
REMARK    2  A    between atoms: O_2  and  C_3
REMARK    3  A    between atoms: C_5  and  C_13
REMARK    4  A    between atoms: C_7  and  O_11
REMARK    5  A    between atoms: C_8  and  O_9
REMARK    6  A    between atoms: O_9  and  C_10
REMARK    7  A    between atoms: O_11  and  C_12
REMARK    8  A    between atoms: C_18  and  C_23
REMARK    9  A    between atoms: C_37  and  C_39
REMARK                            x       y       z     vdW  Elec       q    Type
REMARK                         _______ _______ _______ _____ _____    ______ ____
ROOT
ATOM      1  C   UNL     1       4.585   1.853  -0.573  0.00  0.00    +0.147 C 
ATOM      2  C   UNL     1       3.204   1.353  -0.922  0.00  0.00    +0.037 C 
ATOM      3  C   UNL     1       2.915   0.175  -1.500  0.00  0.00    +0.017 C 
ATOM      4  C   UNL     1       1.474  -0.201  -1.802  0.00  0.00    +0.059 C 
ATOM      5  C   UNL     1       0.546   0.403  -0.749  0.00  0.00    +0.032 C 
ATOM      6  C   UNL     1       0.719   1.925  -0.793  0.00  0.00    +0.088 C 
ATOM      7  C   UNL     1       2.166   2.248  -0.571  0.00  0.00    +0.163 C 
ATOM      8  O   UNL     1       2.458   3.317  -0.072  0.00  0.00    -0.292 OA
ATOM      9  N   UNL     1       3.835  -0.752  -1.870  0.00  0.00    -0.316 N 
ATOM     10  C   UNL     1       4.892  -1.183  -1.079  0.00  0.00    +0.053 A 
ATOM     11  C   UNL     1       5.020  -2.498  -0.668  0.00  0.00    +0.025 A 
ATOM     12  C   UNL     1       6.156  -2.886   0.021  0.00  0.00    +0.002 A 
ATOM     13  C   UNL     1       7.153  -1.968   0.297  0.00  0.00    +0.002 A 
ATOM     14  C   UNL     1       7.016  -0.647  -0.094  0.00  0.00    +0.025 A 
ATOM     15  C   UNL     1       5.872  -0.252  -0.768  0.00  0.00    +0.058 A 
ATOM     16  N   UNL     1       5.667   1.077  -1.141  0.00  0.00    -0.258 N 
ATOM     17  C   UNL     1       6.489   1.647  -2.045  0.00  0.00    +0.224 C 
ATOM     18  O   UNL     1       6.319   2.802  -2.375  0.00  0.00    -0.275 OA
ATOM     19  H   UNL     1       3.748  -1.143  -2.753  0.00  0.00    +0.152 HD
ENDROOT
BRANCH   1  22
ATOM     20  C   UNL     1       5.100   3.026   2.983  0.00  0.00    +0.165 A 
ATOM     21  C   UNL     1       4.966   3.029   1.603  0.00  0.00    +0.055 A 
ATOM     22  C   UNL     1       4.730   1.846   0.927  0.00  0.00    -0.015 A 
ATOM     23  C   UNL     1       4.622   0.657   1.625  0.00  0.00    +0.055 A 
ATOM     24  C   UNL     1       4.760   0.646   3.005  0.00  0.00    +0.165 A 
ATOM     25  C   UNL     1       4.997   1.833   3.687  0.00  0.00    +0.204 A 
BRANCH  20  27
ATOM     26  C   UNL     1       5.425   5.379   2.858  0.00  0.00    +0.277 C 
ATOM     27  O   UNL     1       5.332   4.191   3.647  0.00  0.00    -0.491 OA
ENDBRANCH  20  27
BRANCH  25  28
ATOM     28  O   UNL     1       5.129   1.826   5.042  0.00  0.00    -0.488 OA
ATOM     29  C   UNL     1       3.938   2.003   5.810  0.00  0.00    +0.277 C 
ENDBRANCH  25  28
BRANCH  24  30
ATOM     30  O   UNL     1       4.659  -0.525   3.689  0.00  0.00    -0.491 OA
ATOM     31  C   UNL     1       4.407  -1.705   2.923  0.00  0.00    +0.277 C 
ENDBRANCH  24  30
ENDBRANCH   1  22
BRANCH   5  32
ATOM     32  C   UNL     1      -0.884   0.042  -1.059  0.00  0.00    -0.044 A 
ATOM     33  C   UNL     1      -1.441   0.406  -2.271  0.00  0.00    +0.004 A 
ATOM     34  C   UNL     1      -2.752   0.070  -2.557  0.00  0.00    +0.000 A 
ATOM     35  C   UNL     1      -3.507  -0.620  -1.628  0.00  0.00    +0.000 A 
ATOM     36  C   UNL     1      -2.951  -0.979  -0.414  0.00  0.00    +0.000 A 
ATOM     37  C   UNL     1      -1.639  -0.649  -0.130  0.00  0.00    +0.004 A 
ENDBRANCH   5  32
BRANCH  17  38
ATOM     38  C   UNL     1       7.619   0.850  -2.644  0.00  0.00    +0.076 C 
ATOM     39  C   UNL     1       9.045   1.248  -2.261  0.00  0.00    +0.013 C 
ATOM     40  C   UNL     1       8.517   1.554  -3.664  0.00  0.00    +0.013 C 
ENDBRANCH  17  38
TORSDOF 6
