REMARK  Name = ZINC64981508
REMARK  7 active torsions:
REMARK  status: ('A' for Active; 'I' for Inactive)
REMARK    1  A    between atoms: C_1  and  C_2
REMARK    2  A    between atoms: C_5  and  C_8
REMARK    3  A    between atoms: C_8  and  O_9
REMARK    4  A    between atoms: O_9  and  C_10
REMARK    5  A    between atoms: C_13  and  C_16
REMARK    6  A    between atoms: N_17  and  N_18
REMARK    7  A    between atoms: N_29  and  C_30
REMARK                            x       y       z     vdW  Elec       q    Type
REMARK                         _______ _______ _______ _____ _____    ______ ____
ROOT
ATOM      1  C   UNL     1       2.219 -10.280  -0.067  0.00  0.00    +0.138 C 
ATOM      2  N   UNL     1       3.424 -10.761  -0.071  0.00  0.00    -0.188 NA
ENDROOT
BRANCH   2   3
ATOM      3  N   UNL     1       3.626 -12.147  -0.080  0.00  0.00    -0.204 N 
ATOM      4  C   UNL     1       4.912 -12.660  -0.085  0.00  0.00    +0.256 A 
ATOM      5  N   UNL     1       5.088 -13.974  -0.098  0.00  0.00    -0.192 NA
ATOM      6  C   UNL     1       6.324 -14.465  -0.103  0.00  0.00    +0.165 A 
ATOM      7  C   UNL     1       7.404 -13.558  -0.092  0.00  0.00    +0.138 A 
ATOM      8  C   UNL     1       8.630 -14.375  -0.100  0.00  0.00    +0.030 A 
ATOM      9  C   UNL     1       9.989 -14.068  -0.096  0.00  0.00    +0.027 A 
ATOM     10  C   UNL     1      10.921 -15.084  -0.105  0.00  0.00    +0.019 A 
ATOM     11  C   UNL     1      10.509 -16.409  -0.119  0.00  0.00    +0.017 A 
ATOM     12  C   UNL     1       9.168 -16.726  -0.123  0.00  0.00    +0.027 A 
ATOM     13  C   UNL     1       8.213 -15.715  -0.114  0.00  0.00    +0.053 A 
ATOM     14  N   UNL     1       6.827 -15.742  -0.115  0.00  0.00    -0.326 N 
ATOM     15  C   UNL     1       6.015 -16.961  -0.128  0.00  0.00    +0.151 C 
ATOM     16 BR   UNL     1      12.766 -14.671  -0.100  0.00  0.00    -0.050 Br
ATOM     17  N   UNL     1       7.161 -12.256  -0.079  0.00  0.00    -0.142 NA
ATOM     18  N   UNL     1       5.946 -11.825  -0.081  0.00  0.00    -0.111 NA
ATOM     19  H   UNL     1       2.864 -12.748  -0.083  0.00  0.00    +0.177 HD
ENDBRANCH   2   3
BRANCH   1  23
ATOM     20  C   UNL     1       1.608  -6.079  -0.040  0.00  0.00    +0.121 A 
ATOM     21  C   UNL     1       0.516  -6.937  -0.044  0.00  0.00    +0.046 A 
ATOM     22  C   UNL     1       0.710  -8.301  -0.053  0.00  0.00    +0.013 A 
ATOM     23  C   UNL     1       2.007  -8.821  -0.058  0.00  0.00    -0.005 A 
ATOM     24  C   UNL     1       3.102  -7.954  -0.053  0.00  0.00    +0.013 A 
ATOM     25  C   UNL     1       2.899  -6.591  -0.050  0.00  0.00    +0.046 A 
BRANCH  20  26
ATOM     26  O   UNL     1       1.413  -4.734  -0.032  0.00  0.00    -0.487 OA
BRANCH  26  27
ATOM     27  C   UNL     1       0.059  -4.275  -0.021  0.00  0.00    +0.264 C 
BRANCH  27  32
ATOM     28  C   UNL     1      -0.018   1.503   0.010  0.00  0.00    +0.044 C 
ATOM     29  C   UNL     1       0.002  -0.004   0.002  0.00  0.00    -0.050 A 
ATOM     30  C   UNL     1       0.006  -0.689  -1.199  0.00  0.00    +0.004 A 
ATOM     31  C   UNL     1       0.025  -2.071  -1.206  0.00  0.00    +0.007 A 
ATOM     32  C   UNL     1       0.040  -2.768  -0.013  0.00  0.00    -0.010 A 
ATOM     33  C   UNL     1       0.037  -2.084   1.188  0.00  0.00    +0.007 A 
ATOM     34  C   UNL     1       0.023  -0.702   1.195  0.00  0.00    +0.004 A 
ENDBRANCH  27  32
ENDBRANCH  26  27
ENDBRANCH  20  26
ENDBRANCH   1  23
TORSDOF 5
