REMARK  Name = ZINC40944467
REMARK  12 active torsions:
REMARK  status: ('A' for Active; 'I' for Inactive)
REMARK    1  A    between atoms: C_1  and  C_2
REMARK    2  A    between atoms: C_4  and  O_12
REMARK    3  A    between atoms: C_5  and  C_9
REMARK    4  A    between atoms: C_9  and  C_10
REMARK    5  A    between atoms: C_9  and  C_11
REMARK    6  A    between atoms: O_12  and  C_13
REMARK    7  A    between atoms: C_13  and  C_14
REMARK    8  A    between atoms: C_19  and  C_22
REMARK    9  A    between atoms: C_25  and  O_28
REMARK   10  A    between atoms: O_28  and  C_29
REMARK   11  A    between atoms: C_29  and  C_30
REMARK   12  A    between atoms: C_29  and  C_31
REMARK                            x       y       z     vdW  Elec       q    Type
REMARK                         _______ _______ _______ _____ _____    ______ ____
ROOT
ATOM      1  C   UNL     1      -1.354  -2.945  -4.873  0.00  0.00    +0.256 C 
ATOM      2  O   UNL     1      -1.504  -4.141  -4.746  0.00  0.00    -0.272 OA
ATOM      3  N   UNL     1      -1.140  -2.418  -6.095  0.00  0.00    -0.262 N 
ATOM      4  C   UNL     1      -1.092  -3.247  -7.209  0.00  0.00    +0.165 A 
ATOM      5  N   UNL     1      -0.891  -2.933  -8.476  0.00  0.00    -0.225 NA
ATOM      6  C   UNL     1      -0.875  -3.861  -9.420  0.00  0.00    +0.080 A 
ATOM      7  C   UNL     1      -1.072  -5.170  -9.078  0.00  0.00    +0.076 A 
ATOM      8  S   UNL     1      -1.278  -5.022  -7.308  0.00  0.00    -0.060 S 
ATOM      9  H   UNL     1      -1.020  -1.461  -6.197  0.00  0.00    +0.157 HD
ENDROOT
BRANCH   6  10
ATOM     10  C   UNL     1      -0.648  -3.484 -10.837  0.00  0.00    +0.001 A 
ATOM     11  C   UNL     1      -0.639  -4.465 -11.828  0.00  0.00    +0.013 A 
ATOM     12  C   UNL     1      -0.428  -4.111 -13.144  0.00  0.00    +0.046 A 
ATOM     13  C   UNL     1      -0.224  -2.780 -13.482  0.00  0.00    +0.121 A 
ATOM     14  C   UNL     1      -0.232  -1.802 -12.498  0.00  0.00    +0.046 A 
ATOM     15  C   UNL     1      -0.448  -2.148 -11.181  0.00  0.00    +0.013 A 
BRANCH  13  16
ATOM     16  O   UNL     1      -0.015  -2.435 -14.780  0.00  0.00    -0.489 OA
BRANCH  16  17
ATOM     17  C   UNL     1       0.099  -3.501 -15.725  0.00  0.00    +0.167 C 
ATOM     18  C   UNL     1      -1.297  -3.928 -16.183  0.00  0.00    +0.051 C 
ATOM     19  C   UNL     1       0.909  -3.027 -16.933  0.00  0.00    +0.051 C 
ENDBRANCH  16  17
ENDBRANCH  13  16
ENDBRANCH   6  10
BRANCH   1  20
ATOM     20  C   UNL     1      -1.406  -2.046  -3.664  0.00  0.00    +0.325 C 
BRANCH  20  21
ATOM     21  O   UNL     1      -1.643  -2.833  -2.495  0.00  0.00    -0.482 OA
BRANCH  21  25
ATOM     22  C   UNL     1      -1.482   1.376  -0.029  0.00  0.00    +0.045 C 
ATOM     23  C   UNL     1      -1.646  -0.121  -0.069  0.00  0.00    -0.033 A 
ATOM     24  C   UNL     1      -1.568  -0.792  -1.274  0.00  0.00    +0.050 A 
ATOM     25  C   UNL     1      -1.718  -2.171  -1.311  0.00  0.00    +0.125 A 
ATOM     26  C   UNL     1      -1.947  -2.873  -0.136  0.00  0.00    -0.002 A 
ATOM     27  C   UNL     1      -2.024  -2.198   1.067  0.00  0.00    +0.023 A 
ATOM     28  C   UNL     1      -1.868  -0.824   1.101  0.00  0.00    +0.021 A 
ATOM     29 BR   UNL     1      -1.967   0.097   2.750  0.00  0.00    -0.050 Br
BRANCH  26  30
ATOM     30  C   UNL     1      -2.111  -4.370  -0.172  0.00  0.00    +0.016 C 
ATOM     31  C   UNL     1      -1.026  -5.023   0.687  0.00  0.00    +0.012 C 
ATOM     32  C   UNL     1      -3.490  -4.746   0.375  0.00  0.00    +0.012 C 
ENDBRANCH  26  30
ENDBRANCH  21  25
ENDBRANCH  20  21
ENDBRANCH   1  20
TORSDOF 7
