REMARK  Name = ZINC11867300
REMARK  10 active torsions:
REMARK  status: ('A' for Active; 'I' for Inactive)
REMARK    1  A    between atoms: C_1  and  C_2
REMARK    2  A    between atoms: C_2  and  C_3
REMARK    3  A    between atoms: C_5  and  C_19
REMARK    4  A    between atoms: C_6  and  O_18
REMARK    5  A    between atoms: C_8  and  O_9
REMARK    6  A    between atoms: O_9  and  C_10
REMARK    7  A    between atoms: C_10  and  C_11
REMARK    8  A    between atoms: C_20  and  C_26
REMARK    9  A    between atoms: C_21  and  N_25
REMARK   10  A    between atoms: C_28  and  C_31
REMARK                            x       y       z     vdW  Elec       q    Type
REMARK                         _______ _______ _______ _____ _____    ______ ____
ROOT
ATOM      1  C   UNL     1       1.641   2.431   0.845  0.00  0.00    -0.005 A 
ATOM      2  C   UNL     1       2.753   1.637   0.657  0.00  0.00    +0.021 A 
ATOM      3  C   UNL     1       2.599   0.289   0.337  0.00  0.00    +0.045 A 
ATOM      4  C   UNL     1       1.316  -0.253   0.208  0.00  0.00    +0.130 A 
ATOM      5  C   UNL     1       0.206   0.552   0.398  0.00  0.00    +0.092 A 
ATOM      6  C   UNL     1       0.368   1.892   0.716  0.00  0.00    +0.128 A 
ENDROOT
BRANCH   3   7
ATOM      7  C   UNL     1       3.792  -0.567   0.135  0.00  0.00    +0.108 A 
ATOM      8  C   UNL     1       4.901  -0.310  -0.786  0.00  0.00    +0.074 A 
ATOM      9  C   UNL     1       5.784  -1.369  -0.640  0.00  0.00    +0.122 A 
ATOM     10  N   UNL     1       5.270  -2.206   0.286  0.00  0.00    -0.263 N 
ATOM     11  H   UNL     1       5.693  -3.059   0.591  0.00  0.00    +0.190 HD
ATOM     12  N   UNL     1       4.054  -1.698   0.753  0.00  0.00    -0.171 NA
BRANCH   8  13
ATOM     13  C   UNL     1       5.050   0.846  -1.690  0.00  0.00    +0.114 A 
ATOM     14  N   UNL     1       6.072   1.183  -2.465  0.00  0.00    -0.244 NA
ATOM     15  C   UNL     1       6.029   2.261  -3.217  0.00  0.00    +0.046 A 
ATOM     16  C   UNL     1       4.929   3.055  -3.200  0.00  0.00    +0.070 A 
ATOM     17  S   UNL     1       3.903   2.175  -2.029  0.00  0.00    -0.075 S 
ATOM     18  C   UNL     1       7.203   2.617  -4.093  0.00  0.00    +0.066 C 
ENDBRANCH   8  13
BRANCH   9  19
ATOM     19  N   UNL     1       6.979  -1.538  -1.321  0.00  0.00    -0.343 N 
ATOM     20  H   UNL     1       7.265  -0.876  -1.971  0.00  0.00    +0.144 HD
ATOM     21  H   UNL     1       7.531  -2.317  -1.148  0.00  0.00    +0.144 HD
ENDBRANCH   9  19
ENDBRANCH   3   7
BRANCH   1  23
ATOM     22  C   UNL     1       1.740   4.064   2.709  0.00  0.00    +0.009 C 
ATOM     23  C   UNL     1       1.809   3.889   1.191  0.00  0.00    +0.035 C 
ENDBRANCH   1  23
BRANCH   4  24
ATOM     24  O   UNL     1       1.159  -1.566  -0.103  0.00  0.00    -0.506 OA
ATOM     25  H   UNL     1       1.034  -1.735  -1.047  0.00  0.00    +0.292 HD
ENDBRANCH   4  24
BRANCH   6  26
ATOM     26  O   UNL     1      -0.723   2.682   0.898  0.00  0.00    -0.487 OA
BRANCH  26  27
ATOM     27  C   UNL     1      -2.003   2.065   0.745  0.00  0.00    +0.266 C 
BRANCH  27  28
ATOM     28  C   UNL     1      -3.085   3.087   0.981  0.00  0.00    +0.008 A 
ATOM     29  C   UNL     1      -2.748   4.390   1.297  0.00  0.00    +0.008 A 
ATOM     30  C   UNL     1      -3.740   5.328   1.510  0.00  0.00    +0.000 A 
ATOM     31  C   UNL     1      -5.070   4.963   1.416  0.00  0.00    +0.001 A 
ATOM     32  C   UNL     1      -5.409   3.659   1.105  0.00  0.00    +0.020 A 
ATOM     33  C   UNL     1      -4.416   2.720   0.887  0.00  0.00    +0.047 A 
ATOM     34 CL   UNL     1      -4.840   1.083   0.497  0.00  0.00    -0.083 Cl
ENDBRANCH  27  28
ENDBRANCH  26  27
ENDBRANCH   6  26
TORSDOF 8
