REMARK  Name = ZINC09380739
REMARK  11 active torsions:
REMARK  status: ('A' for Active; 'I' for Inactive)
REMARK    1  A    between atoms: C_1  and  C_2
REMARK    2  A    between atoms: C_14  and  C_16
REMARK    3  A    between atoms: C_19  and  O_24
REMARK    4  A    between atoms: C_20  and  O_22
REMARK    5  A    between atoms: O_22  and  C_23
REMARK    6  A    between atoms: O_24  and  C_25
REMARK    7  A    between atoms: C_29  and  C_32
REMARK    8  A    between atoms: C_35  and  C_38
REMARK    9  A    between atoms: C_38  and  C_39
REMARK   10  A    between atoms: C_38  and  C_40
REMARK   11  A    between atoms: C_38  and  C_41
REMARK                            x       y       z     vdW  Elec       q    Type
REMARK                         _______ _______ _______ _____ _____    ______ ____
ROOT
ATOM      1  C   UNL     1       6.587   8.950  -2.943  0.00  0.00    +0.110 C 
ATOM      2  C   UNL     1       6.165   8.516  -1.563  0.00  0.00    +0.218 C 
ATOM      3  O   UNL     1       5.921   9.347  -0.714  0.00  0.00    -0.276 OA
ATOM      4  N   UNL     1       6.060   7.204  -1.272  0.00  0.00    -0.258 N 
ATOM      5  C   UNL     1       6.343   6.257  -2.258  0.00  0.00    +0.058 A 
ATOM      6  C   UNL     1       7.617   6.118  -2.784  0.00  0.00    +0.025 A 
ATOM      7  C   UNL     1       7.859   5.133  -3.726  0.00  0.00    +0.002 A 
ATOM      8  C   UNL     1       6.842   4.291  -4.137  0.00  0.00    +0.002 A 
ATOM      9  C   UNL     1       5.564   4.439  -3.626  0.00  0.00    +0.025 A 
ATOM     10  C   UNL     1       5.315   5.438  -2.701  0.00  0.00    +0.053 A 
ATOM     11  N   UNL     1       4.037   5.715  -2.233  0.00  0.00    -0.316 N 
ATOM     12  C   UNL     1       3.641   5.605  -0.940  0.00  0.00    +0.017 C 
ATOM     13  C   UNL     1       4.329   6.077   0.114  0.00  0.00    +0.037 C 
ATOM     14  C   UNL     1       5.654   6.798   0.056  0.00  0.00    +0.147 C 
ATOM     15  C   UNL     1       3.828   5.905   1.426  0.00  0.00    +0.163 C 
ATOM     16  O   UNL     1       4.457   6.364   2.359  0.00  0.00    -0.292 OA
ATOM     17  C   UNL     1       2.547   5.177   1.707  0.00  0.00    +0.088 C 
ATOM     18  C   UNL     1       2.315   4.149   0.593  0.00  0.00    +0.032 C 
ATOM     19  C   UNL     1       2.311   4.899  -0.738  0.00  0.00    +0.059 C 
ATOM     20  H   UNL     1       3.376   6.009  -2.881  0.00  0.00    +0.152 HD
ENDROOT
BRANCH  14  21
ATOM     21  C   UNL     1       6.716   5.893   0.625  0.00  0.00    -0.018 A 
ATOM     22  C   UNL     1       7.009   4.696  -0.003  0.00  0.00    +0.009 A 
ATOM     23  C   UNL     1       7.986   3.864   0.512  0.00  0.00    +0.050 A 
ATOM     24  C   UNL     1       8.666   4.223   1.664  0.00  0.00    +0.162 A 
ATOM     25  C   UNL     1       8.367   5.425   2.299  0.00  0.00    +0.162 A 
ATOM     26  C   UNL     1       7.390   6.257   1.775  0.00  0.00    +0.055 A 
BRANCH  25  27
ATOM     27  O   UNL     1       9.031   5.782   3.430  0.00  0.00    -0.491 OA
ATOM     28  C   UNL     1       8.671   7.030   4.027  0.00  0.00    +0.277 C 
ENDBRANCH  25  27
BRANCH  24  29
ATOM     29  O   UNL     1       9.623   3.404   2.174  0.00  0.00    -0.491 OA
ATOM     30  C   UNL     1       9.877   2.186   1.471  0.00  0.00    +0.277 C 
ENDBRANCH  24  29
ENDBRANCH  14  21
BRANCH  18  31
ATOM     31  C   UNL     1       0.989   3.465   0.799  0.00  0.00    -0.043 A 
ATOM     32  C   UNL     1       0.935   2.091   0.940  0.00  0.00    +0.004 A 
ATOM     33  C   UNL     1      -0.282   1.462   1.129  0.00  0.00    +0.004 A 
ATOM     34  C   UNL     1      -1.446   2.208   1.170  0.00  0.00    -0.042 A 
ATOM     35  C   UNL     1      -1.391   3.582   1.033  0.00  0.00    +0.004 A 
ATOM     36  C   UNL     1      -0.174   4.210   0.845  0.00  0.00    +0.004 A 
BRANCH  34  37
ATOM     37  C   UNL     1      -2.773   1.522   1.370  0.00  0.00    -0.013 C 
ATOM     38  C   UNL     1      -2.765   0.774   2.704  0.00  0.00    +0.015 C 
ATOM     39  C   UNL     1      -3.890   2.567   1.377  0.00  0.00    +0.015 C 
ATOM     40  C   UNL     1      -3.010   0.529   0.230  0.00  0.00    +0.015 C 
ENDBRANCH  34  37
ENDBRANCH  18  31
TORSDOF 5
