REMARK  Name = ZINC06149331
REMARK  14 active torsions:
REMARK  status: ('A' for Active; 'I' for Inactive)
REMARK    1  A    between atoms: C_1  and  C_2
REMARK    2  A    between atoms: C_2  and  C_3
REMARK    3  A    between atoms: C_3  and  C_4
REMARK    4  A    between atoms: C_3  and  C_5
REMARK    5  A    between atoms: C_3  and  N_6
REMARK    6  A    between atoms: C_7  and  C_11
REMARK    7  A    between atoms: C_11  and  C_13
REMARK    8  A    between atoms: C_11  and  N_72
REMARK    9  A    between atoms: C_16  and  C_26
REMARK   10  A    between atoms: C_18  and  C_25
REMARK   11  A    between atoms: C_27  and  C_28
REMARK   12  A    between atoms: C_27  and  N_72
REMARK   13  A    between atoms: C_34  and  C_35
REMARK   14  A    between atoms: C_34  and  N_72
REMARK                            x       y       z     vdW  Elec       q    Type
REMARK                         _______ _______ _______ _____ _____    ______ ____
ROOT
ATOM      1  C   UNL     1       5.367  -2.584  -0.208  0.00  0.00    +0.040 C 
ENDROOT
BRANCH   1   2
ATOM      2  C   UNL     1       4.255  -1.623   0.125  0.00  0.00    +0.011 A 
ATOM      3  C   UNL     1       3.678  -1.658   1.351  0.00  0.00    +0.018 A 
ATOM      4  C   UNL     1       2.599  -0.712   1.643  0.00  0.00    +0.002 A 
ATOM      5  C   UNL     1       1.964  -0.701   2.890  0.00  0.00    -0.041 A 
ATOM      6  C   UNL     1       0.963   0.196   3.132  0.00  0.00    +0.007 A 
ATOM      7  C   UNL     1       0.567   1.095   2.150  0.00  0.00    -0.048 A 
ATOM      8  C   UNL     1       1.177   1.101   0.915  0.00  0.00    +0.029 A 
ATOM      9  C   UNL     1       2.201   0.198   0.646  0.00  0.00    +0.050 A 
ATOM     10  N   UNL     1       2.829   0.182  -0.581  0.00  0.00    -0.322 N 
ATOM     11  H   UNL     1       2.545   0.829  -1.288  0.00  0.00    +0.169 HD
ATOM     12  C   UNL     1       3.818  -0.691  -0.840  0.00  0.00    +0.251 A 
ATOM     13  O   UNL     1       4.351  -0.677  -1.936  0.00  0.00    -0.268 OA
ATOM     14  C   UNL     1      -0.537   2.078   2.441  0.00  0.00    +0.044 C 
ATOM     15  C   UNL     1       2.385  -1.672   3.962  0.00  0.00    +0.044 C 
ENDBRANCH   1   2
BRANCH   1  17
ATOM     16  N   UNL     1       6.792  -3.242   1.802  0.00  0.00    -0.225 N 
ATOM     17  C   UNL     1       5.713  -3.396   1.013  0.00  0.00    +0.143 A 
ATOM     18  N   UNL     1       5.018  -4.386   1.517  0.00  0.00    -0.115 NA
ATOM     19  N   UNL     1       5.641  -4.823   2.556  0.00  0.00    -0.023 NA
ATOM     20  N   UNL     1       6.713  -4.131   2.733  0.00  0.00    -0.043 NA
BRANCH  16  21
ATOM     21  C   UNL     1       7.857  -2.249   1.635  0.00  0.00    +0.061 C 
ATOM     22  C   UNL     1       8.613  -2.526   0.334  0.00  0.00    +0.036 C 
ATOM     23  C   UNL     1       7.245  -0.848   1.582  0.00  0.00    +0.036 C 
BRANCH  21  25
ATOM     24  C   UNL     1       9.938  -1.302   2.642  0.00  0.00    +0.006 C 
ATOM     25  C   UNL     1       8.826  -2.338   2.816  0.00  0.00    +0.026 C 
ENDBRANCH  21  25
ENDBRANCH  16  21
ENDBRANCH   1  17
BRANCH   1  26
ATOM     26  N   UNL     1       4.927  -3.466  -1.310  0.00  0.00    +0.397 N 
ATOM     27  H   UNL     1       4.737  -2.893  -2.140  0.00  0.00    -0.079 HD
BRANCH  26  28
ATOM     28  C   UNL     1       5.990  -4.441  -1.631  0.00  0.00    -0.041 C 
BRANCH  28  29
ATOM     29  C   UNL     1       5.673  -5.082  -2.958  0.00  0.00    -0.064 A 
ATOM     30  C   UNL     1       4.967  -6.270  -3.001  0.00  0.00    +0.002 A 
ATOM     31  C   UNL     1       4.672  -6.854  -4.219  0.00  0.00    +0.000 A 
ATOM     32  C   UNL     1       5.093  -6.258  -5.392  0.00  0.00    +0.000 A 
ATOM     33  C   UNL     1       5.804  -5.073  -5.349  0.00  0.00    +0.000 A 
ATOM     34  C   UNL     1       6.094  -4.485  -4.132  0.00  0.00    +0.002 A 
ENDBRANCH  28  29
ENDBRANCH  26  28
BRANCH  26  35
ATOM     35  C   UNL     1       3.689  -4.176  -0.924  0.00  0.00    -0.001 C 
BRANCH  35  36
ATOM     36  C   UNL     1       2.508  -3.323  -1.306  0.00  0.00    +0.089 A 
ATOM     37  C   UNL     1       1.947  -3.258  -2.527  0.00  0.00    +0.042 A 
ATOM     38  C   UNL     1       0.874  -2.341  -2.437  0.00  0.00    +0.041 A 
ATOM     39  C   UNL     1       0.844  -1.901  -1.166  0.00  0.00    +0.195 A 
ATOM     40  O   UNL     1       1.832  -2.503  -0.484  0.00  0.00    -0.470 OA
ENDBRANCH  35  36
ENDBRANCH  26  35
ENDBRANCH   1  26
TORSDOF 9
