REMARK  Name = ZINC33821859
REMARK  9 active torsions:
REMARK  status: ('A' for Active; 'I' for Inactive)
REMARK    1  A    between atoms: C_1  and  C_2
REMARK    2  A    between atoms: C_2  and  C_3
REMARK    3  A    between atoms: C_3  and  C_4
REMARK    4  A    between atoms: C_4  and  C_5
REMARK    5  A    between atoms: C_6  and  C_31
REMARK    6  A    between atoms: C_9  and  S_11
REMARK    7  A    between atoms: S_11  and  C_12
REMARK    8  A    between atoms: C_12  and  C_13
REMARK    9  A    between atoms: N_18  and  C_21
REMARK                            x       y       z     vdW  Elec       q    Type
REMARK                         _______ _______ _______ _____ _____    ______ ____
ROOT
ATOM      1  C   UNL     1      -4.853  -1.758  -4.462  0.00  0.00    +0.226 C 
ATOM      2  O   UNL     1      -5.960  -2.170  -4.184  0.00  0.00    -0.275 OA
ATOM      3  N   UNL     1      -4.493  -1.614  -5.753  0.00  0.00    -0.304 N 
ATOM      4  C   UNL     1      -3.158  -1.111  -6.112  0.00  0.00    +0.089 C 
ATOM      5  C   UNL     1      -2.532  -2.084  -7.123  0.00  0.00    -0.059 C 
ATOM      6  N   UNL     1      -3.452  -2.266  -8.254  0.00  0.00    +0.385 N 
ATOM      7  C   UNL     1      -4.713  -2.884  -7.822  0.00  0.00    -0.059 C 
ATOM      8  C   UNL     1      -5.426  -1.949  -6.839  0.00  0.00    +0.089 C 
ATOM      9  H   UNL     1      -3.689  -1.270  -8.656  0.00  0.00    -0.081 HD
ENDROOT
BRANCH   6  10
ATOM     10  C   UNL     1      -2.822  -3.049  -9.325  0.00  0.00    -0.065 C 
ATOM     11  C   UNL     1      -2.526  -4.462  -8.817  0.00  0.00    -0.009 C 
ATOM     12  C   UNL     1      -1.870  -5.278  -9.933  0.00  0.00    -0.012 C 
ATOM     13  C   UNL     1      -0.563  -4.604 -10.356  0.00  0.00    +0.007 C 
ATOM     14  C   UNL     1      -0.858  -3.191 -10.863  0.00  0.00    -0.012 C 
ATOM     15  C   UNL     1      -1.515  -2.376  -9.748  0.00  0.00    -0.009 C 
ATOM     16  C   UNL     1      -1.804  -3.268 -12.063  0.00  0.00    +0.007 C 
ATOM     17  C   UNL     1      -3.111  -3.942 -11.641  0.00  0.00    -0.012 C 
ATOM     18  C   UNL     1      -2.816  -5.354 -11.133  0.00  0.00    +0.007 C 
ATOM     19  C   UNL     1      -3.768  -3.126 -10.525  0.00  0.00    -0.009 C 
ENDBRANCH   6  10
BRANCH   1  20
ATOM     20  C   UNL     1      -3.882  -1.409  -3.365  0.00  0.00    +0.173 C 
BRANCH  20  21
ATOM     21  S   UNL     1      -4.655  -1.708  -1.756  0.00  0.00    -0.079 S 
BRANCH  21  26
ATOM     22  C   UNL     1      -1.412  -0.526   0.013  0.00  0.00    +0.063 A 
ATOM     23  C   UNL     1      -2.137  -0.809   1.108  0.00  0.00    +0.036 A 
ATOM     24  N   UNL     1      -3.366  -1.253   0.672  0.00  0.00    -0.337 N 
ATOM     25  H   UNL     1      -4.137  -1.541   1.401  0.00  0.00    +0.168 HD
ATOM     26  C   UNL     1      -3.337  -1.230  -0.689  0.00  0.00    +0.167 A 
ATOM     27  N   UNL     1      -2.160  -0.792  -1.071  0.00  0.00    -0.227 NA
ATOM     28  C   UNL     1      -1.692  -0.665   2.540  0.00  0.00    +0.065 C 
BRANCH  22  29
ATOM     29  C   UNL     1       0.002  -0.004   0.002  0.00  0.00    +0.057 C 
BRANCH  29  30
ATOM     30  C   UNL     1      -0.019   1.526   0.010  0.00  0.00    +0.006 C 
BRANCH  30  32
ATOM     31  C   UNL     1       1.396   3.585   0.008  0.00  0.00    +0.004 C 
ATOM     32  C   UNL     1       1.417   2.055  -0.000  0.00  0.00    -0.003 C 
ENDBRANCH  30  32
ENDBRANCH  29  30
ENDBRANCH  22  29
ENDBRANCH  21  26
ENDBRANCH  20  21
ENDBRANCH   1  20
TORSDOF 7
