REMARK  Name = ZINC39012570
REMARK  8 active torsions:
REMARK  status: ('A' for Active; 'I' for Inactive)
REMARK    1  A    between atoms: C_9  and  O_37
REMARK    2  A    between atoms: C_10  and  C_11
REMARK    3  A    between atoms: N_12  and  N_13
REMARK    4  A    between atoms: C_14  and  C_16
REMARK    5  A    between atoms: C_19  and  C_22
REMARK    6  A    between atoms: C_25  and  O_28
REMARK    7  A    between atoms: O_28  and  C_29
REMARK    8  A    between atoms: C_29  and  C_30
REMARK                            x       y       z     vdW  Elec       q    Type
REMARK                         _______ _______ _______ _____ _____    ______ ____
ROOT
ATOM      1  C   UNL     1       9.793   0.233  -0.090  0.00  0.00    +0.240 C 
ATOM      2  C   UNL     1      10.148   0.673  -1.499  0.00  0.00    +0.041 C 
ATOM      3  C   UNL     1      11.315   0.047  -1.748  0.00  0.00    +0.092 C 
ATOM      4  N   UNL     1      11.691  -0.699  -0.677  0.00  0.00    -0.153 NA
ATOM      5  N   UNL     1      10.910  -0.651   0.281  0.00  0.00    -0.170 NA
ENDROOT
BRANCH   3   6
ATOM      6  C   UNL     1      12.081   0.157  -3.014  0.00  0.00    +0.002 A 
ATOM      7  C   UNL     1      11.605   0.958  -4.051  0.00  0.00    +0.013 A 
ATOM      8  C   UNL     1      12.320   1.058  -5.226  0.00  0.00    +0.046 A 
ATOM      9  C   UNL     1      13.512   0.363  -5.377  0.00  0.00    +0.121 A 
ATOM     10  C   UNL     1      13.988  -0.436  -4.346  0.00  0.00    +0.046 A 
ATOM     11  C   UNL     1      13.281  -0.536  -3.166  0.00  0.00    +0.013 A 
BRANCH   9  12
ATOM     12  O   UNL     1      14.213   0.463  -6.536  0.00  0.00    -0.487 OA
BRANCH  12  13
ATOM     13  C   UNL     1      15.431  -0.280  -6.624  0.00  0.00    +0.266 C 
BRANCH  13  14
ATOM     14  C   UNL     1      16.066  -0.047  -7.971  0.00  0.00    +0.008 A 
ATOM     15  C   UNL     1      15.456   0.790  -8.887  0.00  0.00    +0.008 A 
ATOM     16  C   UNL     1      16.038   1.003 -10.122  0.00  0.00    +0.000 A 
ATOM     17  C   UNL     1      17.230   0.381 -10.443  0.00  0.00    +0.001 A 
ATOM     18  C   UNL     1      17.840  -0.456  -9.528  0.00  0.00    +0.020 A 
ATOM     19  C   UNL     1      17.261  -0.665  -8.289  0.00  0.00    +0.047 A 
ATOM     20 CL   UNL     1      18.031  -1.711  -7.136  0.00  0.00    -0.083 Cl
ENDBRANCH  13  14
ENDBRANCH  12  13
ENDBRANCH   9  12
ENDBRANCH   3   6
BRANCH   1  22
ATOM     21  N   UNL     1       7.321   0.148  -0.067  0.00  0.00    -0.205 N 
ATOM     22  C   UNL     1       8.489  -0.523  -0.081  0.00  0.00    +0.263 C 
ATOM     23  O   UNL     1       8.492  -1.736  -0.087  0.00  0.00    -0.271 OA
ATOM     24  H   UNL     1       7.319   1.118  -0.062  0.00  0.00    +0.177 HD
BRANCH  21  26
ATOM     25  C   UNL     1       4.982   0.092  -0.045  0.00  0.00    +0.142 C 
ATOM     26  N   UNL     1       6.109  -0.555  -0.059  0.00  0.00    -0.188 NA
BRANCH  25  36
ATOM     27  C   UNL     1      -0.016   1.357   0.009  0.00  0.00    +0.001 A 
ATOM     28  C   UNL     1       1.167   2.091   0.002  0.00  0.00    +0.001 A 
ATOM     29  C   UNL     1       2.379   1.466  -0.013  0.00  0.00    +0.009 A 
ATOM     30  C   UNL     1       2.435   0.067  -0.021  0.00  0.00    -0.006 A 
ATOM     31  C   UNL     1       1.233  -0.683  -0.013  0.00  0.00    -0.017 A 
ATOM     32  C   UNL     1       0.002  -0.004   0.002  0.00  0.00    +0.008 A 
ATOM     33  C   UNL     1       1.291  -2.087  -0.021  0.00  0.00    +0.012 A 
ATOM     34  C   UNL     1       2.487  -2.733  -0.035  0.00  0.00    +0.046 A 
ATOM     35  C   UNL     1       3.696  -2.040  -0.042  0.00  0.00    +0.126 A 
ATOM     36  C   UNL     1       3.711  -0.645  -0.036  0.00  0.00    +0.044 A 
BRANCH  35  37
ATOM     37  O   UNL     1       4.868  -2.727  -0.056  0.00  0.00    -0.506 OA
ATOM     38  H   UNL     1       5.199  -2.922  -0.943  0.00  0.00    +0.292 HD
ENDBRANCH  35  37
ENDBRANCH  25  36
ENDBRANCH  21  26
ENDBRANCH   1  22
TORSDOF 8
