REMARK  Name = ZINC39690771
REMARK  4 active torsions:
REMARK  status: ('A' for Active; 'I' for Inactive)
REMARK    1  A    between atoms: C_9  and  C_11
REMARK    2  A    between atoms: C_15  and  C_24
REMARK    3  A    between atoms: N_26  and  C_27
REMARK    4  A    between atoms: C_27  and  C_28
REMARK                            x       y       z     vdW  Elec       q    Type
REMARK                         _______ _______ _______ _____ _____    ______ ____
ROOT
ATOM      1  C   UNL     1       5.028  -2.578  -0.048  0.00  0.00    +0.265 C 
ATOM      2  O   UNL     1       3.936  -2.048  -0.113  0.00  0.00    -0.268 OA
ATOM      3  N   UNL     1       6.140  -1.822   0.042  0.00  0.00    -0.295 N 
ATOM      4  C   UNL     1       6.228  -0.348   0.169  0.00  0.00    +0.121 C 
ATOM      5  C   UNL     1       7.383  -0.111   1.167  0.00  0.00    +0.100 C 
ATOM      6  C   UNL     1       8.248  -1.379   1.075  0.00  0.00    -0.004 C 
ATOM      7  C   UNL     1       7.551  -2.277   0.044  0.00  0.00    +0.115 C 
ATOM      8  C   UNL     1       8.302  -2.082   2.428  0.00  0.00    -0.010 C 
ATOM      9  C   UNL     1       9.213  -3.308   2.326  0.00  0.00    -0.082 C 
ATOM     10  N   UNL     1      10.559  -2.886   1.918  0.00  0.00    +0.379 N 
ATOM     11  C   UNL     1      10.513  -2.295   0.575  0.00  0.00    -0.082 C 
ATOM     12  C   UNL     1       9.656  -1.026   0.604  0.00  0.00    -0.010 C 
ATOM     13  H   UNL     1      10.909  -2.204   2.573  0.00  0.00    -0.086 HD
ATOM     14  H   UNL     1      11.173  -3.687   1.910  0.00  0.00    -0.086 HD
ENDROOT
BRANCH   1  23
ATOM     15  C   UNL     1       6.746  -8.704  -0.187  0.00  0.00    +0.001 A 
ATOM     16  C   UNL     1       7.872  -7.882  -0.222  0.00  0.00    +0.002 A 
ATOM     17  C   UNL     1       7.753  -6.527  -0.201  0.00  0.00    +0.028 A 
ATOM     18  C   UNL     1       6.475  -5.939  -0.144  0.00  0.00    +0.072 A 
ATOM     19  C   UNL     1       5.331  -6.778  -0.109  0.00  0.00    +0.000 A 
ATOM     20  C   UNL     1       5.494  -8.172  -0.131  0.00  0.00    +0.010 A 
ATOM     21  C   UNL     1       4.053  -6.192  -0.051  0.00  0.00    +0.012 A 
ATOM     22  C   UNL     1       3.967  -4.830  -0.032  0.00  0.00    +0.033 A 
ATOM     23  C   UNL     1       5.136  -4.056  -0.069  0.00  0.00    +0.126 A 
ATOM     24  N   UNL     1       6.330  -4.614  -0.123  0.00  0.00    -0.242 NA
ENDBRANCH   1  23
BRANCH   5  25
ATOM     25  C   UNL     1       6.843   0.059   2.564  0.00  0.00    +0.218 C 
ATOM     26  O   UNL     1       5.864  -0.564   2.915  0.00  0.00    -0.275 OA
ATOM     27  N   UNL     1       7.449   0.902   3.423  0.00  0.00    -0.311 N 
ATOM     28  H   UNL     1       8.232   1.401   3.143  0.00  0.00    +0.149 HD
BRANCH  27  29
ATOM     29  C   UNL     1       6.924   1.067   4.781  0.00  0.00    +0.140 C 
BRANCH  29  30
ATOM     30  C   UNL     1       7.775   2.058   5.532  0.00  0.00    -0.016 A 
ATOM     31  C   UNL     1       8.741   1.611   6.414  0.00  0.00    +0.006 A 
ATOM     32  C   UNL     1       9.522   2.521   7.103  0.00  0.00    +0.000 A 
ATOM     33  C   UNL     1       9.337   3.877   6.910  0.00  0.00    +0.001 A 
ATOM     34  C   UNL     1       8.372   4.325   6.028  0.00  0.00    +0.015 A 
ATOM     35  C   UNL     1       7.593   3.415   5.335  0.00  0.00    +0.023 A 
ATOM     36 BR   UNL     1       6.277   4.027   4.123  0.00  0.00    -0.050 Br
ENDBRANCH  29  30
ENDBRANCH  27  29
ENDBRANCH   5  25
TORSDOF 4
