REMARK  Name = ZINC63141643
REMARK  10 active torsions:
REMARK  status: ('A' for Active; 'I' for Inactive)
REMARK    1  A    between atoms: C_1  and  O_2
REMARK    2  A    between atoms: O_2  and  C_3
REMARK    3  A    between atoms: C_8  and  C_9
REMARK    4  A    between atoms: N_28  and  C_31
REMARK    5  A    between atoms: C_31  and  C_32
REMARK    6  A    between atoms: C_32  and  C_33
REMARK    7  A    between atoms: C_36  and  O_41
REMARK    8  A    between atoms: C_37  and  O_39
REMARK    9  A    between atoms: O_39  and  C_40
REMARK   10  A    between atoms: O_41  and  C_42
REMARK                            x       y       z     vdW  Elec       q    Type
REMARK                         _______ _______ _______ _____ _____    ______ ____
ROOT
ATOM      1  C   UNL     1       0.051  -2.828  -0.033  0.00  0.00    +0.137 C 
ATOM      2  C   UNL     1       1.057  -2.962   1.110  0.00  0.00    +0.131 C 
ATOM      3  C   UNL     1       0.534  -4.090   1.996  0.00  0.00    -0.034 C 
ATOM      4  C   UNL     1       0.304  -3.563   3.191  0.00  0.00    -0.001 A 
ATOM      5  C   UNL     1      -0.176  -4.159   4.448  0.00  0.00    +0.010 A 
ATOM      6  C   UNL     1      -0.303  -3.311   5.503  0.00  0.00    +0.001 A 
ATOM      7  C   UNL     1      -0.006  -1.947   5.433  0.00  0.00    +0.002 A 
ATOM      8  C   UNL     1       0.442  -1.315   4.319  0.00  0.00    +0.026 A 
ATOM      9  C   UNL     1       0.618  -2.103   3.144  0.00  0.00    +0.043 A 
ATOM     10  N   UNL     1       1.047  -1.755   1.947  0.00  0.00    -0.375 N 
ATOM     11  C   UNL     1       0.342  -5.481   1.455  0.00  0.00    +0.065 C 
ATOM     12  C   UNL     1      -0.248  -5.414   0.070  0.00  0.00    +0.167 C 
ATOM     13  N   UNL     1      -0.324  -4.124  -0.581  0.00  0.00    -0.279 N 
ATOM     14  C   UNL     1      -0.861  -4.135  -1.845  0.00  0.00    +0.234 C 
ATOM     15  O   UNL     1      -0.917  -3.128  -2.519  0.00  0.00    -0.274 OA
ATOM     16  C   UNL     1      -1.377  -5.462  -2.358  0.00  0.00    +0.203 C 
ATOM     17  N   UNL     1      -2.145  -6.113  -1.280  0.00  0.00    -0.291 N 
ATOM     18  C   UNL     1      -1.578  -6.116  -0.039  0.00  0.00    +0.237 C 
ATOM     19  O   UNL     1      -2.106  -6.652   0.913  0.00  0.00    -0.274 OA
ATOM     20  H   UNL     1       1.308  -0.866   1.660  0.00  0.00    +0.160 HD
ENDROOT
BRANCH   1  26
ATOM     21  C   UNL     1       1.637  -2.531  -1.952  0.00  0.00    +0.125 A 
ATOM     22  C   UNL     1       2.193  -1.760  -2.963  0.00  0.00    +0.046 A 
ATOM     23  C   UNL     1       1.777  -0.455  -3.142  0.00  0.00    +0.004 A 
ATOM     24  C   UNL     1       0.808   0.083  -2.315  0.00  0.00    +0.001 A 
ATOM     25  C   UNL     1       0.253  -0.683  -1.307  0.00  0.00    +0.009 A 
ATOM     26  C   UNL     1       0.661  -1.991  -1.128  0.00  0.00    +0.017 A 
BRANCH  21  28
ATOM     27  C   UNL     1       3.052  -4.306  -2.661  0.00  0.00    +0.277 C 
ATOM     28  O   UNL     1       2.043  -3.816  -1.775  0.00  0.00    -0.495 OA
ENDBRANCH  21  28
ENDBRANCH   1  26
BRANCH  17  29
ATOM     29  C   UNL     1      -3.453  -6.723  -1.528  0.00  0.00    +0.113 C 
BRANCH  29  30
ATOM     30  C   UNL     1      -3.265  -8.192  -1.914  0.00  0.00    +0.054 C 
BRANCH  30  31
ATOM     31  C   UNL     1      -4.612  -8.820  -2.169  0.00  0.00    -0.042 A 
ATOM     32  C   UNL     1      -5.303  -9.416  -1.130  0.00  0.00    +0.007 A 
ATOM     33  C   UNL     1      -6.538  -9.993  -1.359  0.00  0.00    +0.049 A 
ATOM     34  C   UNL     1      -7.086  -9.976  -2.632  0.00  0.00    +0.161 A 
ATOM     35  C   UNL     1      -6.390  -9.376  -3.677  0.00  0.00    +0.162 A 
ATOM     36  C   UNL     1      -5.155  -8.794  -3.440  0.00  0.00    +0.053 A 
BRANCH  35  37
ATOM     37  O   UNL     1      -6.924  -9.356  -4.928  0.00  0.00    -0.491 OA
ATOM     38  C   UNL     1      -6.154  -8.723  -5.952  0.00  0.00    +0.277 C 
ENDBRANCH  35  37
BRANCH  34  39
ATOM     39  O   UNL     1      -8.300 -10.544  -2.858  0.00  0.00    -0.491 OA
ATOM     40  C   UNL     1      -8.956 -11.141  -1.738  0.00  0.00    +0.277 C 
ENDBRANCH  34  39
ENDBRANCH  30  31
ENDBRANCH  29  30
ENDBRANCH  17  29
TORSDOF 7
