REMARK  Name = ZINC33350870
REMARK  6 active torsions:
REMARK  status: ('A' for Active; 'I' for Inactive)
REMARK    1  A    between atoms: C_1  and  C_2
REMARK    2  A    between atoms: C_5  and  N_8
REMARK    3  A    between atoms: C_17  and  S_18
REMARK    4  A    between atoms: S_18  and  C_19
REMARK    5  A    between atoms: C_19  and  C_20
REMARK    6  A    between atoms: N_24  and  C_27
REMARK                            x       y       z     vdW  Elec       q    Type
REMARK                         _______ _______ _______ _____ _____    ______ ____
ROOT
ATOM      1  N   UNL     1      -2.404   1.218   0.031  0.00  0.00    -0.255 N 
ATOM      2  C   UNL     1      -1.364   1.909  -0.472  0.00  0.00    +0.268 A 
ATOM      3  O   UNL     1      -1.525   3.037  -0.907  0.00  0.00    -0.267 OA
ATOM      4  C   UNL     1      -0.067   1.307  -0.480  0.00  0.00    +0.076 A 
ATOM      5  C   UNL     1       1.192   1.868  -0.968  0.00  0.00    -0.020 A 
ATOM      6  C   UNL     1       2.291   1.090  -0.869  0.00  0.00    +0.010 A 
ATOM      7  S   UNL     1       1.723  -0.416  -0.130  0.00  0.00    -0.072 S 
ATOM      8  C   UNL     1       0.007   0.005   0.045  0.00  0.00    +0.117 A 
ATOM      9  N   UNL     1      -1.060  -0.626   0.522  0.00  0.00    -0.215 NA
ATOM     10  C   UNL     1      -2.243  -0.047   0.522  0.00  0.00    +0.178 A 
ATOM     11  C   UNL     1       3.680   1.446  -1.301  0.00  0.00    +0.126 C 
ATOM     12  N   UNL     1       3.602   2.634  -2.173  0.00  0.00    -0.300 NA
ATOM     13  C   UNL     1       2.778   3.679  -1.550  0.00  0.00    +0.089 C 
ATOM     14  C   UNL     1       1.304   3.268  -1.567  0.00  0.00    +0.052 C 
ATOM     15  C   UNL     1       4.942   3.140  -2.494  0.00  0.00    +0.105 C 
ENDROOT
BRANCH   1  20
ATOM     16  C   UNL     1      -7.557   3.594   0.094  0.00  0.00    +0.044 C 
ATOM     17  C   UNL     1      -6.189   2.963   0.077  0.00  0.00    -0.050 A 
ATOM     18  C   UNL     1      -5.785   2.220  -1.017  0.00  0.00    +0.005 A 
ATOM     19  C   UNL     1      -4.531   1.641  -1.035  0.00  0.00    +0.026 A 
ATOM     20  C   UNL     1      -3.676   1.805   0.046  0.00  0.00    +0.052 A 
ATOM     21  C   UNL     1      -4.087   2.547   1.146  0.00  0.00    +0.026 A 
ATOM     22  C   UNL     1      -5.340   3.128   1.156  0.00  0.00    +0.005 A 
ENDBRANCH   1  20
BRANCH  10  23
ATOM     23  S   UNL     1      -3.636  -0.915   1.163  0.00  0.00    -0.076 S 
BRANCH  23  24
ATOM     24  C   UNL     1      -2.844  -2.469   1.646  0.00  0.00    +0.202 C 
BRANCH  24  25
ATOM     25  C   UNL     1      -3.874  -3.396   2.238  0.00  0.00    +0.366 C 
ATOM     26  O   UNL     1      -5.026  -3.042   2.325  0.00  0.00    -0.245 OA
ATOM     27  O   UNL     1      -3.512  -4.614   2.669  0.00  0.00    -0.245 OA
ENDBRANCH  24  25
ENDBRANCH  23  24
ENDBRANCH  10  23
TORSDOF 4
