REMARK  Name = ZINC21780901
REMARK  10 active torsions:
REMARK  status: ('A' for Active; 'I' for Inactive)
REMARK    1  A    between atoms: C_1  and  C_2
REMARK    2  A    between atoms: N_4  and  C_5
REMARK    3  A    between atoms: C_8  and  O_37
REMARK    4  A    between atoms: C_9  and  O_35
REMARK    5  A    between atoms: N_16  and  C_30
REMARK    6  A    between atoms: C_17  and  C_19
REMARK    7  A    between atoms: C_17  and  C_20
REMARK    8  A    between atoms: N_22  and  C_23
REMARK    9  A    between atoms: O_35  and  C_36
REMARK   10  A    between atoms: O_37  and  C_38
REMARK                            x       y       z     vdW  Elec       q    Type
REMARK                         _______ _______ _______ _____ _____    ______ ____
ROOT
ATOM      1  C   UNL     1       0.438   1.409  -0.001  0.00  0.00    +0.072 A 
ATOM      2  C   UNL     1       1.664   1.538   0.772  0.00  0.00    +0.026 A 
ATOM      3  C   UNL     1       2.208   2.619   1.478  0.00  0.00    +0.061 A 
ATOM      4  C   UNL     1       3.414   2.403   2.120  0.00  0.00    +0.162 A 
ATOM      5  C   UNL     1       4.061   1.168   2.068  0.00  0.00    +0.163 A 
ATOM      6  C   UNL     1       3.538   0.088   1.373  0.00  0.00    +0.075 A 
ATOM      7  C   UNL     1       2.321   0.281   0.716  0.00  0.00    +0.055 A 
ATOM      8  N   UNL     1       1.561  -0.557  -0.036  0.00  0.00    -0.332 N 
ATOM      9  C   UNL     1       0.406   0.120  -0.461  0.00  0.00    +0.127 A 
ATOM     10  C   UNL     1      -0.598  -0.559  -1.285  0.00  0.00    +0.266 C 
ATOM     11  O   UNL     1      -1.499   0.053  -1.829  0.00  0.00    -0.268 OA
ATOM     12  N   UNL     1      -0.472  -1.900  -1.411  0.00  0.00    -0.278 N 
ATOM     13  C   UNL     1       0.463  -2.666  -0.593  0.00  0.00    +0.129 C 
ATOM     14  C   UNL     1       1.804  -1.955  -0.416  0.00  0.00    +0.157 C 
ATOM     15  C   UNL     1       0.705  -4.022  -1.258  0.00  0.00    +0.043 C 
ENDROOT
BRANCH   1  19
ATOM     16  C   UNL     1      -1.137   4.743  -0.722  0.00  0.00    +0.109 C 
ATOM     17  C   UNL     1      -0.125   3.685  -0.365  0.00  0.00    +0.214 C 
ATOM     18  O   UNL     1       1.037   3.989  -0.197  0.00  0.00    -0.276 OA
ATOM     19  N   UNL     1      -0.511   2.401  -0.231  0.00  0.00    -0.283 N 
ATOM     20  H   UNL     1      -1.577   2.136  -0.304  0.00  0.00    +0.155 HD
ENDBRANCH   1  19
BRANCH  12  21
ATOM     21  C   UNL     1      -1.298  -2.603  -2.395  0.00  0.00    +0.078 C 
ATOM     22  C   UNL     1      -1.070  -2.006  -3.799  0.00  0.00    +0.022 C 
ATOM     23  C   UNL     1      -2.470  -2.049  -4.461  0.00  0.00    +0.002 C 
ATOM     24  C   UNL     1      -3.416  -1.696  -3.286  0.00  0.00    +0.002 C 
ATOM     25  C   UNL     1      -2.788  -2.407  -2.069  0.00  0.00    +0.022 C 
ENDBRANCH  12  21
BRANCH  13  26
ATOM     26  C   UNL     1      -0.151  -2.894   0.764  0.00  0.00    +0.238 C 
ATOM     27  O   UNL     1       0.057  -3.931   1.357  0.00  0.00    -0.273 OA
ATOM     28  N   UNL     1      -0.931  -1.946   1.319  0.00  0.00    -0.311 N 
ATOM     29  H   UNL     1      -1.121  -1.005   0.781  0.00  0.00    +0.149 HD
BRANCH  28  30
ATOM     30  C   UNL     1      -1.528  -2.168   2.639  0.00  0.00    +0.073 C 
ATOM     31  C   UNL     1      -2.807  -3.014   2.473  0.00  0.00    +0.022 C 
ATOM     32  C   UNL     1      -3.126  -3.662   3.793  0.00  0.00    +0.002 C 
ATOM     33  C   UNL     1      -4.124  -2.837   4.628  0.00  0.00    +0.000 C 
ATOM     34  C   UNL     1      -3.833  -1.325   4.585  0.00  0.00    +0.000 C 
ATOM     35  C   UNL     1      -2.363  -1.018   4.685  0.00  0.00    +0.002 C 
ATOM     36  C   UNL     1      -1.793  -0.878   3.259  0.00  0.00    +0.022 C 
ENDBRANCH  28  30
ENDBRANCH  13  26
BRANCH   5  37
ATOM     37  O   UNL     1       5.244   1.018   2.721  0.00  0.00    -0.491 OA
ATOM     38  C   UNL     1       5.871  -0.264   2.640  0.00  0.00    +0.277 C 
ENDBRANCH   5  37
BRANCH   4  39
ATOM     39  O   UNL     1       3.985   3.421   2.820  0.00  0.00    -0.491 OA
ATOM     40  C   UNL     1       3.283   4.666   2.843  0.00  0.00    +0.277 C 
ENDBRANCH   4  39
TORSDOF 6
