REMARK  Name = ZINC59564799
REMARK  6 active torsions:
REMARK  status: ('A' for Active; 'I' for Inactive)
REMARK    1  A    between atoms: C_1  and  C_2
REMARK    2  A    between atoms: C_2  and  C_3
REMARK    3  A    between atoms: C_3  and  C_5
REMARK    4  A    between atoms: C_3  and  S_21
REMARK    5  A    between atoms: S_21  and  C_22
REMARK    6  A    between atoms: N_31  and  C_32
REMARK                            x       y       z     vdW  Elec       q    Type
REMARK                         _______ _______ _______ _____ _____    ______ ____
ROOT
ATOM      1  C   UNL     1       0.711  -0.526  -0.012  0.00  0.00    +0.140 C 
ENDROOT
BRANCH   1   2
ATOM      2  C   UNL     1      -0.212  -0.378  -1.194  0.00  0.00    +0.238 C 
ATOM      3  O   UNL     1       0.221  -0.502  -2.321  0.00  0.00    -0.274 OA
ATOM      4  N   UNL     1      -1.518  -0.108  -0.999  0.00  0.00    -0.237 N 
ATOM      5  C   UNL     1      -2.398  -0.184  -2.086  0.00  0.00    +0.055 A 
ATOM      6  C   UNL     1      -1.994   0.236  -3.344  0.00  0.00    +0.025 A 
ATOM      7  C   UNL     1      -2.870   0.159  -4.412  0.00  0.00    +0.002 A 
ATOM      8  C   UNL     1      -4.149  -0.335  -4.235  0.00  0.00    +0.001 A 
ATOM      9  C   UNL     1      -4.563  -0.757  -2.983  0.00  0.00    +0.017 A 
ATOM     10  C   UNL     1      -3.692  -0.682  -1.912  0.00  0.00    +0.035 A 
ATOM     11  S   UNL     1      -4.191  -1.212  -0.304  0.00  0.00    -0.086 S 
ATOM     12  C   UNL     1      -3.196  -0.204   0.751  0.00  0.00    +0.035 A 
ATOM     13  C   UNL     1      -1.958   0.236   0.285  0.00  0.00    +0.055 A 
ATOM     14  C   UNL     1      -1.168   1.023   1.109  0.00  0.00    +0.025 A 
ATOM     15  C   UNL     1      -1.611   1.360   2.375  0.00  0.00    +0.002 A 
ATOM     16  C   UNL     1      -2.839   0.917   2.829  0.00  0.00    +0.001 A 
ATOM     17  C   UNL     1      -3.634   0.142   2.017  0.00  0.00    +0.017 A 
ENDBRANCH   1   2
BRANCH   1  19
ATOM     18  C   UNL     1       1.495  -2.087   1.774  0.00  0.00    +0.005 C 
ATOM     19  C   UNL     1       0.662  -1.968   0.497  0.00  0.00    +0.020 C 
ENDBRANCH   1  19
BRANCH   1  20
ATOM     20  S   UNL     1       2.406  -0.119  -0.514  0.00  0.00    -0.078 S 
BRANCH  20  21
ATOM     21  C   UNL     1       2.328   1.590  -0.935  0.00  0.00    +0.151 C 
ATOM     22  N   UNL     1       1.227   2.282  -0.964  0.00  0.00    -0.347 N 
ATOM     23  C   UNL     1       1.576   3.652  -1.356  0.00  0.00    +0.107 C 
ATOM     24  C   UNL     1       1.198   4.633  -0.250  0.00  0.00    +0.045 C 
ATOM     25  C   UNL     1      -0.319   4.617  -0.049  0.00  0.00    +0.004 C 
ATOM     26  C   UNL     1      -1.010   5.010  -1.356  0.00  0.00    +0.000 C 
ATOM     27  C   UNL     1      -0.637   4.011  -2.453  0.00  0.00    +0.004 C 
ATOM     28  C   UNL     1       0.879   4.025  -2.661  0.00  0.00    +0.045 C 
ATOM     29  N   UNL     1       3.037   3.632  -1.544  0.00  0.00    -0.209 NA
ATOM     30  N   UNL     1       3.421   2.349  -1.265  0.00  0.00    -0.213 N 
ATOM     31  H   UNL     1       3.490   4.285  -0.922  0.00  0.00    +0.147 HD
ATOM     32  H   UNL     1       0.337   1.953  -0.764  0.00  0.00    +0.163 HD
BRANCH  30  33
ATOM     33  C   UNL     1       4.737   1.878  -1.313  0.00  0.00    +0.052 A 
ATOM     34  C   UNL     1       5.032   0.702  -1.991  0.00  0.00    +0.025 A 
ATOM     35  C   UNL     1       6.333   0.241  -2.037  0.00  0.00    +0.002 A 
ATOM     36  C   UNL     1       7.342   0.948  -1.409  0.00  0.00    +0.000 A 
ATOM     37  C   UNL     1       7.052   2.120  -0.733  0.00  0.00    +0.002 A 
ATOM     38  C   UNL     1       5.754   2.589  -0.688  0.00  0.00    +0.025 A 
ENDBRANCH  30  33
ENDBRANCH  20  21
ENDBRANCH   1  20
TORSDOF 5
