REMARK  Name = ZINC34832162
REMARK  19 active torsions:
REMARK  status: ('A' for Active; 'I' for Inactive)
REMARK    1  A    between atoms: C_1  and  C_2
REMARK    2  A    between atoms: C_2  and  C_3
REMARK    3  A    between atoms: C_3  and  C_4
REMARK    4  A    between atoms: C_4  and  C_5
REMARK    5  A    between atoms: C_5  and  C_7
REMARK    6  A    between atoms: C_5  and  C_9
REMARK    7  A    between atoms: C_7  and  C_8
REMARK    8  A    between atoms: N_11  and  C_12
REMARK    9  A    between atoms: N_11  and  C_17
REMARK   10  A    between atoms: C_12  and  C_13
REMARK   11  A    between atoms: C_13  and  C_14
REMARK   12  A    between atoms: C_14  and  C_15
REMARK   13  A    between atoms: C_14  and  C_16
REMARK   14  A    between atoms: C_17  and  C_18
REMARK   15  A    between atoms: C_19  and  C_37
REMARK   16  A    between atoms: N_21  and  C_31
REMARK   17  A    between atoms: C_22  and  N_23
REMARK   18  A    between atoms: N_26  and  C_29
REMARK   19  A    between atoms: C_29  and  C_30
REMARK                            x       y       z     vdW  Elec       q    Type
REMARK                         _______ _______ _______ _____ _____    ______ ____
ROOT
ATOM      1  C   UNL     1      -3.341  -5.049   2.487  0.00  0.00    +0.032 A 
ATOM      2  C   UNL     1      -2.075  -4.516   2.749  0.00  0.00    +0.067 A 
ATOM      3  N   UNL     1      -2.162  -3.735   3.795  0.00  0.00    -0.170 NA
ATOM      4  N   UNL     1      -3.489  -3.739   4.242  0.00  0.00    -0.218 N 
ATOM      5  C   UNL     1      -4.203  -4.553   3.417  0.00  0.00    +0.130 A 
ATOM      6  C   UNL     1      -0.822  -4.795   1.959  0.00  0.00    +0.068 C 
ENDROOT
BRANCH   5   7
ATOM      7  N   UNL     1      -5.564  -4.830   3.510  0.00  0.00    -0.318 N 
ATOM      8  C   UNL     1      -6.051  -5.979   4.288  0.00  0.00    +0.088 C 
ATOM      9  C   UNL     1      -7.153  -5.492   5.235  0.00  0.00    -0.060 C 
ATOM     10  N   UNL     1      -8.192  -4.801   4.460  0.00  0.00    +0.382 N 
ATOM     11  C   UNL     1      -7.635  -3.589   3.846  0.00  0.00    -0.060 C 
ATOM     12  C   UNL     1      -6.556  -3.979   2.836  0.00  0.00    +0.088 C 
ATOM     13  H   UNL     1      -8.535  -5.416   3.737  0.00  0.00    -0.082 HD
BRANCH  10  14
ATOM     14  C   UNL     1      -9.300  -4.432   5.351  0.00  0.00    -0.082 C 
ATOM     15  C   UNL     1     -10.436  -3.824   4.526  0.00  0.00    -0.017 C 
ENDBRANCH  10  14
ENDBRANCH   5   7
BRANCH   4  16
ATOM     16  C   UNL     1      -3.993  -3.028   5.340  0.00  0.00    +0.067 A 
ATOM     17  C   UNL     1      -5.142  -2.260   5.203  0.00  0.00    +0.028 A 
ATOM     18  C   UNL     1      -5.636  -1.560   6.286  0.00  0.00    +0.002 A 
ATOM     19  C   UNL     1      -4.989  -1.624   7.506  0.00  0.00    +0.000 A 
ATOM     20  C   UNL     1      -3.845  -2.388   7.646  0.00  0.00    +0.002 A 
ATOM     21  C   UNL     1      -3.349  -3.095   6.568  0.00  0.00    +0.028 A 
ENDBRANCH   4  16
BRANCH   1  22
ATOM     22  C   UNL     1      -3.690  -5.999   1.371  0.00  0.00    +0.148 C 
BRANCH  22  25
ATOM     23  C   UNL     1      -2.876  -4.927  -0.660  0.00  0.00    +0.219 C 
ATOM     24  O   UNL     1      -1.769  -5.356  -0.410  0.00  0.00    -0.275 OA
ATOM     25  N   UNL     1      -3.916  -5.241   0.138  0.00  0.00    -0.297 N 
BRANCH  23  26
ATOM     26  C   UNL     1      -3.088  -4.043  -1.862  0.00  0.00    +0.075 C 
BRANCH  26  27
ATOM     27  C   UNL     1      -3.164  -2.582  -1.413  0.00  0.00    +0.009 C 
ATOM     28  C   UNL     1      -1.816  -2.157  -0.830  0.00  0.00    +0.004 C 
ENDBRANCH  26  27
BRANCH  26  29
ATOM     29  C   UNL     1      -1.921  -4.217  -2.836  0.00  0.00    +0.013 C 
BRANCH  29  30
ATOM     30  C   UNL     1      -2.213  -3.448  -4.125  0.00  0.00    +0.000 C 
BRANCH  30  32
ATOM     31  C   UNL     1      -1.296  -2.767  -6.347  0.00  0.00    +0.004 C 
ATOM     32  C   UNL     1      -1.003  -3.537  -5.058  0.00  0.00    -0.003 C 
ENDBRANCH  30  32
ENDBRANCH  29  30
ENDBRANCH  26  29
ENDBRANCH  23  26
BRANCH  25  33
ATOM     33  C   UNL     1      -5.272  -4.825  -0.229  0.00  0.00    +0.108 C 
BRANCH  33  34
ATOM     34  C   UNL     1      -5.926  -5.912  -1.083  0.00  0.00    +0.022 C 
BRANCH  34  35
ATOM     35  C   UNL     1      -7.306  -5.438  -1.543  0.00  0.00    -0.016 C 
ATOM     36  C   UNL     1      -7.899  -6.460  -2.515  0.00  0.00    +0.007 C 
ATOM     37  C   UNL     1      -8.227  -5.296  -0.329  0.00  0.00    +0.007 C 
ENDBRANCH  34  35
ENDBRANCH  33  34
ENDBRANCH  25  33
ENDBRANCH  22  25
ENDBRANCH   1  22
TORSDOF 13
