REMARK  Name = ZINC39610092
REMARK  8 active torsions:
REMARK  status: ('A' for Active; 'I' for Inactive)
REMARK    1  A    between atoms: C_1  and  C_2
REMARK    2  A    between atoms: C_2  and  C_3
REMARK    3  A    between atoms: C_3  and  C_4
REMARK    4  A    between atoms: C_4  and  C_6
REMARK    5  A    between atoms: C_4  and  C_7
REMARK    6  A    between atoms: C_11  and  C_20
REMARK    7  A    between atoms: N_22  and  C_23
REMARK    8  A    between atoms: C_23  and  C_24
REMARK                            x       y       z     vdW  Elec       q    Type
REMARK                         _______ _______ _______ _____ _____    ______ ____
ROOT
ATOM      1  C   UNL     1       1.789  -2.745  -2.502  0.00  0.00    +0.218 C 
ATOM      2  O   UNL     1       2.451  -2.031  -3.225  0.00  0.00    -0.275 OA
ATOM      3  N   UNL     1       1.721  -4.070  -2.742  0.00  0.00    -0.300 N 
ATOM      4  C   UNL     1       0.886  -5.077  -2.046  0.00  0.00    +0.121 C 
ATOM      5  C   UNL     1       0.401  -6.023  -3.168  0.00  0.00    +0.100 C 
ATOM      6  C   UNL     1       1.442  -5.869  -4.289  0.00  0.00    -0.004 C 
ATOM      7  C   UNL     1       2.461  -4.847  -3.766  0.00  0.00    +0.115 C 
ATOM      8  C   UNL     1       2.125  -7.205  -4.563  0.00  0.00    -0.010 C 
ATOM      9  C   UNL     1       3.114  -7.040  -5.720  0.00  0.00    -0.082 C 
ATOM     10  N   UNL     1       2.398  -6.581  -6.916  0.00  0.00    +0.379 N 
ATOM     11  C   UNL     1       1.821  -5.252  -6.675  0.00  0.00    -0.082 C 
ATOM     12  C   UNL     1       0.778  -5.342  -5.558  0.00  0.00    -0.010 C 
ATOM     13  H   UNL     1       3.040  -6.531  -7.693  0.00  0.00    -0.086 HD
ATOM     14  H   UNL     1       1.659  -7.232  -7.135  0.00  0.00    -0.086 HD
ENDROOT
BRANCH   5  15
ATOM     15  C   UNL     1       0.363  -7.446  -2.675  0.00  0.00    +0.218 C 
ATOM     16  O   UNL     1       1.131  -7.808  -1.808  0.00  0.00    -0.275 OA
ATOM     17  N   UNL     1      -0.523  -8.317  -3.196  0.00  0.00    -0.311 N 
ATOM     18  H   UNL     1      -1.137  -8.028  -3.889  0.00  0.00    +0.149 HD
BRANCH  17  19
ATOM     19  C   UNL     1      -0.559  -9.701  -2.716  0.00  0.00    +0.139 C 
BRANCH  19  20
ATOM     20  C   UNL     1      -1.630 -10.461  -3.456  0.00  0.00    -0.027 A 
ATOM     21  C   UNL     1      -2.920 -10.494  -2.959  0.00  0.00    +0.009 A 
ATOM     22  C   UNL     1      -3.906 -11.189  -3.634  0.00  0.00    +0.050 A 
ATOM     23  C   UNL     1      -3.603 -11.856  -4.810  0.00  0.00    +0.166 A 
ATOM     24  C   UNL     1      -2.303 -11.824  -5.309  0.00  0.00    +0.167 A 
ATOM     25  C   UNL     1      -1.321 -11.120  -4.631  0.00  0.00    +0.054 A 
ATOM     26  O   UNL     1      -2.262 -12.549  -6.465  0.00  0.00    -0.453 OA
ATOM     27  C   UNL     1      -3.450 -13.363  -6.451  0.00  0.00    +0.466 C 
ATOM     28  O   UNL     1      -4.376 -12.602  -5.652  0.00  0.00    -0.453 OA
ENDBRANCH  19  20
ENDBRANCH  17  19
ENDBRANCH   5  15
BRANCH   1  29
ATOM     29  C   UNL     1       1.041  -2.151  -1.337  0.00  0.00    +0.072 C 
ATOM     30  C   UNL     1      -0.355  -1.720  -1.792  0.00  0.00    +0.017 C 
BRANCH  29  31
ATOM     31  C   UNL     1       1.803  -0.935  -0.808  0.00  0.00    +0.012 C 
BRANCH  31  33
ATOM     32  C   UNL     1       1.874   0.810   0.980  0.00  0.00    +0.004 C 
ATOM     33  C   UNL     1       1.111  -0.407   0.451  0.00  0.00    -0.003 C 
ENDBRANCH  31  33
ENDBRANCH  29  31
ENDBRANCH   1  29
TORSDOF 6
