REMARK  Name = ZINC64143564
REMARK  12 active torsions:
REMARK  status: ('A' for Active; 'I' for Inactive)
REMARK    1  A    between atoms: C_1  and  C_2
REMARK    2  A    between atoms: C_6  and  C_9
REMARK    3  A    between atoms: C_7  and  C_8
REMARK    4  A    between atoms: N_11  and  C_12
REMARK    5  A    between atoms: C_17  and  C_27
REMARK    6  A    between atoms: C_21  and  C_23
REMARK    7  A    between atoms: C_23  and  O_25
REMARK    8  A    between atoms: O_25  and  C_26
REMARK    9  A    between atoms: C_27  and  N_28
REMARK   10  A    between atoms: N_28  and  C_29
REMARK   11  A    between atoms: N_28  and  C_30
REMARK   12  A    between atoms: C_30  and  C_31
REMARK                            x       y       z     vdW  Elec       q    Type
REMARK                         _______ _______ _______ _____ _____    ______ ____
ROOT
ATOM      1  C   UNL     1      -0.162  -4.853   3.830  0.00  0.00    +0.130 C 
ATOM      2  C   UNL     1      -1.594  -4.940   4.294  0.00  0.00    +0.006 A 
ATOM      3  C   UNL     1      -2.328  -3.942   4.941  0.00  0.00    +0.010 A 
ATOM      4  C   UNL     1      -3.645  -4.182   5.287  0.00  0.00    +0.025 A 
ATOM      5  C   UNL     1      -4.223  -5.400   4.990  0.00  0.00    +0.057 A 
ATOM      6  N   UNL     1      -3.516  -6.336   4.385  0.00  0.00    -0.244 NA
ATOM      7  C   UNL     1      -2.255  -6.143   4.049  0.00  0.00    +0.103 A 
ATOM      8  S   UNL     1      -1.066  -7.220   3.277  0.00  0.00    -0.089 S 
ATOM      9  C   UNL     1       0.458  -6.255   3.630  0.00  0.00    +0.186 C 
ENDROOT
BRANCH   1  12
ATOM     10  C   UNL     1      -0.004  -2.780   2.559  0.00  0.00    +0.245 C 
ATOM     11  O   UNL     1       0.057  -2.174   3.612  0.00  0.00    -0.270 OA
ATOM     12  N   UNL     1      -0.114  -4.123   2.561  0.00  0.00    -0.303 N 
ATOM     13  H   UNL     1      -0.162  -4.607   1.721  0.00  0.00    +0.150 HD
BRANCH  10  19
ATOM     14  C   UNL     1       0.595   1.496   0.058  0.00  0.00    +0.044 C 
ATOM     15  C   UNL     1       0.332   0.012   0.070  0.00  0.00    -0.047 A 
ATOM     16  C   UNL     1       0.134  -0.664  -1.121  0.00  0.00    +0.003 A 
ATOM     17  C   UNL     1      -0.108  -2.026  -1.118  0.00  0.00    +0.001 A 
ATOM     18  C   UNL     1      -0.154  -2.719   0.074  0.00  0.00    +0.013 A 
ATOM     19  C   UNL     1       0.045  -2.044   1.278  0.00  0.00    +0.040 A 
ATOM     20  C   UNL     1       0.294  -0.670   1.268  0.00  0.00    -0.035 A 
ATOM     21  C   UNL     1       0.516   0.067   2.564  0.00  0.00    +0.045 C 
ENDBRANCH  10  19
ENDBRANCH   1  12
BRANCH   9  22
ATOM     22  C   UNL     1       1.402  -6.275   2.455  0.00  0.00    +0.322 C 
ATOM     23  O   UNL     1       2.546  -5.912   2.595  0.00  0.00    -0.250 OA
BRANCH  22  24
ATOM     24  O   UNL     1       0.973  -6.695   1.255  0.00  0.00    -0.467 OA
ATOM     25  C   UNL     1       1.922  -6.687   0.187  0.00  0.00    +0.280 C 
ENDBRANCH  22  24
ENDBRANCH   9  22
BRANCH   5  26
ATOM     26  C   UNL     1      -5.661  -5.662   5.358  0.00  0.00    +0.140 C 
BRANCH  26  27
ATOM     27  N   UNL     1      -6.523  -5.368   4.205  0.00  0.00    -0.293 NA
ATOM     28  C   UNL     1      -6.267  -6.306   3.104  0.00  0.00    +0.105 C 
BRANCH  27  29
ATOM     29  C   UNL     1      -7.940  -5.381   4.590  0.00  0.00    +0.156 C 
BRANCH  29  30
ATOM     30  C   UNL     1      -8.774  -4.840   3.456  0.00  0.00    +0.099 A 
ATOM     31  N   UNL     1      -8.327  -4.091   2.461  0.00  0.00    -0.349 N 
ATOM     32  C   UNL     1      -9.365  -3.806   1.648  0.00  0.00    +0.101 A 
ATOM     33  C   UNL     1     -10.458  -4.399   2.168  0.00  0.00    +0.101 A 
ATOM     34  N   UNL     1     -10.071  -5.042   3.290  0.00  0.00    -0.349 N 
ATOM     35  H   UNL     1     -10.645  -5.561   3.875  0.00  0.00    +0.166 HD
ATOM     36  H   UNL     1      -7.411  -3.797   2.338  0.00  0.00    +0.166 HD
ENDBRANCH  29  30
ENDBRANCH  27  29
ENDBRANCH  26  27
ENDBRANCH   5  26
TORSDOF 8
