REMARK  Name = ZINC57721787
REMARK  7 active torsions:
REMARK  status: ('A' for Active; 'I' for Inactive)
REMARK    1  A    between atoms: C_1  and  C_2
REMARK    2  A    between atoms: C_4  and  C_20
REMARK    3  A    between atoms: C_5  and  C_19
REMARK    4  A    between atoms: C_6  and  S_9
REMARK    5  A    between atoms: C_7  and  C_8
REMARK    6  A    between atoms: S_9  and  N_12
REMARK    7  A    between atoms: C_16  and  C_18
REMARK                            x       y       z     vdW  Elec       q    Type
REMARK                         _______ _______ _______ _____ _____    ______ ____
ROOT
ATOM      1  S   UNL     1       0.130  -3.048   2.662  0.00  0.00    +0.102 S 
ATOM      2  O   UNL     1       0.610  -4.340   2.316  0.00  0.00    -0.146 OA
ATOM      3  O   UNL     1       0.776  -2.228   3.626  0.00  0.00    -0.146 OA
ENDROOT
BRANCH   1   9
ATOM      4  C   UNL     1       0.364   1.482   0.065  0.00  0.00    +0.044 C 
ATOM      5  C   UNL     1       0.185  -0.014   0.028  0.00  0.00    -0.045 A 
ATOM      6  C   UNL     1      -0.026  -0.656  -1.178  0.00  0.00    +0.007 A 
ATOM      7  C   UNL     1      -0.191  -2.028  -1.211  0.00  0.00    -0.045 A 
ATOM      8  C   UNL     1      -0.143  -2.759  -0.039  0.00  0.00    -0.020 A 
ATOM      9  C   UNL     1       0.070  -2.117   1.167  0.00  0.00    +0.119 A 
ATOM     10  C   UNL     1       0.238  -0.745   1.200  0.00  0.00    -0.020 A 
ATOM     11  C   UNL     1       0.475  -0.047   2.514  0.00  0.00    +0.046 C 
ATOM     12  C   UNL     1      -0.323  -4.254  -0.075  0.00  0.00    +0.046 C 
ATOM     13  C   UNL     1      -0.422  -2.727  -2.526  0.00  0.00    +0.044 C 
ENDBRANCH   1   9
BRANCH   1  14
ATOM     14  N   UNL     1      -1.431  -3.246   3.179  0.00  0.00    -0.103 NA
ATOM     15  C   UNL     1      -1.677  -3.910   4.281  0.00  0.00    +0.192 A 
ATOM     16  N   UNL     1      -0.796  -4.513   5.153  0.00  0.00    -0.339 N 
ATOM     17  C   UNL     1      -1.299  -5.153   6.247  0.00  0.00    +0.095 A 
ATOM     18  C   UNL     1      -2.615  -5.189   6.457  0.00  0.00    +0.006 A 
ATOM     19  S   UNL     1      -3.243  -4.270   5.061  0.00  0.00    -0.054 S 
ATOM     20  C   UNL     1      -3.376  -5.833   7.587  0.00  0.00    +0.053 C 
ATOM     21  H   UNL     1       0.160  -4.483   4.992  0.00  0.00    +0.167 HD
ENDBRANCH   1  14
TORSDOF 2
