REMARK  Name = ZINC02088602
REMARK  12 active torsions:
REMARK  status: ('A' for Active; 'I' for Inactive)
REMARK    1  A    between atoms: C_1  and  C_2
REMARK    2  A    between atoms: C_2  and  C_3
REMARK    3  A    between atoms: C_3  and  C_4
REMARK    4  A    between atoms: C_4  and  C_5
REMARK    5  A    between atoms: C_5  and  C_6
REMARK    6  A    between atoms: C_18  and  C_37
REMARK    7  A    between atoms: C_25  and  C_27
REMARK    8  A    between atoms: C_30  and  O_35
REMARK    9  A    between atoms: C_31  and  O_33
REMARK   10  A    between atoms: O_33  and  C_34
REMARK   11  A    between atoms: O_35  and  C_36
REMARK   12  A    between atoms: C_41  and  N_43
REMARK                            x       y       z     vdW  Elec       q    Type
REMARK                         _______ _______ _______ _____ _____    ______ ____
ROOT
ATOM      1  C   UNL     1       1.817   3.817  -1.222  0.00  0.00    +0.220 C 
ATOM      2  O   UNL     1       1.754   5.029  -1.220  0.00  0.00    -0.275 OA
ATOM      3  N   UNL     1       1.398   3.119  -0.148  0.00  0.00    -0.261 N 
ATOM      4  C   UNL     1       1.467   1.720  -0.142  0.00  0.00    +0.058 A 
ATOM      5  C   UNL     1       2.682   1.060  -0.135  0.00  0.00    +0.025 A 
ATOM      6  C   UNL     1       2.715  -0.323  -0.097  0.00  0.00    +0.002 A 
ATOM      7  C   UNL     1       1.539  -1.049  -0.065  0.00  0.00    +0.002 A 
ATOM      8  C   UNL     1       0.318  -0.399  -0.077  0.00  0.00    +0.025 A 
ATOM      9  C   UNL     1       0.275   0.982  -0.122  0.00  0.00    +0.053 A 
ATOM     10  N   UNL     1      -0.937   1.679  -0.166  0.00  0.00    -0.316 N 
ATOM     11  C   UNL     1      -1.265   2.539   0.912  0.00  0.00    +0.017 C 
ATOM     12  C   UNL     1      -2.094   2.106   1.833  0.00  0.00    +0.001 C 
ATOM     13  C   UNL     1      -2.539   2.917   3.014  0.00  0.00    +0.050 C 
ATOM     14  C   UNL     1      -2.551   4.403   2.637  0.00  0.00    +0.087 C 
ATOM     15  C   UNL     1      -1.193   4.716   2.078  0.00  0.00    +0.145 C 
ATOM     16  O   UNL     1      -0.545   5.623   2.544  0.00  0.00    -0.297 OA
ATOM     17  C   UNL     1      -0.659   3.910   0.925  0.00  0.00    +0.124 C 
ATOM     18  C   UNL     1       0.863   3.816   1.027  0.00  0.00    +0.127 C 
ATOM     19  H   UNL     1      -1.542   1.567  -0.916  0.00  0.00    +0.152 HD
ENDROOT
BRANCH  18  20
ATOM     20  C   UNL     1       1.236   3.056   2.273  0.00  0.00    -0.022 A 
ATOM     21  C   UNL     1       2.100   3.621   3.193  0.00  0.00    +0.009 A 
ATOM     22  C   UNL     1       2.441   2.930   4.341  0.00  0.00    +0.050 A 
ATOM     23  C   UNL     1       1.926   1.663   4.566  0.00  0.00    +0.162 A 
ATOM     24  C   UNL     1       1.062   1.092   3.636  0.00  0.00    +0.162 A 
ATOM     25  C   UNL     1       0.720   1.792   2.491  0.00  0.00    +0.055 A 
BRANCH  24  26
ATOM     26  O   UNL     1       0.553  -0.151   3.853  0.00  0.00    -0.491 OA
ATOM     27  C   UNL     1      -0.234  -0.721   2.805  0.00  0.00    +0.277 C 
ENDBRANCH  24  26
BRANCH  23  28
ATOM     28  O   UNL     1       2.264   0.980   5.692  0.00  0.00    -0.491 OA
ATOM     29  C   UNL     1       3.156   1.628   6.601  0.00  0.00    +0.277 C 
ENDBRANCH  23  28
ENDBRANCH  18  20
BRANCH  13  30
ATOM     30  C   UNL     1      -1.587   2.697   4.161  0.00  0.00    -0.038 A 
ATOM     31  C   UNL     1      -1.468   1.442   4.729  0.00  0.00    +0.004 A 
ATOM     32  C   UNL     1      -0.591   1.239   5.779  0.00  0.00    +0.003 A 
ATOM     33  C   UNL     1       0.159   2.293   6.266  0.00  0.00    +0.033 A 
ATOM     34  C   UNL     1       0.035   3.549   5.702  0.00  0.00    +0.126 A 
ATOM     35  C   UNL     1      -0.838   3.751   4.649  0.00  0.00    +0.037 A 
BRANCH  34  36
ATOM     36  N   UNL     1       0.838   4.677   6.225  0.00  0.00    +0.056 N 
ATOM     37  O   UNL     1       0.729   5.784   5.727  0.00  0.00    -0.126 OA
ATOM     38  O   UNL     1       1.607   4.500   7.153  0.00  0.00    -0.126 OA
ENDBRANCH  34  36
ENDBRANCH  13  30
BRANCH   1  39
ATOM     39  C   UNL     1       2.365   3.093  -2.425  0.00  0.00    +0.096 C 
BRANCH  39  40
ATOM     40  C   UNL     1       2.766   4.111  -3.494  0.00  0.00    +0.009 C 
BRANCH  40  41
ATOM     41  C   UNL     1       3.321   3.376  -4.715  0.00  0.00    +0.000 C 
BRANCH  41  43
ATOM     42  C   UNL     1       4.278   3.659  -7.006  0.00  0.00    +0.004 C 
ATOM     43  C   UNL     1       3.723   4.394  -5.785  0.00  0.00    -0.003 C 
ENDBRANCH  41  43
ENDBRANCH  40  41
ENDBRANCH  39  40
ENDBRANCH   1  39
TORSDOF 9
