REMARK  Name = ZINC02731725
REMARK  14 active torsions:
REMARK  status: ('A' for Active; 'I' for Inactive)
REMARK    1  A    between atoms: C_1  and  C_2
REMARK    2  A    between atoms: C_2  and  C_3
REMARK    3  A    between atoms: C_3  and  O_4
REMARK    4  A    between atoms: O_4  and  C_5
REMARK    5  A    between atoms: C_5  and  C_7
REMARK    6  A    between atoms: C_8  and  C_38
REMARK    7  A    between atoms: C_12  and  C_14
REMARK    8  A    between atoms: C_17  and  O_22
REMARK    9  A    between atoms: C_18  and  O_20
REMARK   10  A    between atoms: O_20  and  C_21
REMARK   11  A    between atoms: O_22  and  C_23
REMARK   12  A    between atoms: C_27  and  C_30
REMARK   13  A    between atoms: C_35  and  O_36
REMARK   14  A    between atoms: O_36  and  C_37
REMARK                            x       y       z     vdW  Elec       q    Type
REMARK                         _______ _______ _______ _____ _____    ______ ____
ROOT
ATOM      1  C   UNL     1       1.262  -3.981   2.461  0.00  0.00    +0.065 C 
ATOM      2  C   UNL     1       2.139  -4.555   3.303  0.00  0.00    +0.016 C 
ATOM      3  N   UNL     1       2.381  -5.899   3.240  0.00  0.00    -0.321 N 
ATOM      4  C   UNL     1       1.491  -6.741   2.629  0.00  0.00    +0.016 C 
ATOM      5  C   UNL     1       0.580  -6.258   1.757  0.00  0.00    +0.024 C 
ATOM      6  C   UNL     1       0.528  -4.789   1.432  0.00  0.00    +0.092 C 
ATOM      7  C   UNL     1      -0.350  -7.110   1.134  0.00  0.00    +0.162 C 
ATOM      8  O   UNL     1      -1.151  -6.644   0.349  0.00  0.00    -0.292 OA
ATOM      9  C   UNL     1      -0.370  -8.586   1.423  0.00  0.00    +0.088 C 
ATOM     10  C   UNL     1       0.158  -8.825   2.841  0.00  0.00    +0.035 C 
ATOM     11  C   UNL     1       1.557  -8.214   2.948  0.00  0.00    +0.060 C 
ATOM     12  C   UNL     1       2.860  -3.712   4.323  0.00  0.00    +0.061 C 
ATOM     13  H   UNL     1       3.191  -6.260   3.633  0.00  0.00    +0.152 HD
ENDROOT
BRANCH   6  14
ATOM     14  C   UNL     1       1.159  -4.563   0.083  0.00  0.00    -0.032 A 
ATOM     15  C   UNL     1       2.487  -4.889  -0.121  0.00  0.00    +0.008 A 
ATOM     16  C   UNL     1       3.071  -4.684  -1.357  0.00  0.00    +0.050 A 
ATOM     17  C   UNL     1       2.325  -4.150  -2.396  0.00  0.00    +0.162 A 
ATOM     18  C   UNL     1       0.988  -3.821  -2.191  0.00  0.00    +0.162 A 
ATOM     19  C   UNL     1       0.408  -4.034  -0.951  0.00  0.00    +0.054 A 
BRANCH  18  20
ATOM     20  O   UNL     1       0.252  -3.297  -3.207  0.00  0.00    -0.491 OA
ATOM     21  C   UNL     1      -1.114  -2.984  -2.924  0.00  0.00    +0.277 C 
ENDBRANCH  18  20
BRANCH  17  22
ATOM     22  O   UNL     1       2.898  -3.947  -3.612  0.00  0.00    -0.491 OA
ATOM     23  C   UNL     1       4.274  -4.307  -3.749  0.00  0.00    +0.277 C 
ENDBRANCH  17  22
ENDBRANCH   6  14
BRANCH  10  24
ATOM     24  C   UNL     1       0.226 -10.306   3.113  0.00  0.00    -0.002 A 
ATOM     25  C   UNL     1       1.022 -11.117   2.328  0.00  0.00    +0.007 A 
ATOM     26  C   UNL     1       1.084 -12.476   2.576  0.00  0.00    +0.001 A 
ATOM     27  C   UNL     1       0.351 -13.026   3.612  0.00  0.00    +0.004 A 
ATOM     28  C   UNL     1      -0.446 -12.219   4.400  0.00  0.00    +0.046 A 
ATOM     29  C   UNL     1      -0.506 -10.854   4.156  0.00  0.00    +0.124 A 
BRANCH  29  30
ATOM     30  O   UNL     1      -1.285 -10.057   4.934  0.00  0.00    -0.495 OA
ATOM     31  C   UNL     1      -2.011 -10.690   5.989  0.00  0.00    +0.277 C 
ENDBRANCH  29  30
ENDBRANCH  10  24
BRANCH   1  32
ATOM     32  C   UNL     1       1.024  -2.590   2.551  0.00  0.00    +0.338 C 
ATOM     33  O   UNL     1       1.514  -1.946   3.460  0.00  0.00    -0.245 OA
BRANCH  32  34
ATOM     34  O   UNL     1       0.253  -1.976   1.629  0.00  0.00    -0.461 OA
BRANCH  34  35
ATOM     35  C   UNL     1       0.054  -0.569   1.781  0.00  0.00    +0.232 C 
BRANCH  35  37
ATOM     36  C   UNL     1      -1.052   1.451   0.814  0.00  0.00    +0.007 C 
ATOM     37  C   UNL     1      -0.839  -0.055   0.651  0.00  0.00    +0.038 C 
ENDBRANCH  35  37
ENDBRANCH  34  35
ENDBRANCH  32  34
ENDBRANCH   1  32
TORSDOF 9
