REMARK  Name = ZINC32855726
REMARK  11 active torsions:
REMARK  status: ('A' for Active; 'I' for Inactive)
REMARK    1  A    between atoms: C_1  and  C_2
REMARK    2  A    between atoms: C_2  and  N_3
REMARK    3  A    between atoms: N_3  and  C_4
REMARK    4  A    between atoms: N_3  and  C_6
REMARK    5  A    between atoms: C_4  and  C_5
REMARK    6  A    between atoms: C_6  and  C_7
REMARK    7  A    between atoms: C_11  and  C_15
REMARK    8  A    between atoms: C_12  and  C_14
REMARK    9  A    between atoms: C_16  and  S_18
REMARK   10  A    between atoms: S_18  and  C_19
REMARK   11  A    between atoms: C_22  and  C_25
REMARK                            x       y       z     vdW  Elec       q    Type
REMARK                         _______ _______ _______ _____ _____    ______ ____
ROOT
ATOM      1  C   UNL     1       1.889  -2.742  -0.265  0.00  0.00    +0.115 A 
ATOM      2  N   UNL     1       1.259  -2.748  -1.424  0.00  0.00    -0.227 NA
ATOM      3  C   UNL     1       1.939  -2.736  -2.553  0.00  0.00    +0.113 A 
ATOM      4  C   UNL     1       3.352  -2.716  -2.561  0.00  0.00    +0.043 A 
ATOM      5  C   UNL     1       3.954  -2.705  -3.882  0.00  0.00    -0.029 A 
ATOM      6  C   UNL     1       3.161  -2.713  -4.964  0.00  0.00    -0.008 A 
ATOM      7  S   UNL     1       1.517  -2.737  -4.275  0.00  0.00    -0.074 S 
ATOM      8  C   UNL     1       3.564  -2.705  -6.416  0.00  0.00    +0.052 C 
ATOM      9  C   UNL     1       5.453  -2.684  -4.036  0.00  0.00    +0.045 C 
ATOM     10  C   UNL     1       3.969  -2.712  -1.280  0.00  0.00    +0.116 A 
ATOM     11  N   UNL     1       3.207  -2.719  -0.197  0.00  0.00    -0.227 NA
ENDROOT
BRANCH   1  12
ATOM     12  C   UNL     1       1.085  -2.757   1.010  0.00  0.00    -0.001 C 
BRANCH  12  13
ATOM     13  N   UNL     1       0.800  -1.376   1.425  0.00  0.00    +0.384 N 
ATOM     14  H   UNL     1       1.665  -0.862   1.500  0.00  0.00    -0.081 HD
BRANCH  13  16
ATOM     15  C   UNL     1      -0.283   0.731   0.808  0.00  0.00    -0.017 C 
ATOM     16  C   UNL     1      -0.066  -0.734   0.427  0.00  0.00    -0.082 C 
ENDBRANCH  13  16
BRANCH  13  17
ATOM     17  C   UNL     1       0.122  -1.387   2.728  0.00  0.00    -0.082 C 
ATOM     18  C   UNL     1      -1.182  -2.179   2.618  0.00  0.00    -0.017 C 
ENDBRANCH  13  17
ENDBRANCH  12  13
ENDBRANCH   1  12
BRANCH  10  19
ATOM     19  S   UNL     1       5.724  -2.689  -1.135  0.00  0.00    -0.030 S 
BRANCH  19  20
ATOM     20  C   UNL     1       6.009  -2.690   0.604  0.00  0.00    +0.191 A 
ATOM     21  N   UNL     1       5.084  -2.705   1.537  0.00  0.00    -0.200 NA
ATOM     22  H   UNL     1       8.084  -2.673   0.775  0.00  0.00    +0.191 HD
ATOM     23  C   UNL     1       5.664  -2.701   2.747  0.00  0.00    +0.189 A 
ATOM     24  N   UNL     1       6.970  -2.683   2.592  0.00  0.00    -0.151 NA
ATOM     25  N   UNL     1       7.217  -2.681   1.210  0.00  0.00    -0.253 N 
BRANCH  23  26
ATOM     26  C   UNL     1       4.951  -2.714   4.043  0.00  0.00    +0.058 A 
ATOM     27  C   UNL     1       5.467  -2.705   5.311  0.00  0.00    +0.019 A 
ATOM     28  C   UNL     1       4.597  -2.721   6.380  0.00  0.00    +0.008 A 
ATOM     29  C   UNL     1       3.260  -2.744   6.144  0.00  0.00    +0.046 A 
ATOM     30  S   UNL     1       3.195  -2.737   4.360  0.00  0.00    -0.093 S 
ENDBRANCH  23  26
ENDBRANCH  19  20
ENDBRANCH  10  19
TORSDOF 7
