REMARK  Name = ZINC40030350
REMARK  15 active torsions:
REMARK  status: ('A' for Active; 'I' for Inactive)
REMARK    1  A    between atoms: C_1  and  C_2
REMARK    2  A    between atoms: C_5  and  C_8
REMARK    3  A    between atoms: C_8  and  O_9
REMARK    4  A    between atoms: O_9  and  C_10
REMARK    5  A    between atoms: C_14  and  C_16
REMARK    6  A    between atoms: C_16  and  C_18
REMARK    7  A    between atoms: N_22  and  C_37
REMARK    8  A    between atoms: C_23  and  C_25
REMARK    9  A    between atoms: C_29  and  O_31
REMARK   10  A    between atoms: O_31  and  C_32
REMARK   11  A    between atoms: C_32  and  C_33
REMARK   12  A    between atoms: C_33  and  C_34
REMARK   13  A    between atoms: C_34  and  C_35
REMARK   14  A    between atoms: C_34  and  C_36
REMARK   15  A    between atoms: C_37  and  C_38
REMARK                            x       y       z     vdW  Elec       q    Type
REMARK                         _______ _______ _______ _____ _____    ______ ____
ROOT
ATOM      1  C   UNL     1       4.779  -9.981  -0.024  0.00  0.00    +0.076 C 
ATOM      2  C   UNL     1       5.995 -10.569   0.060  0.00  0.00    +0.249 C 
ATOM      3  C   UNL     1       5.822 -12.037   0.099  0.00  0.00    +0.288 C 
ATOM      4  O   UNL     1       6.728 -12.844   0.174  0.00  0.00    -0.266 OA
ATOM      5  N   UNL     1       4.514 -12.347   0.041  0.00  0.00    -0.280 N 
ATOM      6  C   UNL     1       3.756 -11.093  -0.034  0.00  0.00    +0.145 C 
ATOM      7  O   UNL     1       7.180  -9.918   0.099  0.00  0.00    -0.282 OA
ENDROOT
BRANCH   6   8
ATOM      8  C   UNL     1       2.957 -11.050  -1.311  0.00  0.00    -0.019 A 
ATOM      9  C   UNL     1       3.461 -11.629  -2.462  0.00  0.00    +0.006 A 
ATOM     10  C   UNL     1       2.731 -11.591  -3.635  0.00  0.00    +0.004 A 
ATOM     11  C   UNL     1       1.495 -10.974  -3.661  0.00  0.00    +0.045 A 
ATOM     12  C   UNL     1       0.987 -10.392  -2.508  0.00  0.00    +0.121 A 
ATOM     13  C   UNL     1       1.719 -10.437  -1.331  0.00  0.00    +0.051 A 
BRANCH  12  14
ATOM     14  O   UNL     1      -0.229  -9.785  -2.531  0.00  0.00    -0.492 OA
BRANCH  14  15
ATOM     15  C   UNL     1      -0.929  -9.782  -3.777  0.00  0.00    +0.229 C 
BRANCH  15  16
ATOM     16  C   UNL     1      -2.267  -9.059  -3.608  0.00  0.00    +0.044 C 
BRANCH  16  17
ATOM     17  C   UNL     1      -3.017  -9.056  -4.941  0.00  0.00    -0.014 C 
ATOM     18  C   UNL     1      -3.379 -10.492  -5.326  0.00  0.00    +0.007 C 
ATOM     19  C   UNL     1      -4.295  -8.227  -4.806  0.00  0.00    +0.007 C 
ENDBRANCH  16  17
ENDBRANCH  15  16
ENDBRANCH  14  15
ENDBRANCH  12  14
ENDBRANCH   6   8
BRANCH   1  20
ATOM     20  C   UNL     1       4.506  -8.542  -0.085  0.00  0.00    +0.195 C 
ATOM     21  O   UNL     1       4.848  -7.899  -1.060  0.00  0.00    -0.287 OA
BRANCH  20  26
ATOM     22  C   UNL     1       2.981  -5.868   2.073  0.00  0.00    +0.122 A 
ATOM     23  C   UNL     1       2.522  -6.620   3.147  0.00  0.00    +0.046 A 
ATOM     24  C   UNL     1       2.708  -7.990   3.167  0.00  0.00    +0.004 A 
ATOM     25  C   UNL     1       3.352  -8.619   2.122  0.00  0.00    +0.012 A 
ATOM     26  C   UNL     1       3.816  -7.871   1.038  0.00  0.00    +0.026 A 
ATOM     27  C   UNL     1       3.623  -6.489   1.016  0.00  0.00    +0.057 A 
BRANCH  22  28
ATOM     28  O   UNL     1       2.796  -4.521   2.059  0.00  0.00    -0.487 OA
BRANCH  28  29
ATOM     29  C   UNL     1       2.126  -3.947   3.183  0.00  0.00    +0.264 C 
BRANCH  29  34
ATOM     30  C   UNL     1       1.688   1.769   2.452  0.00  0.00    +0.044 C 
ATOM     31  C   UNL     1       1.802   0.278   2.642  0.00  0.00    -0.050 A 
ATOM     32  C   UNL     1       0.802  -0.556   2.179  0.00  0.00    +0.004 A 
ATOM     33  C   UNL     1       0.907  -1.923   2.354  0.00  0.00    +0.007 A 
ATOM     34  C   UNL     1       2.012  -2.456   2.991  0.00  0.00    -0.010 A 
ATOM     35  C   UNL     1       3.012  -1.621   3.454  0.00  0.00    +0.007 A 
ATOM     36  C   UNL     1       2.909  -0.255   3.275  0.00  0.00    +0.004 A 
ENDBRANCH  29  34
ENDBRANCH  28  29
ENDBRANCH  22  28
ENDBRANCH  20  26
ENDBRANCH   1  20
BRANCH   5  37
ATOM     37  C   UNL     1       3.947 -13.698   0.055  0.00  0.00    +0.136 C 
BRANCH  37  38
ATOM     38  C   UNL     1       3.678 -14.114   1.478  0.00  0.00    -0.016 C 
ATOM     39  C   UNL     1       2.480 -14.510   1.829  0.00  0.00    +0.005 C 
ENDBRANCH  37  38
ENDBRANCH   5  37
TORSDOF 12
