REMARK  Name = ZINC09046172
REMARK  4 active torsions:
REMARK  status: ('A' for Active; 'I' for Inactive)
REMARK    1  A    between atoms: C_8  and  C_26
REMARK    2  A    between atoms: C_10  and  C_17
REMARK    3  A    between atoms: C_21  and  N_23
REMARK    4  A    between atoms: C_26  and  C_28
REMARK                            x       y       z     vdW  Elec       q    Type
REMARK                         _______ _______ _______ _____ _____    ______ ____
ROOT
ATOM      1  C   UNL     1       6.018   3.761  -2.415  0.00  0.00    +0.000 A 
ATOM      2  C   UNL     1       6.949   3.508  -3.406  0.00  0.00    +0.002 A 
ATOM      3  C   UNL     1       7.457   2.237  -3.576  0.00  0.00    +0.023 A 
ATOM      4  C   UNL     1       7.036   1.198  -2.749  0.00  0.00    +0.036 A 
ATOM      5  C   UNL     1       6.100   1.464  -1.755  0.00  0.00    -0.027 A 
ATOM      6  C   UNL     1       5.595   2.735  -1.589  0.00  0.00    +0.004 A 
ATOM      7  C   UNL     1       5.861   0.157  -1.048  0.00  0.00    +0.051 C 
ATOM      8  C   UNL     1       4.392  -0.265  -1.147  0.00  0.00    +0.072 C 
ATOM      9  C   UNL     1       3.791   0.015   0.243  0.00  0.00    +0.016 C 
ATOM     10  C   UNL     1       4.939   0.596   1.088  0.00  0.00    -0.059 C 
ATOM     11  C   UNL     1       6.606  -1.074   0.908  0.00  0.00    -0.076 C 
ATOM     12  C   UNL     1       6.292  -0.957   2.421  0.00  0.00    -0.020 C 
ATOM     13  C   UNL     1       4.979  -0.142   2.441  0.00  0.00    -0.016 C 
ATOM     14  C   UNL     1       6.753  -0.831  -1.756  0.00  0.00    +0.212 C 
ATOM     15  O   UNL     1       6.870  -2.011  -1.502  0.00  0.00    -0.277 OA
ATOM     16  N   UNL     1       7.397  -0.151  -2.723  0.00  0.00    -0.286 N 
ATOM     17  H   UNL     1       8.037  -0.551  -3.332  0.00  0.00    +0.155 HD
ATOM     18  N   UNL     1       6.159   0.238   0.394  0.00  0.00    +0.395 N 
ATOM     19  H   UNL     1       6.886   0.944   0.560  0.00  0.00    -0.079 HD
ENDROOT
BRANCH   9  20
ATOM     20  C   UNL     1       2.669   1.015   0.132  0.00  0.00    -0.043 A 
ATOM     21  C   UNL     1       1.376   0.582  -0.096  0.00  0.00    +0.004 A 
ATOM     22  C   UNL     1       0.348   1.499  -0.200  0.00  0.00    +0.002 A 
ATOM     23  C   UNL     1       0.612   2.851  -0.073  0.00  0.00    +0.033 A 
ATOM     24  C   UNL     1       1.904   3.284   0.156  0.00  0.00    +0.126 A 
ATOM     25  C   UNL     1       2.933   2.366   0.258  0.00  0.00    +0.036 A 
BRANCH  24  26
ATOM     26  N   UNL     1       2.186   4.731   0.291  0.00  0.00    +0.056 N 
ATOM     27  O   UNL     1       1.280   5.539   0.201  0.00  0.00    -0.126 OA
ATOM     28  O   UNL     1       3.325   5.112   0.493  0.00  0.00    -0.126 OA
ENDBRANCH  24  26
ENDBRANCH   9  20
BRANCH   8  29
ATOM     29  C   UNL     1       3.684   0.553  -2.197  0.00  0.00    +0.201 C 
ATOM     30  O   UNL     1       4.254   1.485  -2.727  0.00  0.00    -0.289 OA
BRANCH  29  31
ATOM     31  C   UNL     1       2.357   0.235  -2.563  0.00  0.00    +0.170 A 
ATOM     32  C   UNL     1       1.553   0.962  -3.419  0.00  0.00    +0.053 A 
ATOM     33  C   UNL     1       0.330   0.281  -3.490  0.00  0.00    +0.042 A 
ATOM     34  C   UNL     1       0.431  -0.809  -2.695  0.00  0.00    +0.196 A 
ATOM     35  O   UNL     1       1.650  -0.836  -2.144  0.00  0.00    -0.460 OA
ENDBRANCH  29  31
ENDBRANCH   8  29
TORSDOF 4
