REMARK  Name = ZINC07112502
REMARK  4 active torsions:
REMARK  status: ('A' for Active; 'I' for Inactive)
REMARK    1  A    between atoms: N_9  and  C_22
REMARK    2  A    between atoms: C_10  and  C_13
REMARK    3  A    between atoms: C_17  and  N_19
REMARK    4  A    between atoms: C_22  and  C_23
REMARK                            x       y       z     vdW  Elec       q    Type
REMARK                         _______ _______ _______ _____ _____    ______ ____
ROOT
ATOM      1  C   UNL     1      -2.094  -0.290   4.842  0.00  0.00    +0.001 A 
ATOM      2  C   UNL     1      -1.408  -1.258   4.125  0.00  0.00    +0.002 A 
ATOM      3  C   UNL     1      -1.469  -1.285   2.745  0.00  0.00    +0.024 A 
ATOM      4  C   UNL     1      -2.221  -0.336   2.074  0.00  0.00    +0.041 A 
ATOM      5  C   UNL     1      -2.921   0.645   2.798  0.00  0.00    +0.058 A 
ATOM      6  C   UNL     1      -2.850   0.662   4.189  0.00  0.00    +0.015 A 
ATOM      7  C   UNL     1      -3.718   1.635   2.050  0.00  0.00    +0.250 C 
ATOM      8  O   UNL     1      -4.527   2.335   2.627  0.00  0.00    -0.270 OA
ATOM      9  N   UNL     1      -3.538   1.755   0.719  0.00  0.00    -0.268 N 
ATOM     10  C   UNL     1      -2.514   0.979   0.019  0.00  0.00    +0.193 C 
ATOM     11  N   UNL     1      -2.309  -0.312   0.687  0.00  0.00    -0.321 N 
ATOM     12  H   UNL     1      -2.237  -1.131   0.171  0.00  0.00    +0.148 HD
ENDROOT
BRANCH  10  13
ATOM     13  C   UNL     1      -1.219   1.750   0.017  0.00  0.00    -0.007 A 
ATOM     14  C   UNL     1      -1.238   3.133   0.029  0.00  0.00    +0.007 A 
ATOM     15  C   UNL     1      -0.050   3.840   0.022  0.00  0.00    +0.003 A 
ATOM     16  C   UNL     1       1.157   3.165   0.008  0.00  0.00    +0.033 A 
ATOM     17  C   UNL     1       1.175   1.783   0.000  0.00  0.00    +0.127 A 
ATOM     18  C   UNL     1      -0.013   1.076   0.008  0.00  0.00    +0.039 A 
BRANCH  17  19
ATOM     19  N   UNL     1       2.467   1.061  -0.015  0.00  0.00    +0.056 N 
ATOM     20  O   UNL     1       2.483  -0.157  -0.022  0.00  0.00    -0.126 OA
ATOM     21  O   UNL     1       3.513   1.684  -0.022  0.00  0.00    -0.126 OA
ENDBRANCH  17  19
ENDBRANCH  10  13
BRANCH   9  22
ATOM     22  C   UNL     1      -4.384   2.679  -0.041  0.00  0.00    +0.184 C 
BRANCH  22  23
ATOM     23  C   UNL     1      -5.614   1.953  -0.522  0.00  0.00    +0.122 A 
ATOM     24  C   UNL     1      -6.776   1.846   0.146  0.00  0.00    +0.046 A 
ATOM     25  C   UNL     1      -7.650   1.090  -0.669  0.00  0.00    +0.041 A 
ATOM     26  C   UNL     1      -6.966   0.773  -1.784  0.00  0.00    +0.195 A 
ATOM     27  O   UNL     1      -5.734   1.298  -1.689  0.00  0.00    -0.466 OA
ENDBRANCH  22  23
ENDBRANCH   9  22
TORSDOF 4
