REMARK  Name = ZINC02635881
REMARK  12 active torsions:
REMARK  status: ('A' for Active; 'I' for Inactive)
REMARK    1  A    between atoms: C_1  and  C_2
REMARK    2  A    between atoms: C_6  and  N_9
REMARK    3  A    between atoms: C_7  and  C_8
REMARK    4  A    between atoms: N_9  and  C_10
REMARK    5  A    between atoms: C_15  and  C_16
REMARK    6  A    between atoms: C_16  and  O_18
REMARK    7  A    between atoms: O_18  and  C_19
REMARK    8  A    between atoms: C_19  and  C_20
REMARK    9  A    between atoms: C_20  and  C_22
REMARK   10  A    between atoms: C_24  and  C_38
REMARK   11  A    between atoms: N_25  and  C_28
REMARK   12  A    between atoms: C_26  and  C_27
REMARK                            x       y       z     vdW  Elec       q    Type
REMARK                         _______ _______ _______ _____ _____    ______ ____
ROOT
ATOM      1  C   UNL     1      -7.601  -3.141  -1.083  0.00  0.00    +0.311 C 
ENDROOT
BRANCH   1   2
ATOM      2  C   UNL     1      -6.522  -2.264  -1.664  0.00  0.00    +0.202 C 
ATOM      3  O   UNL     1      -6.704  -1.700  -2.723  0.00  0.00    -0.288 OA
BRANCH   2   4
ATOM      4  C   UNL     1      -5.256  -2.091  -0.951  0.00  0.00    +0.042 A 
ATOM      5  C   UNL     1      -4.873  -2.696   0.333  0.00  0.00    +0.034 A 
ATOM      6  C   UNL     1      -3.631  -2.262   0.602  0.00  0.00    +0.022 A 
ATOM      7  N   UNL     1      -3.214  -1.441  -0.409  0.00  0.00    -0.317 N 
ATOM      8  C   UNL     1      -4.176  -1.323  -1.344  0.00  0.00    +0.032 A 
ATOM      9  C   UNL     1      -4.089  -0.499  -2.603  0.00  0.00    +0.064 C 
ATOM     10  C   UNL     1      -2.824  -2.623   1.822  0.00  0.00    +0.064 C 
BRANCH   7  11
ATOM     11  C   UNL     1      -1.964  -0.807  -0.462  0.00  0.00    +0.050 A 
ATOM     12  C   UNL     1      -1.885   0.578  -0.404  0.00  0.00    +0.030 A 
ATOM     13  C   UNL     1      -0.655   1.203  -0.460  0.00  0.00    +0.051 A 
ATOM     14  C   UNL     1       0.506   0.450  -0.567  0.00  0.00    +0.162 A 
ATOM     15  C   UNL     1       0.429  -0.936  -0.623  0.00  0.00    +0.164 A 
ATOM     16  C   UNL     1      -0.806  -1.563  -0.571  0.00  0.00    +0.075 A 
ATOM     17  O   UNL     1       1.557  -1.692  -0.729  0.00  0.00    -0.485 OA
ATOM     18  C   UNL     1       2.746  -1.019  -1.155  0.00  0.00    +0.270 C 
ATOM     19  C   UNL     1       2.869   0.288  -0.359  0.00  0.00    +0.270 C 
ATOM     20  O   UNL     1       1.710   1.085  -0.622  0.00  0.00    -0.485 OA
ENDBRANCH   7  11
ENDBRANCH   2   4
ENDBRANCH   1   2
BRANCH   1  21
ATOM     21  O   UNL     1      -8.750  -3.148  -1.971  0.00  0.00    -0.453 OA
BRANCH  21  22
ATOM     22  C   UNL     1      -9.810  -3.891  -1.595  0.00  0.00    +0.341 C 
ATOM     23  O   UNL     1      -9.775  -4.514  -0.552  0.00  0.00    -0.245 OA
BRANCH  22  29
ATOM     24  C   UNL     1     -12.099  -4.753  -2.081  0.00  0.00    +0.045 A 
ATOM     25  C   UNL     1     -13.226  -4.796  -2.894  0.00  0.00    +0.024 A 
ATOM     26  C   UNL     1     -13.271  -4.049  -4.052  0.00  0.00    +0.002 A 
ATOM     27  C   UNL     1     -12.198  -3.251  -4.416  0.00  0.00    +0.001 A 
ATOM     28  C   UNL     1     -11.075  -3.190  -3.621  0.00  0.00    +0.017 A 
ATOM     29  C   UNL     1     -11.010  -3.946  -2.446  0.00  0.00    +0.080 A 
BRANCH  24  30
ATOM     30  N   UNL     1     -12.051  -5.505  -0.914  0.00  0.00    -0.314 N 
ATOM     31  H   UNL     1     -11.822  -6.447  -0.953  0.00  0.00    +0.152 HD
BRANCH  30  37
ATOM     32  C   UNL     1     -12.289  -5.808   3.986  0.00  0.00    +0.044 C 
ATOM     33  C   UNL     1     -12.457  -5.027   2.708  0.00  0.00    -0.046 A 
ATOM     34  C   UNL     1     -12.889  -3.714   2.751  0.00  0.00    +0.004 A 
ATOM     35  C   UNL     1     -13.044  -2.995   1.581  0.00  0.00    +0.002 A 
ATOM     36  C   UNL     1     -12.767  -3.586   0.363  0.00  0.00    +0.023 A 
ATOM     37  C   UNL     1     -12.332  -4.904   0.316  0.00  0.00    +0.035 A 
ATOM     38  C   UNL     1     -12.184  -5.626   1.494  0.00  0.00    -0.026 A 
ATOM     39  C   UNL     1     -11.719  -7.059   1.446  0.00  0.00    +0.046 C 
ENDBRANCH  30  37
ENDBRANCH  24  30
ENDBRANCH  22  29
ENDBRANCH  21  22
ENDBRANCH   1  21
TORSDOF 8
