REMARK  Name = ZINC00691663
REMARK  3 active torsions:
REMARK  status: ('A' for Active; 'I' for Inactive)
REMARK    1  A    between atoms: C_5  and  N_7
REMARK    2  A    between atoms: C_8  and  C_10
REMARK    3  A    between atoms: C_11  and  N_22
REMARK                            x       y       z     vdW  Elec       q    Type
REMARK                         _______ _______ _______ _____ _____    ______ ____
ROOT
ATOM      1  C   UNL     1       2.375   0.770   0.069  0.00  0.00    +0.097 A 
ATOM      2  C   UNL     1       3.687   1.190   0.061  0.00  0.00    +0.053 A 
ATOM      3  C   UNL     1       4.734   0.186   0.161  0.00  0.00    +0.029 A 
ATOM      4  C   UNL     1       6.138   0.368   0.174  0.00  0.00    +0.017 A 
ATOM      5  C   UNL     1       6.960  -0.733   0.278  0.00  0.00    -0.025 A 
ATOM      6  C   UNL     1       6.414  -2.005   0.367  0.00  0.00    +0.046 A 
ATOM      7  N   UNL     1       5.102  -2.168   0.354  0.00  0.00    -0.244 NA
ATOM      8  C   UNL     1       4.279  -1.149   0.258  0.00  0.00    +0.111 A 
ATOM      9  S   UNL     1       2.510  -1.000   0.220  0.00  0.00    -0.062 S 
ATOM     10  C   UNL     1       7.524  -3.030   0.471  0.00  0.00    +0.056 C 
ATOM     11  C   UNL     1       8.778  -2.228   0.876  0.00  0.00    +0.011 C 
ATOM     12  C   UNL     1       8.471  -0.824   0.315  0.00  0.00    +0.037 C 
ENDROOT
BRANCH   1  14
ATOM     13  N   UNL     1      -0.011   0.966   0.007  0.00  0.00    -0.280 N 
ATOM     14  C   UNL     1       1.200   1.558  -0.016  0.00  0.00    +0.257 C 
ATOM     15  O   UNL     1       1.284   2.769  -0.111  0.00  0.00    -0.269 OA
ATOM     16  H   UNL     1      -0.078  -0.002   0.017  0.00  0.00    +0.155 HD
BRANCH  13  21
ATOM     17  C   UNL     1      -2.354   3.713  -0.683  0.00  0.00    +0.002 A 
ATOM     18  C   UNL     1      -3.466   3.293   0.024  0.00  0.00    +0.001 A 
ATOM     19  C   UNL     1      -3.433   2.103   0.726  0.00  0.00    +0.016 A 
ATOM     20  C   UNL     1      -2.289   1.328   0.723  0.00  0.00    +0.035 A 
ATOM     21  C   UNL     1      -1.171   1.747   0.013  0.00  0.00    +0.047 A 
ATOM     22  C   UNL     1      -1.206   2.946  -0.687  0.00  0.00    +0.024 A 
ATOM     23  I   UNL     1      -2.240  -0.475   1.788  0.00  0.00    -0.042 I 
ENDBRANCH  13  21
ENDBRANCH   1  14
BRANCH   2  24
ATOM     24  N   UNL     1       4.001   2.538  -0.041  0.00  0.00    -0.356 N 
ATOM     25  H   UNL     1       3.293   3.198  -0.107  0.00  0.00    +0.142 HD
ATOM     26  H   UNL     1       4.929   2.821  -0.046  0.00  0.00    +0.142 HD
ENDBRANCH   2  24
TORSDOF 3
