REMARK  Name = ZINC28117638
REMARK  8 active torsions:
REMARK  status: ('A' for Active; 'I' for Inactive)
REMARK    1  A    between atoms: C_1  and  C_2
REMARK    2  A    between atoms: C_5  and  S_8
REMARK    3  A    between atoms: S_8  and  C_9
REMARK    4  A    between atoms: C_11  and  N_20
REMARK    5  A    between atoms: C_18  and  O_19
REMARK    6  A    between atoms: N_20  and  S_21
REMARK    7  A    between atoms: S_21  and  C_24
REMARK    8  A    between atoms: C_28  and  N_30
REMARK                            x       y       z     vdW  Elec       q    Type
REMARK                         _______ _______ _______ _____ _____    ______ ____
ROOT
ATOM      1  C   UNL     1       0.358   5.066   2.846  0.00  0.00    +0.057 A 
ATOM      2  C   UNL     1      -0.590   4.391   2.073  0.00  0.00    +0.043 A 
ATOM      3  C   UNL     1      -1.210   3.259   2.550  0.00  0.00    +0.057 A 
ATOM      4  C   UNL     1      -0.891   2.776   3.838  0.00  0.00    +0.008 A 
ATOM      5  C   UNL     1      -1.503   1.622   4.351  0.00  0.00    +0.010 A 
ATOM      6  C   UNL     1      -1.169   1.177   5.594  0.00  0.00    +0.001 A 
ATOM      7  C   UNL     1      -0.224   1.849   6.367  0.00  0.00    +0.001 A 
ATOM      8  C   UNL     1       0.393   2.969   5.900  0.00  0.00    +0.012 A 
ATOM      9  C   UNL     1       0.074   3.458   4.621  0.00  0.00    +0.026 A 
ATOM     10  C   UNL     1       0.694   4.612   4.108  0.00  0.00    +0.138 A 
ENDROOT
BRANCH  10  11
ATOM     11  O   UNL     1       1.619   5.279   4.851  0.00  0.00    -0.505 OA
ATOM     12  H   UNL     1       1.883   4.915   5.855  0.00  0.00    +0.292 HD
ENDBRANCH  10  11
BRANCH   3  13
ATOM     13  N   UNL     1      -2.155   2.594   1.767  0.00  0.00    -0.216 N 
ATOM     14  H   UNL     1      -3.027   2.119   2.241  0.00  0.00    +0.174 HD
BRANCH  13  15
ATOM     15  S   UNL     1      -1.963   2.519   0.123  0.00  0.00    +0.072 S 
ATOM     16  O   UNL     1      -1.793   3.856  -0.327  0.00  0.00    -0.150 OA
ATOM     17  O   UNL     1      -2.996   1.675  -0.368  0.00  0.00    -0.150 OA
BRANCH  15  18
ATOM     18  C   UNL     1      -0.442   1.686  -0.186  0.00  0.00    +0.111 A 
ATOM     19  C   UNL     1      -0.423   0.311  -0.327  0.00  0.00    +0.029 A 
ATOM     20  C   UNL     1       0.769  -0.342  -0.576  0.00  0.00    +0.004 A 
ATOM     21  C   UNL     1       1.944   0.380  -0.684  0.00  0.00    +0.033 A 
ATOM     22  C   UNL     1       1.925   1.755  -0.543  0.00  0.00    +0.128 A 
ATOM     23  C   UNL     1       0.732   2.408  -0.293  0.00  0.00    +0.061 A 
BRANCH  22  24
ATOM     24  N   UNL     1       3.182   2.528  -0.658  0.00  0.00    +0.056 N 
ATOM     25  O   UNL     1       4.232   1.953  -0.878  0.00  0.00    -0.126 OA
ATOM     26  O   UNL     1       3.165   3.739  -0.534  0.00  0.00    -0.126 OA
ENDBRANCH  22  24
ENDBRANCH  15  18
ENDBRANCH  13  15
ENDBRANCH   3  13
BRANCH   1  27
ATOM     27  S   UNL     1       1.136   6.512   2.206  0.00  0.00    -0.086 S 
BRANCH  27  32
ATOM     28  C   UNL     1      -1.611  11.047   5.092  0.00  0.00    +0.044 C 
ATOM     29  C   UNL     1      -0.926   9.915   4.371  0.00  0.00    -0.050 A 
ATOM     30  C   UNL     1       0.150  10.176   3.542  0.00  0.00    +0.004 A 
ATOM     31  C   UNL     1       0.781   9.141   2.881  0.00  0.00    +0.015 A 
ATOM     32  C   UNL     1       0.334   7.836   3.049  0.00  0.00    +0.013 A 
ATOM     33  C   UNL     1      -0.751   7.578   3.878  0.00  0.00    +0.015 A 
ATOM     34  C   UNL     1      -1.374   8.617   4.541  0.00  0.00    +0.004 A 
ENDBRANCH  27  32
ENDBRANCH   1  27
TORSDOF 7
