REMARK  Name = ZINC08707723
REMARK  6 active torsions:
REMARK  status: ('A' for Active; 'I' for Inactive)
REMARK    1  A    between atoms: C_1  and  C_2
REMARK    2  A    between atoms: C_12  and  C_14
REMARK    3  A    between atoms: C_14  and  C_16
REMARK    4  A    between atoms: C_14  and  S_17
REMARK    5  A    between atoms: S_17  and  C_18
REMARK    6  A    between atoms: C_22  and  N_23
REMARK                            x       y       z     vdW  Elec       q    Type
REMARK                         _______ _______ _______ _____ _____    ______ ____
ROOT
ATOM      1  C   UNL     1      -1.706   6.007  -0.825  0.00  0.00    +0.137 C 
ATOM      2  C   UNL     1      -2.602   6.050   0.414  0.00  0.00    +0.029 C 
ENDROOT
BRANCH   1  13
ATOM      3  C   UNL     1      -0.344   4.352  -2.950  0.00  0.00    +0.029 C 
ATOM      4  C   UNL     1       0.222   3.920  -1.596  0.00  0.00    +0.083 C 
ATOM      5  C   UNL     1       1.530   3.136  -1.791  0.00  0.00    +0.059 C 
ATOM      6  C   UNL     1       2.576   3.954  -1.068  0.00  0.00    -0.024 A 
ATOM      7  C   UNL     1       3.932   3.747  -0.900  0.00  0.00    +0.005 A 
ATOM      8  C   UNL     1       4.690   4.655  -0.185  0.00  0.00    +0.000 A 
ATOM      9  C   UNL     1       4.087   5.770   0.368  0.00  0.00    +0.002 A 
ATOM     10  C   UNL     1       2.736   5.983   0.200  0.00  0.00    +0.024 A 
ATOM     11  C   UNL     1       1.963   5.070  -0.522  0.00  0.00    +0.040 A 
ATOM     12  N   UNL     1       0.594   5.095  -0.802  0.00  0.00    -0.267 N 
ATOM     13  C   UNL     1      -0.260   6.057  -0.401  0.00  0.00    +0.233 C 
ATOM     14  O   UNL     1       0.135   6.964   0.302  0.00  0.00    -0.274 OA
ENDBRANCH   1  13
BRANCH   1  15
ATOM     15  S   UNL     1      -2.073   7.428  -1.884  0.00  0.00    -0.073 S 
BRANCH  15  16
ATOM     16  C   UNL     1      -3.731   7.047  -2.343  0.00  0.00    +0.192 A 
ATOM     17  N   UNL     1      -4.410   7.898  -3.166  0.00  0.00    -0.207 NA
ATOM     18  C   UNL     1      -5.702   7.617  -3.541  0.00  0.00    +0.122 A 
ATOM     19  C   UNL     1      -6.297   6.486  -3.072  0.00  0.00    +0.086 A 
ATOM     20  C   UNL     1      -5.559   5.630  -2.216  0.00  0.00    +0.122 A 
ATOM     21  N   UNL     1      -4.291   5.951  -1.883  0.00  0.00    -0.207 NA
ATOM     22  N   UNL     1      -6.388   8.472  -4.375  0.00  0.00    -0.343 N 
ATOM     23  H   UNL     1      -7.422   8.240  -4.671  0.00  0.00    +0.144 HD
ATOM     24  H   UNL     1      -5.902   9.387  -4.746  0.00  0.00    +0.144 HD
BRANCH  20  25
ATOM     25  N   UNL     1      -6.111   4.523  -1.745  0.00  0.00    -0.343 N 
ATOM     26  H   UNL     1      -5.536   3.862  -1.081  0.00  0.00    +0.144 HD
ATOM     27  H   UNL     1      -7.145   4.265  -2.019  0.00  0.00    +0.144 HD
ENDBRANCH  20  25
ENDBRANCH  15  16
ENDBRANCH   1  15
TORSDOF 4
