REMARK  Name = ZINC58159143
REMARK  8 active torsions:
REMARK  status: ('A' for Active; 'I' for Inactive)
REMARK    1  A    between atoms: C_1  and  C_2
REMARK    2  A    between atoms: C_7  and  C_8
REMARK    3  A    between atoms: C_8  and  C_9
REMARK    4  A    between atoms: C_8  and  C_10
REMARK    5  A    between atoms: C_11  and  C_16
REMARK    6  A    between atoms: C_16  and  N_17
REMARK    7  A    between atoms: N_20  and  C_23
REMARK    8  A    between atoms: C_28  and  O_29
REMARK                            x       y       z     vdW  Elec       q    Type
REMARK                         _______ _______ _______ _____ _____    ______ ____
ROOT
ATOM      1  C   UNL     1      -0.485   1.457   0.079  0.00  0.00    +0.044 C 
ATOM      2  C   UNL     1      -0.223  -0.026   0.035  0.00  0.00    -0.044 A 
ATOM      3  C   UNL     1      -0.328  -0.703  -1.163  0.00  0.00    +0.050 A 
ATOM      4  C   UNL     1      -0.087  -2.070  -1.206  0.00  0.00    +0.140 A 
ATOM      5  C   UNL     1       0.263  -2.746  -0.024  0.00  0.00    +0.022 A 
ATOM      6  C   UNL     1       0.364  -2.042   1.179  0.00  0.00    +0.016 A 
ATOM      7  C   UNL     1       0.128  -0.696   1.198  0.00  0.00    -0.041 A 
ATOM      8  C   UNL     1       0.516  -4.189  -0.079  0.00  0.00    -0.016 A 
ATOM      9  C   UNL     1       0.401  -4.815  -1.278  0.00  0.00    +0.097 A 
ATOM     10  C   UNL     1       0.046  -4.073  -2.426  0.00  0.00    +0.338 A 
ATOM     11  O   UNL     1      -0.054  -4.646  -3.495  0.00  0.00    -0.245 OA
ATOM     12  O   UNL     1      -0.185  -2.752  -2.367  0.00  0.00    -0.422 OA
ENDROOT
BRANCH   7  13
ATOM     13  C   UNL     1       0.243   0.066   2.493  0.00  0.00    +0.013 C 
ATOM     14  C   UNL     1      -0.843  -0.407   3.461  0.00  0.00    +0.012 C 
ATOM     15  C   UNL     1       1.621  -0.185   3.111  0.00  0.00    +0.012 C 
ENDBRANCH   7  13
BRANCH   8  16
ATOM     16  C   UNL     1       0.894  -4.957   1.161  0.00  0.00    +0.120 C 
BRANCH  16  17
ATOM     17  N   UNL     1       2.344  -4.861   1.373  0.00  0.00    -0.295 NA
ATOM     18  C   UNL     1       2.742  -3.479   1.674  0.00  0.00    +0.103 C 
ATOM     19  C   UNL     1       4.271  -3.388   1.709  0.00  0.00    +0.120 C 
ATOM     20  N   UNL     1       4.779  -4.399   2.648  0.00  0.00    -0.325 N 
ATOM     21  C   UNL     1       4.315  -5.786   2.494  0.00  0.00    +0.120 C 
ATOM     22  C   UNL     1       2.784  -5.784   2.429  0.00  0.00    +0.103 C 
BRANCH  20  23
ATOM     23  C   UNL     1       5.679  -4.051   3.662  0.00  0.00    +0.072 A 
ATOM     24  C   UNL     1       5.208  -3.658   4.906  0.00  0.00    +0.027 A 
ATOM     25  C   UNL     1       6.099  -3.315   5.905  0.00  0.00    +0.002 A 
ATOM     26  C   UNL     1       7.460  -3.362   5.668  0.00  0.00    +0.004 A 
ATOM     27  C   UNL     1       7.937  -3.753   4.431  0.00  0.00    +0.047 A 
ATOM     28  C   UNL     1       7.051  -4.103   3.426  0.00  0.00    +0.138 A 
BRANCH  28  29
ATOM     29  O   UNL     1       7.519  -4.493   2.209  0.00  0.00    -0.505 OA
ATOM     30  H   UNL     1       7.639  -3.766   1.583  0.00  0.00    +0.292 HD
ENDBRANCH  28  29
ENDBRANCH  20  23
ENDBRANCH  16  17
ENDBRANCH   8  16
TORSDOF 5
