REMARK  Name = ZINC59121550
REMARK  5 active torsions:
REMARK  status: ('A' for Active; 'I' for Inactive)
REMARK    1  A    between atoms: C_4  and  C_7
REMARK    2  A    between atoms: N_9  and  C_31
REMARK    3  A    between atoms: C_16  and  C_25
REMARK    4  A    between atoms: N_17  and  N_18
REMARK    5  A    between atoms: N_18  and  C_19
REMARK                            x       y       z     vdW  Elec       q    Type
REMARK                         _______ _______ _______ _____ _____    ______ ____
ROOT
ATOM      1  C   UNL     1       3.114  -1.438   0.291  0.00  0.00    +0.127 C 
ATOM      2  N   UNL     1       4.074  -0.563   0.163  0.00  0.00    -0.169 NA
ATOM      3  N   UNL     1       5.396  -0.920  -0.038  0.00  0.00    -0.180 N 
ATOM      4  C   UNL     1       5.635  -2.356  -0.097  0.00  0.00    +0.225 C 
ATOM      5  S   UNL     1       3.949  -3.014   0.149  0.00  0.00    -0.045 S 
ATOM      6  N   UNL     1       6.579  -2.874   0.876  0.00  0.00    -0.275 N 
ATOM      7  C   UNL     1       7.641  -3.727   0.331  0.00  0.00    +0.121 C 
ATOM      8  C   UNL     1       8.002  -3.303  -1.126  0.00  0.00    +0.093 C 
ATOM      9  S   UNL     1       6.299  -2.879  -1.719  0.00  0.00    -0.101 S 
ATOM     10  C   UNL     1       6.483  -2.580   2.236  0.00  0.00    +0.122 C 
ATOM     11  N   UNL     1       5.522  -1.817   2.671  0.00  0.00    -0.293 N 
ATOM     12  H   UNL     1       4.934  -1.371   2.042  0.00  0.00    +0.186 HD
ENDROOT
BRANCH   1  16
ATOM     13  C   UNL     1      -1.025  -0.713   0.913  0.00  0.00    +0.000 A 
ATOM     14  C   UNL     1      -0.149   0.352   0.795  0.00  0.00    +0.001 A 
ATOM     15  C   UNL     1       1.196   0.123   0.593  0.00  0.00    +0.010 A 
ATOM     16  C   UNL     1       1.673  -1.185   0.508  0.00  0.00    +0.008 A 
ATOM     17  C   UNL     1       0.785  -2.255   0.628  0.00  0.00    +0.010 A 
ATOM     18  C   UNL     1      -0.558  -2.013   0.829  0.00  0.00    +0.001 A 
ENDBRANCH   1  16
BRANCH  10  19
ATOM     19  C   UNL     1       7.473  -3.135   3.183  0.00  0.00    +0.014 A 
ATOM     20  C   UNL     1       7.926  -2.365   4.255  0.00  0.00    +0.011 A 
ATOM     21  C   UNL     1       8.850  -2.889   5.136  0.00  0.00    +0.001 A 
ATOM     22  C   UNL     1       9.328  -4.175   4.957  0.00  0.00    +0.000 A 
ATOM     23  C   UNL     1       8.883  -4.944   3.896  0.00  0.00    +0.001 A 
ATOM     24  C   UNL     1       7.955  -4.434   3.012  0.00  0.00    +0.011 A 
ENDBRANCH  10  19
BRANCH   3  25
ATOM     25  C   UNL     1       6.418   0.019  -0.174  0.00  0.00    +0.056 A 
ATOM     26  C   UNL     1       7.675  -0.237   0.360  0.00  0.00    +0.025 A 
ATOM     27  C   UNL     1       8.684   0.695   0.223  0.00  0.00    +0.002 A 
ATOM     28  C   UNL     1       8.445   1.883  -0.444  0.00  0.00    +0.000 A 
ATOM     29  C   UNL     1       7.195   2.142  -0.976  0.00  0.00    +0.002 A 
ATOM     30  C   UNL     1       6.182   1.211  -0.849  0.00  0.00    +0.025 A 
ENDBRANCH   3  25
BRANCH  11  31
ATOM     31  N   UNL     1       5.338  -1.639   4.049  0.00  0.00    -0.259 N 
ATOM     32  H   UNL     1       5.874  -2.146   4.679  0.00  0.00    +0.172 HD
BRANCH  31  33
ATOM     33  C   UNL     1       4.384  -0.735   4.514  0.00  0.00    +0.046 A 
ATOM     34  C   UNL     1       3.611  -0.013   3.612  0.00  0.00    +0.024 A 
ATOM     35  C   UNL     1       2.667   0.881   4.077  0.00  0.00    +0.002 A 
ATOM     36  C   UNL     1       2.491   1.059   5.437  0.00  0.00    +0.000 A 
ATOM     37  C   UNL     1       3.258   0.343   6.337  0.00  0.00    +0.002 A 
ATOM     38  C   UNL     1       4.200  -0.558   5.880  0.00  0.00    +0.024 A 
ENDBRANCH  31  33
ENDBRANCH  11  31
TORSDOF 5
