REMARK  Name = ZINC21929168
REMARK  9 active torsions:
REMARK  status: ('A' for Active; 'I' for Inactive)
REMARK    1  A    between atoms: C_1  and  C_2
REMARK    2  A    between atoms: C_2  and  C_4
REMARK    3  A    between atoms: C_2  and  N_22
REMARK    4  A    between atoms: C_4  and  O_6
REMARK    5  A    between atoms: O_6  and  C_7
REMARK    6  A    between atoms: C_7  and  C_8
REMARK    7  A    between atoms: C_8  and  C_9
REMARK    8  A    between atoms: C_9  and  C_10
REMARK    9  A    between atoms: C_10  and  N_11
REMARK                            x       y       z     vdW  Elec       q    Type
REMARK                         _______ _______ _______ _____ _____    ______ ____
ROOT
ATOM      1  O   UNL     1       2.812   5.502   0.005  0.00  0.00    -0.463 OA
ENDROOT
BRANCH   1   2
ATOM      2  C   UNL     1       4.000   6.127  -0.003  0.00  0.00    +0.330 C 
ATOM      3  O   UNL     1       5.022   5.483  -0.016  0.00  0.00    -0.249 OA
BRANCH   2   5
ATOM      4  C   UNL     1       3.370   8.164   1.263  0.00  0.00    +0.043 C 
ATOM      5  C   UNL     1       4.059   7.633   0.004  0.00  0.00    +0.199 C 
BRANCH   5   6
ATOM      6  N   UNL     1       5.458   8.068  -0.007  0.00  0.00    -0.261 N 
ATOM      7  C   UNL     1       6.069   8.854  -0.982  0.00  0.00    +0.091 A 
ATOM      8  C   UNL     1       5.617   9.438  -2.156  0.00  0.00    +0.030 A 
ATOM      9  C   UNL     1       6.485  10.181  -2.932  0.00  0.00    +0.002 A 
ATOM     10  C   UNL     1       7.802  10.345  -2.541  0.00  0.00    +0.004 A 
ATOM     11  C   UNL     1       8.260   9.767  -1.373  0.00  0.00    +0.048 A 
ATOM     12  C   UNL     1       7.397   9.018  -0.588  0.00  0.00    +0.157 A 
ATOM     13  O   UNL     1       7.555   8.349   0.581  0.00  0.00    -0.407 OA
ATOM     14  C   UNL     1       6.387   7.785   0.927  0.00  0.00    +0.422 A 
ATOM     15  O   UNL     1       6.199   7.119   1.927  0.00  0.00    -0.223 OA
ENDBRANCH   5   6
ENDBRANCH   2   5
ENDBRANCH   1   2
BRANCH   1  16
ATOM     16  C   UNL     1       2.832   4.050  -0.003  0.00  0.00    +0.232 C 
BRANCH  16  17
ATOM     17  C   UNL     1       1.397   3.520   0.008  0.00  0.00    +0.043 C 
BRANCH  17  18
ATOM     18  C   UNL     1       1.418   1.990  -0.001  0.00  0.00    +0.023 C 
BRANCH  18  19
ATOM     19  C   UNL     1      -0.018   1.461   0.010  0.00  0.00    +0.117 C 
BRANCH  19  20
ATOM     20  N   UNL     1       0.002  -0.004   0.002  0.00  0.00    -0.234 N 
ATOM     21  C   UNL     1      -0.004  -0.759  -1.111  0.00  0.00    +0.254 C 
ATOM     22  O   UNL     1      -0.026  -0.341  -2.251  0.00  0.00    -0.270 OA
ATOM     23  C   UNL     1       0.024  -2.183  -0.715  0.00  0.00    +0.049 A 
ATOM     24  C   UNL     1       0.032  -3.381  -1.410  0.00  0.00    +0.014 A 
ATOM     25  C   UNL     1       0.055  -4.580  -0.714  0.00  0.00    +0.001 A 
ATOM     26  C   UNL     1       0.069  -4.587   0.668  0.00  0.00    +0.001 A 
ATOM     27  C   UNL     1       0.060  -3.396   1.377  0.00  0.00    +0.014 A 
ATOM     28  C   UNL     1       0.037  -2.191   0.695  0.00  0.00    +0.049 A 
ATOM     29  C   UNL     1       0.023  -0.771   1.107  0.00  0.00    +0.254 C 
ATOM     30  O   UNL     1       0.029  -0.365   2.252  0.00  0.00    -0.270 OA
ENDBRANCH  19  20
ENDBRANCH  18  19
ENDBRANCH  17  18
ENDBRANCH  16  17
ENDBRANCH   1  16
TORSDOF 8
