REMARK  Name = ZINC10754527
REMARK  8 active torsions:
REMARK  status: ('A' for Active; 'I' for Inactive)
REMARK    1  A    between atoms: C_1  and  C_2
REMARK    2  A    between atoms: C_2  and  O_3
REMARK    3  A    between atoms: O_3  and  C_4
REMARK    4  A    between atoms: C_4  and  C_6
REMARK    5  A    between atoms: C_7  and  N_15
REMARK    6  A    between atoms: C_16  and  C_18
REMARK    7  A    between atoms: N_23  and  S_25
REMARK    8  A    between atoms: S_25  and  C_28
REMARK                            x       y       z     vdW  Elec       q    Type
REMARK                         _______ _______ _______ _____ _____    ______ ____
ROOT
ATOM      1  N   UNL     1      -0.872   2.512   0.010  0.00  0.00    -0.282 N 
ATOM      2  C   UNL     1      -2.158   2.200   0.268  0.00  0.00    +0.222 C 
ATOM      3  O   UNL     1      -2.455   1.068   0.585  0.00  0.00    -0.275 OA
ATOM      4  H   UNL     1      -0.627   3.428  -0.193  0.00  0.00    +0.155 HD
ENDROOT
BRANCH   1   6
ATOM      5  C   UNL     1       0.622   0.850  -1.040  0.00  0.00    +0.234 A 
ATOM      6  C   UNL     1       0.102   1.521   0.034  0.00  0.00    +0.094 A 
ATOM      7  C   UNL     1       0.787   0.983   1.214  0.00  0.00    +0.042 A 
ATOM      8  C   UNL     1       0.712   1.244   2.583  0.00  0.00    +0.013 A 
ATOM      9  C   UNL     1       1.510   0.551   3.450  0.00  0.00    +0.001 A 
ATOM     10  C   UNL     1       2.394  -0.409   2.977  0.00  0.00    +0.004 A 
ATOM     11  C   UNL     1       2.483  -0.680   1.629  0.00  0.00    +0.047 A 
ATOM     12  C   UNL     1       1.681   0.013   0.729  0.00  0.00    +0.138 A 
ATOM     13  O   UNL     1       1.551  -0.034  -0.612  0.00  0.00    -0.446 OA
BRANCH   5  14
ATOM     14  C   UNL     1       0.246   1.052  -2.391  0.00  0.00    +0.377 C 
ATOM     15  O   UNL     1      -0.654   1.823  -2.663  0.00  0.00    -0.241 OA
BRANCH  14  16
ATOM     16  O   UNL     1       0.887   0.388  -3.376  0.00  0.00    -0.459 OA
BRANCH  16  18
ATOM     17  C   UNL     1       1.293  -0.196  -5.686  0.00  0.00    +0.048 C 
ATOM     18  C   UNL     1       0.457   0.640  -4.715  0.00  0.00    +0.229 C 
ENDBRANCH  16  18
ENDBRANCH  14  16
ENDBRANCH   5  14
ENDBRANCH   1   6
BRANCH   2  19
ATOM     19  C   UNL     1      -3.226   3.258   0.161  0.00  0.00    +0.091 C 
ATOM     20  C   UNL     1      -2.918   4.394   1.138  0.00  0.00    +0.015 C 
ATOM     21  C   UNL     1      -3.985   5.484   1.008  0.00  0.00    +0.018 C 
ATOM     22  C   UNL     1      -5.355   4.898   1.363  0.00  0.00    +0.109 C 
ATOM     23  N   UNL     1      -5.595   3.715   0.525  0.00  0.00    -0.175 NA
ATOM     24  C   UNL     1      -4.587   2.646   0.507  0.00  0.00    +0.122 C 
BRANCH  23  25
ATOM     25  S   UNL     1      -6.975   3.590  -0.382  0.00  0.00    +0.067 S 
ATOM     26  O   UNL     1      -7.190   2.203  -0.605  0.00  0.00    -0.152 OA
ATOM     27  O   UNL     1      -7.946   4.421   0.239  0.00  0.00    -0.152 OA
BRANCH  25  28
ATOM     28  C   UNL     1      -6.631   4.305  -1.955  0.00  0.00    +0.143 A 
ATOM     29  C   UNL     1      -6.145   3.713  -3.074  0.00  0.00    +0.036 A 
ATOM     30  C   UNL     1      -5.953   4.480  -4.208  0.00  0.00    +0.010 A 
ATOM     31  C   UNL     1      -6.256   5.800  -4.168  0.00  0.00    +0.047 A 
ATOM     32  S   UNL     1      -6.840   5.995  -2.492  0.00  0.00    -0.077 S 
ENDBRANCH  25  28
ENDBRANCH  23  25
ENDBRANCH   2  19
TORSDOF 7
