REMARK  Name = ZINC32672288
REMARK  12 active torsions:
REMARK  status: ('A' for Active; 'I' for Inactive)
REMARK    1  A    between atoms: C_1  and  C_2
REMARK    2  A    between atoms: C_2  and  O_3
REMARK    3  A    between atoms: O_3  and  C_4
REMARK    4  A    between atoms: C_7  and  C_12
REMARK    5  A    between atoms: C_9  and  O_10
REMARK    6  A    between atoms: O_10  and  C_11
REMARK    7  A    between atoms: C_14  and  C_17
REMARK    8  A    between atoms: C_17  and  O_18
REMARK    9  A    between atoms: O_18  and  C_19
REMARK   10  A    between atoms: C_19  and  C_21
REMARK   11  A    between atoms: C_21  and  C_22
REMARK   12  A    between atoms: C_22  and  N_23
REMARK                            x       y       z     vdW  Elec       q    Type
REMARK                         _______ _______ _______ _____ _____    ______ ____
ROOT
ATOM      1  C   UNL     1       0.065  -4.256  -0.023  0.00  0.00    +0.109 A 
ATOM      2  N   UNL     1       1.103  -5.080  -0.038  0.00  0.00    -0.241 NA
ATOM      3  C   UNL     1       0.938  -6.383  -0.044  0.00  0.00    +0.086 A 
ATOM      4  C   UNL     1      -0.316  -6.907  -0.036  0.00  0.00    +0.074 A 
ATOM      5  S   UNL     1      -1.298  -5.413  -0.009  0.00  0.00    -0.075 S 
ENDROOT
BRANCH   1   9
ATOM      6  C   UNL     1       0.002  -0.004   0.002  0.00  0.00    +0.162 A 
ATOM      7  C   UNL     1       1.213  -0.680  -0.019  0.00  0.00    +0.050 A 
ATOM      8  C   UNL     1       1.237  -2.059  -0.022  0.00  0.00    +0.014 A 
ATOM      9  C   UNL     1       0.041  -2.778  -0.014  0.00  0.00    +0.011 A 
ATOM     10  C   UNL     1      -1.178  -2.098   0.002  0.00  0.00    +0.060 A 
ATOM     11  C   UNL     1      -1.196  -0.715   0.010  0.00  0.00    +0.162 A 
BRANCH  11  12
ATOM     12  O   UNL     1      -2.381  -0.050   0.025  0.00  0.00    -0.491 OA
ATOM     13  C   UNL     1      -3.570  -0.843   0.032  0.00  0.00    +0.277 C 
ENDBRANCH  11  12
BRANCH   6  14
ATOM     14  O   UNL     1      -0.016   1.355   0.009  0.00  0.00    -0.489 OA
BRANCH  14  16
ATOM     15  C   UNL     1       1.027   3.535   0.011  0.00  0.00    +0.048 C 
ATOM     16  C   UNL     1       1.248   2.021   0.001  0.00  0.00    +0.226 C 
ENDBRANCH  14  16
ENDBRANCH   6  14
ENDBRANCH   1   9
BRANCH   3  17
ATOM     17  C   UNL     1       2.137  -7.295  -0.062  0.00  0.00    +0.288 C 
BRANCH  17  18
ATOM     18  O   UNL     1       1.694  -8.678  -0.067  0.00  0.00    -0.458 OA
BRANCH  18  19
ATOM     19  C   UNL     1       2.646  -9.623  -0.082  0.00  0.00    +0.309 C 
ATOM     20  O   UNL     1       3.812  -9.306  -0.091  0.00  0.00    -0.251 OA
BRANCH  19  21
ATOM     21  C   UNL     1       2.261 -11.080  -0.087  0.00  0.00    +0.144 C 
BRANCH  21  22
ATOM     22  C   UNL     1       3.526 -11.942  -0.105  0.00  0.00    +0.158 C 
BRANCH  22  23
ATOM     23  N   UNL     1       3.152 -13.358  -0.111  0.00  0.00    -0.225 N 
ATOM     24  C   UNL     1       2.900 -13.983   1.055  0.00  0.00    +0.267 A 
ATOM     25  O   UNL     1       2.984 -13.372   2.102  0.00  0.00    -0.266 OA
ATOM     26  C   UNL     1       2.518 -15.410   1.061  0.00  0.00    +0.077 A 
ATOM     27  C   UNL     1       2.435 -16.070  -0.108  0.00  0.00    +0.079 A 
ATOM     28  C   UNL     1       2.725 -15.346  -1.364  0.00  0.00    +0.287 A 
ATOM     29  O   UNL     1       2.655 -15.925  -2.430  0.00  0.00    -0.264 OA
ATOM     30  N   UNL     1       3.066 -14.044  -1.326  0.00  0.00    -0.126 NA
ENDBRANCH  22  23
ENDBRANCH  21  22
ENDBRANCH  19  21
ENDBRANCH  18  19
ENDBRANCH  17  18
ENDBRANCH   3  17
TORSDOF 10
