REMARK  Name = ZINC36077527
REMARK  8 active torsions:
REMARK  status: ('A' for Active; 'I' for Inactive)
REMARK    1  A    between atoms: C_1  and  C_2
REMARK    2  A    between atoms: C_5  and  C_8
REMARK    3  A    between atoms: C_9  and  N_28
REMARK    4  A    between atoms: N_12  and  C_13
REMARK    5  A    between atoms: N_19  and  C_20
REMARK    6  A    between atoms: C_20  and  C_21
REMARK    7  A    between atoms: C_21  and  C_22
REMARK    8  A    between atoms: C_29  and  C_31
REMARK                            x       y       z     vdW  Elec       q    Type
REMARK                         _______ _______ _______ _____ _____    ______ ____
ROOT
ATOM      1  C   UNL     1       0.144  -4.386   0.008  0.00  0.00    +0.079 A 
ATOM      2  C   UNL     1      -0.768  -5.086  -0.743  0.00  0.00    +0.099 A 
ATOM      3  S   UNL     1      -0.297  -6.767  -0.357  0.00  0.00    -0.038 S 
ATOM      4  C   UNL     1       1.049  -6.378   0.751  0.00  0.00    +0.145 A 
ATOM      5  N   UNL     1       1.891  -7.237   1.443  0.00  0.00    -0.295 N 
ATOM      6  N   UNL     1       1.037  -5.059   0.735  0.00  0.00    -0.321 N 
ATOM      7  H   UNL     1       2.529  -6.882   2.081  0.00  0.00    +0.154 HD
ENDROOT
BRANCH   1  12
ATOM      8  C   UNL     1       0.130   1.371  -0.001  0.00  0.00    +0.044 C 
ATOM      9  C   UNL     1       0.134  -0.136   0.002  0.00  0.00    -0.050 A 
ATOM     10  C   UNL     1       1.274  -0.823  -0.374  0.00  0.00    +0.004 A 
ATOM     11  C   UNL     1       1.284  -2.202  -0.374  0.00  0.00    +0.010 A 
ATOM     12  C   UNL     1       0.141  -2.905   0.006  0.00  0.00    +0.001 A 
ATOM     13  C   UNL     1      -1.007  -2.207   0.384  0.00  0.00    +0.010 A 
ATOM     14  C   UNL     1      -1.002  -0.827   0.385  0.00  0.00    +0.004 A 
ENDBRANCH   1  12
BRANCH   5  15
ATOM     15  C   UNL     1       1.819  -8.615   1.220  0.00  0.00    +0.033 A 
ATOM     16  C   UNL     1       1.520  -9.101  -0.047  0.00  0.00    +0.023 A 
ATOM     17  C   UNL     1       1.450 -10.463  -0.264  0.00  0.00    +0.002 A 
ATOM     18  C   UNL     1       1.677 -11.343   0.778  0.00  0.00    +0.000 A 
ATOM     19  C   UNL     1       1.974 -10.863   2.041  0.00  0.00    +0.002 A 
ATOM     20  C   UNL     1       2.052  -9.502   2.263  0.00  0.00    +0.023 A 
ENDBRANCH   5  15
BRANCH   2  21
ATOM     21  N   UNL     1      -1.782  -4.616  -1.577  0.00  0.00    -0.274 N 
ATOM     22  C   UNL     1      -2.575  -5.487  -2.231  0.00  0.00    +0.255 C 
ATOM     23  O   UNL     1      -2.407  -6.685  -2.093  0.00  0.00    -0.269 OA
ATOM     24  H   UNL     1      -1.915  -3.662  -1.687  0.00  0.00    +0.156 HD
BRANCH  22  25
ATOM     25  C   UNL     1      -3.640  -4.993  -3.107  0.00  0.00    +0.074 A 
ATOM     26  C   UNL     1      -4.560  -5.711  -3.857  0.00  0.00    +0.021 A 
ATOM     27  C   UNL     1      -5.448  -4.961  -4.590  0.00  0.00    +0.008 A 
ATOM     28  C   UNL     1      -5.372  -3.609  -4.535  0.00  0.00    +0.046 A 
ATOM     29  S   UNL     1      -4.098  -3.311  -3.481  0.00  0.00    -0.092 S 
ENDBRANCH  22  25
ENDBRANCH   2  21
BRANCH   6  30
ATOM     30  C   UNL     1       2.018  -4.321   1.534  0.00  0.00    +0.129 C 
BRANCH  30  31
ATOM     31  C   UNL     1       1.398  -3.944   2.881  0.00  0.00    +0.057 C 
BRANCH  31  32
ATOM     32  C   UNL     1       2.363  -3.083   3.655  0.00  0.00    -0.046 A 
ATOM     33  C   UNL     1       3.288  -3.667   4.499  0.00  0.00    +0.004 A 
ATOM     34  C   UNL     1       4.173  -2.877   5.208  0.00  0.00    +0.000 A 
ATOM     35  C   UNL     1       4.133  -1.502   5.073  0.00  0.00    +0.000 A 
ATOM     36  C   UNL     1       3.209  -0.917   4.228  0.00  0.00    +0.000 A 
ATOM     37  C   UNL     1       2.326  -1.708   3.515  0.00  0.00    +0.004 A 
ENDBRANCH  31  32
ENDBRANCH  30  31
ENDBRANCH   6  30
TORSDOF 7
