REMARK  Name = ZINC39677416
REMARK  4 active torsions:
REMARK  status: ('A' for Active; 'I' for Inactive)
REMARK    1  A    between atoms: C_6  and  C_7
REMARK    2  A    between atoms: C_7  and  N_8
REMARK    3  A    between atoms: C_9  and  C_11
REMARK    4  A    between atoms: C_22  and  C_24
REMARK                            x       y       z     vdW  Elec       q    Type
REMARK                         _______ _______ _______ _____ _____    ______ ____
ROOT
ATOM      1  C   UNL     1      -3.622  -1.440  -2.650  0.00  0.00    +0.100 C 
ATOM      2  C   UNL     1      -3.869  -0.263  -3.620  0.00  0.00    +0.121 C 
ATOM      3  N   UNL     1      -4.999  -0.708  -4.468  0.00  0.00    -0.296 N 
ATOM      4  C   UNL     1      -5.905  -1.417  -3.533  0.00  0.00    +0.115 C 
ATOM      5  C   UNL     1      -4.961  -2.194  -2.595  0.00  0.00    -0.004 C 
ATOM      6  C   UNL     1      -5.512  -2.191  -1.172  0.00  0.00    -0.010 C 
ATOM      7  C   UNL     1      -6.813  -2.996  -1.131  0.00  0.00    -0.082 C 
ATOM      8  N   UNL     1      -6.554  -4.372  -1.573  0.00  0.00    +0.379 N 
ATOM      9  C   UNL     1      -6.114  -4.372  -2.974  0.00  0.00    -0.082 C 
ATOM     10  C   UNL     1      -4.782  -3.625  -3.093  0.00  0.00    -0.010 C 
ATOM     11  C   UNL     1      -5.166  -0.513  -5.792  0.00  0.00    +0.247 C 
ATOM     12  O   UNL     1      -4.271  -0.023  -6.451  0.00  0.00    -0.270 OA
ATOM     13  H   UNL     1      -5.835  -4.779  -0.996  0.00  0.00    -0.086 HD
ATOM     14  H   UNL     1      -7.399  -4.916  -1.488  0.00  0.00    -0.086 HD
ENDROOT
BRANCH  11  15
ATOM     15  C   UNL     1      -6.438  -0.896  -6.441  0.00  0.00    +0.042 A 
ATOM     16  C   UNL     1      -7.597  -1.045  -5.678  0.00  0.00    +0.051 A 
ATOM     17  C   UNL     1      -8.783  -1.403  -6.290  0.00  0.00    +0.127 A 
ATOM     18  C   UNL     1      -8.823  -1.614  -7.658  0.00  0.00    +0.076 A 
ATOM     19  C   UNL     1      -7.676  -1.467  -8.421  0.00  0.00    +0.127 A 
ATOM     20  C   UNL     1      -6.486  -1.104  -7.820  0.00  0.00    +0.051 A 
ATOM     21  F   UNL     1      -7.722  -1.674  -9.755  0.00  0.00    -0.205 F 
ATOM     22  F   UNL     1      -9.905  -1.549  -5.552  0.00  0.00    -0.205 F 
ENDBRANCH  11  15
BRANCH   1  24
ATOM     23  N   UNL     1      -2.444  -1.649  -0.485  0.00  0.00    -0.311 N 
ATOM     24  C   UNL     1      -3.253  -0.925  -1.283  0.00  0.00    +0.218 C 
ATOM     25  O   UNL     1      -3.685   0.142  -0.900  0.00  0.00    -0.275 OA
ATOM     26  H   UNL     1      -2.099  -2.502  -0.791  0.00  0.00    +0.149 HD
BRANCH  23  27
ATOM     27  C   UNL     1      -2.086  -1.148   0.844  0.00  0.00    +0.139 C 
BRANCH  27  33
ATOM     28  C   UNL     1       0.192  -2.039   1.374  0.00  0.00    +0.009 A 
ATOM     29  C   UNL     1       1.027  -2.946   1.997  0.00  0.00    +0.050 A 
ATOM     30  C   UNL     1       0.493  -3.959   2.779  0.00  0.00    +0.162 A 
ATOM     31  C   UNL     1      -0.885  -4.059   2.935  0.00  0.00    +0.162 A 
ATOM     32  C   UNL     1      -1.718  -3.146   2.306  0.00  0.00    +0.054 A 
ATOM     33  C   UNL     1      -1.178  -2.139   1.527  0.00  0.00    -0.027 A 
ATOM     34  O   UNL     1      -1.430  -5.041   3.704  0.00  0.00    -0.485 OA
ATOM     35  C   UNL     1      -0.588  -6.157   4.014  0.00  0.00    +0.270 C 
ATOM     36  C   UNL     1       0.779  -5.619   4.457  0.00  0.00    +0.270 C 
ATOM     37  O   UNL     1       1.328  -4.848   3.383  0.00  0.00    -0.485 OA
ENDBRANCH  27  33
ENDBRANCH  23  27
ENDBRANCH   1  24
TORSDOF 4
