REMARK  Name = ZINC19943806
REMARK  9 active torsions:
REMARK  status: ('A' for Active; 'I' for Inactive)
REMARK    1  A    between atoms: C_1  and  C_2
REMARK    2  A    between atoms: C_3  and  C_32
REMARK    3  A    between atoms: C_4  and  C_20
REMARK    4  A    between atoms: C_10  and  C_15
REMARK    5  A    between atoms: C_22  and  N_29
REMARK    6  A    between atoms: C_24  and  O_26
REMARK    7  A    between atoms: O_26  and  C_27
REMARK    8  A    between atoms: C_32  and  O_34
REMARK    9  A    between atoms: O_34  and  C_35
REMARK                            x       y       z     vdW  Elec       q    Type
REMARK                         _______ _______ _______ _____ _____    ______ ____
ROOT
ATOM      1  C   UNL     1       7.399   1.901  -2.902  0.00  0.00    +0.061 C 
ATOM      2  C   UNL     1       6.444   2.754  -2.107  0.00  0.00    +0.016 C 
ATOM      3  C   UNL     1       6.103   2.389  -0.860  0.00  0.00    +0.065 C 
ATOM      4  C   UNL     1       5.149   3.209  -0.041  0.00  0.00    +0.092 C 
ATOM      5  C   UNL     1       5.016   4.603  -0.603  0.00  0.00    +0.024 C 
ATOM      6  C   UNL     1       5.399   4.876  -1.868  0.00  0.00    +0.016 C 
ATOM      7  N   UNL     1       5.931   3.894  -2.660  0.00  0.00    -0.321 N 
ATOM      8  C   UNL     1       5.251   6.263  -2.442  0.00  0.00    +0.060 C 
ATOM      9  C   UNL     1       5.396   7.299  -1.326  0.00  0.00    +0.039 C 
ATOM     10  C   UNL     1       4.330   7.020  -0.261  0.00  0.00    +0.088 C 
ATOM     11  C   UNL     1       4.484   5.605   0.227  0.00  0.00    +0.162 C 
ATOM     12  O   UNL     1       4.141   5.324   1.358  0.00  0.00    -0.292 OA
ATOM     13  H   UNL     1       5.942   4.029  -3.752  0.00  0.00    +0.152 HD
ENDROOT
BRANCH   4  14
ATOM     14  C   UNL     1       3.797   2.544  -0.041  0.00  0.00    -0.029 A 
ATOM     15  C   UNL     1       3.130   2.338  -1.234  0.00  0.00    +0.041 A 
ATOM     16  C   UNL     1       1.889   1.729  -1.240  0.00  0.00    +0.177 A 
ATOM     17  C   UNL     1       1.311   1.323  -0.047  0.00  0.00    +0.250 A 
ATOM     18  C   UNL     1       1.981   1.535   1.154  0.00  0.00    +0.169 A 
ATOM     19  C   UNL     1       3.227   2.142   1.152  0.00  0.00    +0.054 A 
ATOM     20  O   UNL     1       0.090   0.724  -0.051  0.00  0.00    -0.282 OA
BRANCH  16  21
ATOM     21  N   UNL     1       1.177   1.510  -2.519  0.00  0.00    +0.060 N 
ATOM     22  O   UNL     1       1.685   1.867  -3.567  0.00  0.00    -0.126 OA
ATOM     23  O   UNL     1       0.084   0.974  -2.524  0.00  0.00    -0.126 OA
ENDBRANCH  16  21
BRANCH  18  24
ATOM     24  O   UNL     1       1.415   1.144   2.327  0.00  0.00    -0.491 OA
ATOM     25  C   UNL     1       2.160   1.393   3.521  0.00  0.00    +0.277 C 
ENDBRANCH  18  24
ENDBRANCH   4  14
BRANCH   9  26
ATOM     26  C   UNL     1       5.198   8.683  -1.890  0.00  0.00    -0.006 A 
ATOM     27  C   UNL     1       6.057   9.731  -1.902  0.00  0.00    +0.011 A 
ATOM     28  C   UNL     1       5.657  10.919  -2.483  0.00  0.00    +0.008 A 
ATOM     29  C   UNL     1       4.416  11.002  -3.022  0.00  0.00    +0.045 A 
ATOM     30  S   UNL     1       3.773   9.364  -2.723  0.00  0.00    -0.101 S 
ENDBRANCH   9  26
BRANCH   3  31
ATOM     31  C   UNL     1       6.652   1.208  -0.307  0.00  0.00    +0.337 C 
ATOM     32  O   UNL     1       7.342   0.478  -0.995  0.00  0.00    -0.245 OA
BRANCH  31  33
ATOM     33  O   UNL     1       6.413   0.892   0.983  0.00  0.00    -0.465 OA
ATOM     34  C   UNL     1       7.000  -0.315   1.474  0.00  0.00    +0.280 C 
ENDBRANCH  31  33
ENDBRANCH   3  31
TORSDOF 6
