REMARK  Name = ZINC39324246
REMARK  8 active torsions:
REMARK  status: ('A' for Active; 'I' for Inactive)
REMARK    1  A    between atoms: C_1  and  C_2
REMARK    2  A    between atoms: C_2  and  C_3
REMARK    3  A    between atoms: C_2  and  C_4
REMARK    4  A    between atoms: C_2  and  C_5
REMARK    5  A    between atoms: C_12  and  N_29
REMARK    6  A    between atoms: C_13  and  C_27
REMARK    7  A    between atoms: C_14  and  C_16
REMARK    8  A    between atoms: C_19  and  N_22
REMARK                            x       y       z     vdW  Elec       q    Type
REMARK                         _______ _______ _______ _____ _____    ______ ____
ROOT
ATOM      1  C   UNL     1       1.132  -0.394  -1.437  0.00  0.00    +0.049 A 
ATOM      2  C   UNL     1       1.131  -1.696  -1.761  0.00  0.00    +0.050 A 
ATOM      3  C   UNL     1       1.845  -1.847  -2.970  0.00  0.00    +0.245 A 
ATOM      4  N   UNL     1       2.255  -0.670  -3.346  0.00  0.00    -0.135 NA
ATOM      5  N   UNL     1       1.814   0.268  -2.400  0.00  0.00    -0.277 N 
ATOM      6  H   UNL     1       1.973   1.225  -2.430  0.00  0.00    +0.189 HD
ATOM      7  O   UNL     1       2.016  -3.061  -3.559  0.00  0.00    -0.421 OA
ATOM      8  C   UNL     1       1.260  -4.082  -3.108  0.00  0.00    +0.201 C 
ATOM      9  C   UNL     1       0.546  -4.058  -1.964  0.00  0.00    +0.098 C 
ATOM     10  C   UNL     1       0.515  -2.867  -1.039  0.00  0.00    +0.101 C 
ENDROOT
BRANCH  10  11
ATOM     11  C   UNL     1       1.305  -3.169   0.208  0.00  0.00    -0.034 A 
ATOM     12  C   UNL     1       2.687  -3.198   0.159  0.00  0.00    +0.006 A 
ATOM     13  C   UNL     1       3.414  -3.475   1.299  0.00  0.00    +0.023 A 
ATOM     14  C   UNL     1       2.756  -3.725   2.497  0.00  0.00    +0.030 A 
ATOM     15  C   UNL     1       1.368  -3.695   2.543  0.00  0.00    +0.023 A 
ATOM     16  C   UNL     1       0.647  -3.412   1.400  0.00  0.00    +0.006 A 
BRANCH  14  17
ATOM     17  N   UNL     1       3.489  -4.006   3.653  0.00  0.00    -0.330 N 
ATOM     18  C   UNL     1       4.955  -4.063   3.745  0.00  0.00    +0.105 C 
ATOM     19  C   UNL     1       5.309  -4.430   5.202  0.00  0.00    +0.020 C 
ATOM     20  C   UNL     1       4.013  -5.114   5.712  0.00  0.00    +0.020 C 
ATOM     21  C   UNL     1       2.920  -4.288   4.983  0.00  0.00    +0.105 C 
ENDBRANCH  14  17
ENDBRANCH  10  11
BRANCH   1  23
ATOM     22  C   UNL     1       0.610   1.744  -0.294  0.00  0.00    +0.017 C 
ATOM     23  C   UNL     1       0.483   0.221  -0.223  0.00  0.00    +0.004 C 
ATOM     24  C   UNL     1       1.178  -0.291   1.040  0.00  0.00    +0.017 C 
ATOM     25  C   UNL     1      -0.996  -0.167  -0.184  0.00  0.00    +0.017 C 
ENDBRANCH   1  23
BRANCH   8  26
ATOM     26  N   UNL     1       1.213  -5.225  -3.866  0.00  0.00    -0.328 N 
ATOM     27  H   UNL     1       1.714  -5.279  -4.695  0.00  0.00    +0.145 HD
ATOM     28  H   UNL     1       0.680  -5.980  -3.572  0.00  0.00    +0.145 HD
ENDBRANCH   8  26
BRANCH   9  29
ATOM     29  C   UNL     1      -0.217  -5.216  -1.610  0.00  0.00    +0.101 C 
ATOM     30  N   UNL     1      -0.823  -6.136  -1.330  0.00  0.00    -0.191 NA
ENDBRANCH   9  29
TORSDOF 5
