REMARK  Name = ZINC61630942
REMARK  6 active torsions:
REMARK  status: ('A' for Active; 'I' for Inactive)
REMARK    1  A    between atoms: C_1  and  C_2
REMARK    2  A    between atoms: N_5  and  C_11
REMARK    3  A    between atoms: C_6  and  C_10
REMARK    4  A    between atoms: C_11  and  C_12
REMARK    5  A    between atoms: C_16  and  N_18
REMARK    6  A    between atoms: N_18  and  N_19
REMARK                            x       y       z     vdW  Elec       q    Type
REMARK                         _______ _______ _______ _____ _____    ______ ____
ROOT
ATOM      1  C   UNL     1      -3.384  -2.273  -1.303  0.00  0.00    +0.076 A 
ATOM      2  C   UNL     1      -4.093  -1.103  -1.495  0.00  0.00    +0.064 A 
ATOM      3  C   UNL     1      -4.659  -0.847  -2.738  0.00  0.00    +0.025 A 
ATOM      4  C   UNL     1      -4.489  -1.780  -3.745  0.00  0.00    +0.046 A 
ATOM      5  C   UNL     1      -3.762  -2.936  -3.482  0.00  0.00    +0.132 A 
ATOM      6  N   UNL     1      -3.234  -3.142  -2.285  0.00  0.00    -0.233 NA
ATOM      7 CL   UNL     1      -4.277   0.035  -0.197  0.00  0.00    -0.082 Cl
ENDROOT
BRANCH   5   8
ATOM      8  N   UNL     1      -3.584  -3.882  -4.485  0.00  0.00    -0.268 N 
ATOM      9  H   UNL     1      -3.966  -3.734  -5.364  0.00  0.00    +0.167 HD
BRANCH   8  10
ATOM     10  N   UNL     1      -2.871  -5.020  -4.233  0.00  0.00    -0.255 NA
ATOM     11  H   UNL     1      -3.257  -5.522  -3.447  0.00  0.00    +0.140 HD
ATOM     12  H   UNL     1      -2.827  -5.608  -5.051  0.00  0.00    +0.140 HD
ENDBRANCH   8  10
ENDBRANCH   5   8
BRANCH   1  13
ATOM     13  C   UNL     1      -2.768  -2.557   0.042  0.00  0.00    +0.141 C 
BRANCH  13  17
ATOM     14  C   UNL     1      -0.019   1.526   0.010  0.00  0.00    +0.039 C 
ATOM     15  C   UNL     1       0.002  -0.004   0.002  0.00  0.00    +0.129 C 
ATOM     16  C   UNL     1      -1.434  -0.535   0.015  0.00  0.00    +0.116 C 
ATOM     17  N   UNL     1      -1.407  -2.003   0.085  0.00  0.00    -0.289 NA
ATOM     18  C   UNL     1      -0.692  -2.455   1.287  0.00  0.00    +0.080 C 
ATOM     19  C   UNL     1       0.736  -1.905   1.261  0.00  0.00    +0.178 C 
ATOM     20  O   UNL     1       0.692  -0.479   1.161  0.00  0.00    -0.374 OA
ATOM     21  C   UNL     1      -1.415  -1.943   2.534  0.00  0.00    +0.026 C 
ENDBRANCH  13  17
ENDBRANCH   1  13
TORSDOF 4
