REMARK  Name = ZINC35778866
REMARK  13 active torsions:
REMARK  status: ('A' for Active; 'I' for Inactive)
REMARK    1  A    between atoms: C_1  and  O_2
REMARK    2  A    between atoms: O_2  and  C_3
REMARK    3  A    between atoms: C_8  and  O_9
REMARK    4  A    between atoms: O_9  and  C_10
REMARK    5  A    between atoms: C_10  and  C_11
REMARK    6  A    between atoms: C_21  and  C_23
REMARK    7  A    between atoms: C_23  and  N_24
REMARK    8  A    between atoms: N_24  and  C_25
REMARK    9  A    between atoms: N_24  and  C_28
REMARK   10  A    between atoms: C_25  and  C_26
REMARK   11  A    between atoms: C_28  and  C_29
REMARK   12  A    between atoms: C_29  and  C_31
REMARK   13  A    between atoms: C_29  and  O_37
REMARK                            x       y       z     vdW  Elec       q    Type
REMARK                         _______ _______ _______ _____ _____    ______ ____
ROOT
ATOM      1  C   UNL     1       3.182  -6.184  -0.795  0.00  0.00    +0.144 C 
ATOM      2  C   UNL     1       4.335  -5.743  -1.694  0.00  0.00    -0.014 A 
ATOM      3  C   UNL     1       4.687  -6.409  -2.867  0.00  0.00    +0.013 A 
ATOM      4  C   UNL     1       5.719  -5.960  -3.617  0.00  0.00    +0.046 A 
ATOM      5  S   UNL     1       6.262  -4.538  -2.681  0.00  0.00    -0.101 S 
ATOM      6  C   UNL     1       5.078  -4.652  -1.365  0.00  0.00    -0.004 A 
ATOM      7  C   UNL     1       4.929  -3.765  -0.172  0.00  0.00    +0.061 C 
ATOM      8  C   UNL     1       3.547  -4.010   0.454  0.00  0.00    +0.113 C 
ATOM      9  N   UNL     1       3.301  -5.461   0.478  0.00  0.00    -0.292 N 
ATOM     10  C   UNL     1       3.188  -6.117   1.650  0.00  0.00    +0.200 C 
ATOM     11  O   UNL     1       2.986  -7.313   1.658  0.00  0.00    -0.278 OA
ENDROOT
BRANCH   1  12
ATOM     12  C   UNL     1       1.847  -5.843  -1.461  0.00  0.00    +0.256 C 
BRANCH  12  13
ATOM     13  O   UNL     1       1.823  -4.455  -1.797  0.00  0.00    -0.486 OA
BRANCH  13  19
ATOM     14  C   UNL     1       0.607  -2.643  -2.756  0.00  0.00    +0.161 A 
ATOM     15  C   UNL     1      -0.539  -2.170  -3.376  0.00  0.00    +0.049 A 
ATOM     16  C   UNL     1      -1.589  -3.030  -3.636  0.00  0.00    +0.004 A 
ATOM     17  C   UNL     1      -1.500  -4.363  -3.278  0.00  0.00    +0.004 A 
ATOM     18  C   UNL     1      -0.360  -4.840  -2.659  0.00  0.00    +0.049 A 
ATOM     19  C   UNL     1       0.699  -3.985  -2.401  0.00  0.00    +0.162 A 
BRANCH  14  21
ATOM     20  C   UNL     1       1.476  -0.433  -2.892  0.00  0.00    +0.277 C 
ATOM     21  O   UNL     1       1.641  -1.798  -2.500  0.00  0.00    -0.491 OA
ENDBRANCH  14  21
ENDBRANCH  13  19
ENDBRANCH  12  13
ENDBRANCH   1  12
BRANCH  10  22
ATOM     22  C   UNL     1       3.312  -5.365   2.950  0.00  0.00    +0.019 C 
BRANCH  22  23
ATOM     23  N   UNL     1       3.010  -6.267   4.069  0.00  0.00    +0.390 N 
ATOM     24  H   UNL     1       3.582  -7.095   3.997  0.00  0.00    -0.081 HD
BRANCH  23  25
ATOM     25  C   UNL     1       1.592  -6.647   4.022  0.00  0.00    -0.051 C 
BRANCH  25  26
ATOM     26  C   UNL     1       0.737  -5.424   4.232  0.00  0.00    -0.053 C 
ATOM     27  C   UNL     1      -0.175  -5.102   3.348  0.00  0.00    +0.002 C 
ENDBRANCH  25  26
ENDBRANCH  23  25
BRANCH  23  28
ATOM     28  C   UNL     1       3.292  -5.584   5.338  0.00  0.00    -0.041 C 
BRANCH  28  29
ATOM     29  C   UNL     1       3.144  -6.576   6.494  0.00  0.00    +0.128 C 
BRANCH  29  30
ATOM     30  C   UNL     1       3.607  -5.928   7.774  0.00  0.00    -0.021 A 
ATOM     31  C   UNL     1       2.733  -5.151   8.511  0.00  0.00    +0.006 A 
ATOM     32  C   UNL     1       3.157  -4.556   9.684  0.00  0.00    +0.000 A 
ATOM     33  C   UNL     1       4.455  -4.740  10.122  0.00  0.00    +0.000 A 
ATOM     34  C   UNL     1       5.329  -5.518   9.386  0.00  0.00    +0.000 A 
ATOM     35  C   UNL     1       4.904  -6.116   8.214  0.00  0.00    +0.006 A 
ENDBRANCH  29  30
BRANCH  29  36
ATOM     36  O   UNL     1       1.773  -6.957   6.622  0.00  0.00    -0.389 OA
ATOM     37  H   UNL     1       1.174  -6.219   6.801  0.00  0.00    +0.210 HD
ENDBRANCH  29  36
ENDBRANCH  28  29
ENDBRANCH  23  28
ENDBRANCH  22  23
ENDBRANCH  10  22
TORSDOF 12
