REMARK  Name = ZINC63830713
REMARK  10 active torsions:
REMARK  status: ('A' for Active; 'I' for Inactive)
REMARK    1  A    between atoms: C_1  and  C_2
REMARK    2  A    between atoms: C_13  and  C_15
REMARK    3  A    between atoms: C_15  and  C_16
REMARK    4  A    between atoms: N_18  and  C_19
REMARK    5  A    between atoms: C_19  and  C_20
REMARK    6  A    between atoms: C_20  and  C_22
REMARK    7  A    between atoms: C_20  and  C_31
REMARK    8  A    between atoms: C_25  and  N_28
REMARK    9  A    between atoms: N_28  and  C_29
REMARK   10  A    between atoms: N_28  and  C_30
REMARK                            x       y       z     vdW  Elec       q    Type
REMARK                         _______ _______ _______ _____ _____    ______ ____
ROOT
ATOM      1  C   UNL     1       0.323  -2.762   5.973  0.00  0.00    +0.064 C 
ENDROOT
BRANCH   1   2
ATOM      2  C   UNL     1      -0.925  -2.101   6.498  0.00  0.00    -0.033 C 
ATOM      3  C   UNL     1      -2.075  -2.711   6.865  0.00  0.00    -0.000 A 
ATOM      4  C   UNL     1      -2.493  -4.118   6.883  0.00  0.00    +0.010 A 
ATOM      5  C   UNL     1      -3.737  -4.428   7.313  0.00  0.00    +0.001 A 
ATOM      6  C   UNL     1      -4.636  -3.441   7.740  0.00  0.00    +0.002 A 
ATOM      7  C   UNL     1      -4.325  -2.127   7.753  0.00  0.00    +0.026 A 
ATOM      8  C   UNL     1      -3.043  -1.688   7.322  0.00  0.00    +0.043 A 
ATOM      9  N   UNL     1      -2.511  -0.492   7.241  0.00  0.00    -0.380 N 
ATOM     10  C   UNL     1      -1.143  -0.622   6.728  0.00  0.00    +0.145 C 
ATOM     11  H   UNL     1      -2.949   0.339   7.483  0.00  0.00    +0.160 HD
ENDBRANCH   1   2
BRANCH   1  12
ATOM     12  C   UNL     1       1.476  -2.464   6.896  0.00  0.00    -0.039 A 
ATOM     13  C   UNL     1       1.856  -1.154   7.125  0.00  0.00    +0.006 A 
ATOM     14  C   UNL     1       2.912  -0.877   7.970  0.00  0.00    +0.023 A 
ATOM     15  C   UNL     1       3.593  -1.915   8.591  0.00  0.00    +0.029 A 
ATOM     16  C   UNL     1       3.209  -3.230   8.360  0.00  0.00    +0.023 A 
ATOM     17  C   UNL     1       2.149  -3.500   7.517  0.00  0.00    +0.006 A 
BRANCH  15  18
ATOM     18  N   UNL     1       4.662  -1.639   9.447  0.00  0.00    -0.336 N 
ATOM     19  C   UNL     1       5.147  -0.264   9.593  0.00  0.00    +0.129 C 
ATOM     20  C   UNL     1       5.299  -2.724  10.198  0.00  0.00    +0.129 C 
ENDBRANCH  15  18
ENDBRANCH   1  12
BRANCH   1  21
ATOM     21  C   UNL     1       0.636  -2.223   4.575  0.00  0.00    +0.116 C 
BRANCH  21  24
ATOM     22  C   UNL     1      -0.366  -2.251   2.355  0.00  0.00    +0.215 C 
ATOM     23  O   UNL     1       0.573  -1.596   1.955  0.00  0.00    -0.276 OA
ATOM     24  N   UNL     1      -0.429  -2.617   3.650  0.00  0.00    -0.314 N 
ATOM     25  H   UNL     1      -1.181  -3.141   3.970  0.00  0.00    +0.149 HD
BRANCH  22  26
ATOM     26  C   UNL     1      -1.462  -2.656   1.403  0.00  0.00    +0.123 C 
BRANCH  26  39
ATOM     27  C   UNL     1      -0.057   1.554   0.047  0.00  0.00    +0.109 C 
ATOM     28  C   UNL     1      -0.025   0.048   0.025  0.00  0.00    +0.217 C 
ATOM     29  O   UNL     1       1.038  -0.536   0.004  0.00  0.00    -0.276 OA
ATOM     30  N   UNL     1      -1.178  -0.651   0.027  0.00  0.00    -0.270 N 
ATOM     31  C   UNL     1      -2.397   0.016   0.045  0.00  0.00    +0.079 C 
ATOM     32  C   UNL     1      -3.457  -0.527  -0.563  0.00  0.00    +0.023 C 
ATOM     33  C   UNL     1      -3.318  -1.843  -1.217  0.00  0.00    -0.019 A 
ATOM     34  C   UNL     1      -4.303  -2.316  -2.084  0.00  0.00    +0.008 A 
ATOM     35  C   UNL     1      -4.141  -3.543  -2.696  0.00  0.00    +0.001 A 
ATOM     36  C   UNL     1      -3.009  -4.299  -2.452  0.00  0.00    +0.000 A 
ATOM     37  C   UNL     1      -2.031  -3.837  -1.587  0.00  0.00    +0.006 A 
ATOM     38  C   UNL     1      -2.184  -2.618  -0.965  0.00  0.00    -0.019 A 
ATOM     39  C   UNL     1      -1.149  -2.118   0.006  0.00  0.00    +0.120 C 
ENDBRANCH  26  39
ENDBRANCH  22  26
ENDBRANCH  21  24
ENDBRANCH   1  21
TORSDOF 7
