REMARK  Name = ZINC33592150
REMARK  12 active torsions:
REMARK  status: ('A' for Active; 'I' for Inactive)
REMARK    1  A    between atoms: C_1  and  C_2
REMARK    2  A    between atoms: C_2  and  N_3
REMARK    3  A    between atoms: N_6  and  C_9
REMARK    4  A    between atoms: C_9  and  C_11
REMARK    5  A    between atoms: C_9  and  C_18
REMARK    6  A    between atoms: C_14  and  C_17
REMARK    7  A    between atoms: C_20  and  C_33
REMARK    8  A    between atoms: C_21  and  C_32
REMARK    9  A    between atoms: C_30  and  O_31
REMARK   10  A    between atoms: C_33  and  O_35
REMARK   11  A    between atoms: O_35  and  C_36
REMARK   12  A    between atoms: C_36  and  C_37
REMARK                            x       y       z     vdW  Elec       q    Type
REMARK                         _______ _______ _______ _____ _____    ______ ____
ROOT
ATOM      1  C   UNL     1      -0.224  -0.517   1.401  0.00  0.00    +0.028 A 
ATOM      2  C   UNL     1       0.854  -1.036   2.133  0.00  0.00    +0.044 A 
ATOM      3  C   UNL     1       2.290  -1.219   1.841  0.00  0.00    +0.108 A 
ATOM      4  C   UNL     1       2.826  -1.779   2.961  0.00  0.00    +0.117 A 
ATOM      5  O   UNL     1       1.869  -1.947   3.880  0.00  0.00    -0.458 OA
ATOM      6  C   UNL     1       0.674  -1.516   3.428  0.00  0.00    +0.144 A 
ATOM      7  C   UNL     1      -0.615  -1.476   4.002  0.00  0.00    +0.029 A 
ATOM      8  C   UNL     1      -0.845  -1.950   5.303  0.00  0.00    +0.012 A 
ATOM      9  C   UNL     1      -2.100  -1.898   5.828  0.00  0.00    +0.001 A 
ATOM     10  C   UNL     1      -3.163  -1.381   5.092  0.00  0.00    +0.001 A 
ATOM     11  C   UNL     1      -2.975  -0.912   3.826  0.00  0.00    +0.012 A 
ATOM     12  C   UNL     1      -1.694  -0.951   3.252  0.00  0.00    +0.027 A 
ATOM     13  C   UNL     1      -1.472  -0.468   1.942  0.00  0.00    +0.130 A 
ATOM     14  C   UNL     1       4.275  -2.152   3.137  0.00  0.00    +0.087 C 
ENDROOT
BRANCH  13  15
ATOM     15  O   UNL     1      -2.506   0.042   1.222  0.00  0.00    -0.506 OA
ATOM     16  H   UNL     1      -3.514   0.082   1.660  0.00  0.00    +0.292 HD
ENDBRANCH  13  15
BRANCH   3  17
ATOM     17  C   UNL     1       2.994  -0.869   0.599  0.00  0.00    +0.343 C 
ATOM     18  O   UNL     1       3.486   0.235   0.469  0.00  0.00    -0.245 OA
BRANCH  17  19
ATOM     19  O   UNL     1       3.095  -1.773  -0.396  0.00  0.00    -0.461 OA
BRANCH  19  20
ATOM     20  C   UNL     1       3.804  -1.359  -1.593  0.00  0.00    +0.229 C 
ATOM     21  C   UNL     1       3.815  -2.508  -2.603  0.00  0.00    +0.048 C 
ENDBRANCH  19  20
ENDBRANCH  17  19
ENDBRANCH   3  17
BRANCH   1  22
ATOM     22  C   UNL     1       0.002  -0.004   0.002  0.00  0.00    +0.121 C 
BRANCH  22  26
ATOM     23  N   UNL     1      -2.108  -1.964  -3.088  0.00  0.00    +0.381 N 
ATOM     24  C   UNL     1      -2.039  -0.497  -3.125  0.00  0.00    -0.063 C 
ATOM     25  C   UNL     1      -0.872  -0.022  -2.256  0.00  0.00    +0.067 C 
ATOM     26  N   UNL     1      -1.061  -0.503  -0.881  0.00  0.00    -0.295 NA
ATOM     27  C   UNL     1      -1.129  -1.971  -0.844  0.00  0.00    +0.067 C 
ATOM     28  C   UNL     1      -2.297  -2.446  -1.713  0.00  0.00    -0.063 C 
ATOM     29  H   UNL     1      -1.150  -2.359  -3.458  0.00  0.00    -0.082 HD
BRANCH  23  31
ATOM     30  C   UNL     1      -3.380  -3.959  -3.723  0.00  0.00    -0.017 C 
ATOM     31  C   UNL     1      -3.171  -2.464  -3.971  0.00  0.00    -0.082 C 
ENDBRANCH  23  31
ENDBRANCH  22  26
BRANCH  22  32
ATOM     32  C   UNL     1      -0.018   1.503   0.010  0.00  0.00    -0.026 A 
ATOM     33  C   UNL     1      -1.225   2.178   0.020  0.00  0.00    +0.006 A 
ATOM     34  C   UNL     1      -1.244   3.560   0.032  0.00  0.00    +0.004 A 
ATOM     35  C   UNL     1      -0.056   4.267   0.025  0.00  0.00    -0.050 A 
ATOM     36  C   UNL     1       1.151   3.592   0.010  0.00  0.00    +0.004 A 
ATOM     37  C   UNL     1       1.169   2.210   0.003  0.00  0.00    +0.006 A 
ATOM     38  C   UNL     1      -0.076   5.774   0.034  0.00  0.00    +0.044 C 
ENDBRANCH  22  32
ENDBRANCH   1  22
TORSDOF 8
