REMARK  Name = ZINC03514615
REMARK  9 active torsions:
REMARK  status: ('A' for Active; 'I' for Inactive)
REMARK    1  A    between atoms: C_1  and  C_2
REMARK    2  A    between atoms: C_5  and  N_9
REMARK    3  A    between atoms: C_7  and  C_8
REMARK    4  A    between atoms: C_19  and  S_20
REMARK    5  A    between atoms: S_20  and  C_21
REMARK    6  A    between atoms: C_21  and  C_23
REMARK    7  A    between atoms: C_21  and  C_24
REMARK    8  A    between atoms: N_26  and  C_27
REMARK    9  A    between atoms: C_27  and  C_28
REMARK                            x       y       z     vdW  Elec       q    Type
REMARK                         _______ _______ _______ _____ _____    ______ ____
ROOT
ATOM      1  N   UNL     1      11.791  -3.685  -0.059  0.00  0.00    -0.255 N 
ATOM      2  C   UNL     1      11.982  -4.589  -1.048  0.00  0.00    +0.267 A 
ATOM      3  O   UNL     1      12.566  -5.636  -0.842  0.00  0.00    -0.267 OA
ATOM      4  C   UNL     1      11.464  -4.256  -2.382  0.00  0.00    +0.065 A 
ATOM      5  C   UNL     1      11.615  -5.118  -3.467  0.00  0.00    +0.015 A 
ATOM      6  C   UNL     1      11.114  -4.758  -4.688  0.00  0.00    +0.001 A 
ATOM      7  C   UNL     1      10.457  -3.546  -4.856  0.00  0.00    +0.002 A 
ATOM      8  C   UNL     1      10.294  -2.683  -3.810  0.00  0.00    +0.028 A 
ATOM      9  C   UNL     1      10.796  -3.021  -2.550  0.00  0.00    +0.079 A 
ATOM     10  N   UNL     1      10.657  -2.196  -1.486  0.00  0.00    -0.223 NA
ATOM     11  C   UNL     1      11.128  -2.515  -0.306  0.00  0.00    +0.177 A 
ENDROOT
BRANCH   1  16
ATOM     12  C   UNL     1      13.737  -4.771   5.160  0.00  0.00    +0.044 C 
ATOM     13  C   UNL     1      13.220  -4.483   3.774  0.00  0.00    -0.047 A 
ATOM     14  C   UNL     1      11.945  -4.881   3.416  0.00  0.00    +0.005 A 
ATOM     15  C   UNL     1      11.467  -4.614   2.148  0.00  0.00    +0.026 A 
ATOM     16  C   UNL     1      12.271  -3.954   1.229  0.00  0.00    +0.052 A 
ATOM     17  C   UNL     1      13.551  -3.555   1.592  0.00  0.00    +0.030 A 
ATOM     18  C   UNL     1      14.022  -3.820   2.863  0.00  0.00    -0.046 A 
ATOM     19  C   UNL     1      15.411  -3.388   3.257  0.00  0.00    +0.044 C 
ENDBRANCH   1  16
BRANCH  11  20
ATOM     20  S   UNL     1      10.903  -1.380   1.023  0.00  0.00    -0.075 S 
BRANCH  20  21
ATOM     21  C   UNL     1      10.011  -0.061   0.163  0.00  0.00    +0.137 C 
ATOM     22  C   UNL     1      10.921   0.564  -0.895  0.00  0.00    +0.029 C 
BRANCH  21  23
ATOM     23  C   UNL     1       9.595   0.994   1.155  0.00  0.00    +0.226 C 
ATOM     24  O   UNL     1      10.215   1.133   2.188  0.00  0.00    -0.275 OA
ATOM     25  N   UNL     1       8.534   1.783   0.895  0.00  0.00    -0.310 N 
ATOM     26  H   UNL     1       8.037   1.672   0.069  0.00  0.00    +0.149 HD
BRANCH  25  27
ATOM     27  C   UNL     1       8.129   2.809   1.859  0.00  0.00    +0.139 C 
BRANCH  27  28
ATOM     28  C   UNL     1       6.926   3.547   1.333  0.00  0.00    -0.027 A 
ATOM     29  C   UNL     1       5.654   3.094   1.631  0.00  0.00    +0.009 A 
ATOM     30  C   UNL     1       4.546   3.767   1.151  0.00  0.00    +0.050 A 
ATOM     31  C   UNL     1       4.709   4.899   0.368  0.00  0.00    +0.166 A 
ATOM     32  C   UNL     1       5.989   5.355   0.068  0.00  0.00    +0.167 A 
ATOM     33  C   UNL     1       7.095   4.676   0.553  0.00  0.00    +0.054 A 
ATOM     34  O   UNL     1       5.883   6.473  -0.708  0.00  0.00    -0.453 OA
ATOM     35  C   UNL     1       4.528   6.930  -0.541  0.00  0.00    +0.466 C 
ATOM     36  O   UNL     1       3.800   5.730  -0.220  0.00  0.00    -0.453 OA
ENDBRANCH  27  28
ENDBRANCH  25  27
ENDBRANCH  21  23
ENDBRANCH  20  21
ENDBRANCH  11  20
TORSDOF 6
