REMARK  Name = ZINC13577011
REMARK  6 active torsions:
REMARK  status: ('A' for Active; 'I' for Inactive)
REMARK    1  A    between atoms: C_1  and  C_2
REMARK    2  A    between atoms: C_2  and  C_3
REMARK    3  A    between atoms: C_3  and  C_4
REMARK    4  A    between atoms: C_4  and  C_5
REMARK    5  A    between atoms: C_5  and  C_6
REMARK    6  A    between atoms: C_6  and  N_7
REMARK                            x       y       z     vdW  Elec       q    Type
REMARK                         _______ _______ _______ _____ _____    ______ ____
ROOT
ATOM      1  N   UNL     1      -4.202  -4.630   0.017  0.00  0.00    -0.225 N 
ATOM      2  C   UNL     1      -4.803  -4.856   1.194  0.00  0.00    +0.240 C 
ATOM      3  O   UNL     1      -4.195  -4.630   2.218  0.00  0.00    -0.274 OA
ATOM      4  C   UNL     1      -6.207  -5.381   1.280  0.00  0.00    +0.146 C 
ATOM      5  C   UNL     1      -7.077  -4.397   2.068  0.00  0.00    +0.071 C 
ATOM      6  C   UNL     1      -8.424  -5.011   2.338  0.00  0.00    +0.057 A 
ATOM      7  C   UNL     1      -8.608  -6.387   2.338  0.00  0.00    +0.109 A 
ATOM      8  N   UNL     1      -9.816  -6.896   2.577  0.00  0.00    -0.329 N 
ATOM      9  C   UNL     1     -10.860  -6.106   2.815  0.00  0.00    +0.119 A 
ATOM     10  C   UNL     1     -12.122  -6.682   3.054  0.00  0.00    +0.045 A 
ATOM     11  C   UNL     1     -13.191  -5.874   3.299  0.00  0.00    +0.005 A 
ATOM     12  C   UNL     1     -13.018  -4.482   3.309  0.00  0.00    +0.018 A 
ATOM     13  C   UNL     1     -11.800  -3.947   3.077  0.00  0.00    +0.096 A 
ATOM     14  N   UNL     1     -10.723  -4.746   2.829  0.00  0.00    -0.269 N 
ATOM     15  C   UNL     1      -9.518  -4.185   2.594  0.00  0.00    +0.263 A 
ATOM     16  O   UNL     1      -9.388  -2.971   2.606  0.00  0.00    -0.267 OA
ATOM     17  N   UNL     1      -7.546  -7.248   2.088  0.00  0.00    -0.312 N 
ATOM     18  C   UNL     1      -6.202  -6.727   2.015  0.00  0.00    +0.099 C 
ATOM     19  C   UNL     1      -5.721  -6.477   3.475  0.00  0.00    +0.024 C 
ATOM     20  C   UNL     1      -5.650  -7.796   4.148  0.00  0.00    +0.002 C 
ATOM     21  C   UNL     1      -6.960  -8.553   4.212  0.00  0.00    +0.002 C 
ATOM     22  C   UNL     1      -7.040  -9.430   2.995  0.00  0.00    +0.019 C 
ATOM     23  C   UNL     1      -7.897  -8.693   1.913  0.00  0.00    +0.107 C 
ATOM     24  C   UNL     1      -6.787  -5.572  -0.093  0.00  0.00    +0.238 C 
ATOM     25  N   UNL     1      -6.082  -5.310  -1.203  0.00  0.00    -0.239 N 
ATOM     26  C   UNL     1      -4.823  -4.849  -1.151  0.00  0.00    +0.315 C 
ATOM     27  O   UNL     1      -4.230  -4.629  -2.188  0.00  0.00    -0.252 OA
ATOM     28  O   UNL     1      -7.925  -5.976  -0.201  0.00  0.00    -0.274 OA
ATOM     29  H   UNL     1      -9.936  -7.858   2.577  0.00  0.00    +0.168 HD
ATOM     30  H   UNL     1      -6.496  -5.454  -2.068  0.00  0.00    +0.159 HD
ENDROOT
BRANCH   1  31
ATOM     31  C   UNL     1      -2.827  -4.123   0.007  0.00  0.00    +0.118 C 
BRANCH  31  32
ATOM     32  C   UNL     1      -2.848  -2.593   0.015  0.00  0.00    +0.019 C 
BRANCH  32  33
ATOM     33  C   UNL     1      -1.413  -2.063   0.004  0.00  0.00    +0.002 C 
BRANCH  33  34
ATOM     34  C   UNL     1      -1.433  -0.534   0.013  0.00  0.00    -0.000 C 
BRANCH  34  36
ATOM     35  C   UNL     1      -0.019   1.526   0.010  0.00  0.00    +0.004 C 
ATOM     36  C   UNL     1       0.002  -0.004   0.002  0.00  0.00    -0.003 C 
ENDBRANCH  34  36
ENDBRANCH  33  34
ENDBRANCH  32  33
ENDBRANCH  31  32
ENDBRANCH   1  31
TORSDOF 5
