REMARK  Name = ZINC18118022
REMARK  6 active torsions:
REMARK  status: ('A' for Active; 'I' for Inactive)
REMARK    1  A    between atoms: C_1  and  C_2
REMARK    2  A    between atoms: C_5  and  N_9
REMARK    3  A    between atoms: C_6  and  C_8
REMARK    4  A    between atoms: C_15  and  C_24
REMARK    5  A    between atoms: C_15  and  C_25
REMARK    6  A    between atoms: C_21  and  C_23
REMARK                            x       y       z     vdW  Elec       q    Type
REMARK                         _______ _______ _______ _____ _____    ______ ____
ROOT
ATOM      1  N   UNL     1       0.059  -4.138  -0.021  0.00  0.00    -0.239 NA
ATOM      2  C   UNL     1      -0.038  -4.797  -1.170  0.00  0.00    +0.117 A 
ATOM      3  C   UNL     1      -0.139  -6.211  -1.322  0.00  0.00    +0.029 A 
ATOM      4  C   UNL     1      -0.270  -6.883  -2.508  0.00  0.00    +0.030 A 
ATOM      5  S   UNL     1      -0.249  -5.861  -3.845  0.00  0.00    -0.052 S 
ATOM      6  S   UNL     1      -0.074  -4.070  -2.802  0.00  0.00    -0.032 S 
ATOM      7  C   UNL     1      -0.438  -8.385  -2.612  0.00  0.00    +0.059 C 
ATOM      8  N   UNL     1       0.200  -9.016  -1.450  0.00  0.00    -0.334 N 
ATOM      9  C   UNL     1       0.045  -8.438  -0.186  0.00  0.00    +0.036 A 
ATOM     10  C   UNL     1      -0.112  -7.056  -0.067  0.00  0.00    +0.006 A 
ATOM     11  C   UNL     1      -0.244  -6.461   1.177  0.00  0.00    +0.011 A 
ATOM     12  C   UNL     1      -0.231  -7.255   2.311  0.00  0.00    +0.004 A 
ATOM     13  C   UNL     1      -0.088  -8.627   2.197  0.00  0.00    -0.049 A 
ATOM     14  C   UNL     1       0.050  -9.223   0.956  0.00  0.00    +0.027 A 
ATOM     15  C   UNL     1      -0.083  -9.480   3.439  0.00  0.00    +0.044 C 
ATOM     16  C   UNL     1      -1.927  -8.734  -2.631  0.00  0.00    +0.037 C 
ATOM     17  C   UNL     1       0.226  -8.887  -3.896  0.00  0.00    +0.037 C 
ATOM     18  H   UNL     1       0.723  -9.825  -1.558  0.00  0.00    +0.147 HD
ENDROOT
BRANCH   1  23
ATOM     19  C   UNL     1      -0.004   1.503   0.010  0.00  0.00    +0.044 C 
ATOM     20  C   UNL     1       0.012  -0.004   0.002  0.00  0.00    -0.050 A 
ATOM     21  C   UNL     1      -0.971  -0.700  -0.681  0.00  0.00    +0.005 A 
ATOM     22  C   UNL     1      -0.962  -2.078  -0.693  0.00  0.00    +0.028 A 
ATOM     23  C   UNL     1       0.044  -2.774  -0.014  0.00  0.00    +0.068 A 
ATOM     24  C   UNL     1       1.033  -2.063   0.674  0.00  0.00    -0.025 A 
ATOM     25  C   UNL     1       1.014  -0.685   0.672  0.00  0.00    +0.008 A 
ATOM     26  C   UNL     1       2.121  -2.803   1.410  0.00  0.00    +0.046 C 
ENDBRANCH   1  23
TORSDOF 1
