REMARK  Name = ZINC57640610
REMARK  14 active torsions:
REMARK  status: ('A' for Active; 'I' for Inactive)
REMARK    1  A    between atoms: C_1  and  C_2
REMARK    2  A    between atoms: C_2  and  C_3
REMARK    3  A    between atoms: C_10  and  C_15
REMARK    4  A    between atoms: C_15  and  N_16
REMARK    5  A    between atoms: N_16  and  C_17
REMARK    6  A    between atoms: N_16  and  C_26
REMARK    7  A    between atoms: C_17  and  C_18
REMARK    8  A    between atoms: C_23  and  O_24
REMARK    9  A    between atoms: O_24  and  C_25
REMARK   10  A    between atoms: C_26  and  C_28
REMARK   11  A    between atoms: C_26  and  C_30
REMARK   12  A    between atoms: C_28  and  C_29
REMARK   13  A    between atoms: N_34  and  C_35
REMARK   14  A    between atoms: C_35  and  C_36
REMARK                            x       y       z     vdW  Elec       q    Type
REMARK                         _______ _______ _______ _____ _____    ______ ____
ROOT
ATOM      1  N   UNL     1      -5.808  -3.774  -3.869  0.00  0.00    -0.284 NA
ENDROOT
BRANCH   1   2
ATOM      2  C   UNL     1      -5.377  -2.373  -3.768  0.00  0.00    +0.126 C 
BRANCH   2  10
ATOM      3  C   UNL     1       0.590  -2.119  -2.152  0.00  0.00    -0.047 A 
ATOM      4  C   UNL     1       0.377  -2.030  -0.782  0.00  0.00    +0.005 A 
ATOM      5  C   UNL     1      -0.902  -2.026  -0.269  0.00  0.00    +0.026 A 
ATOM      6  C   UNL     1      -1.992  -2.111  -1.129  0.00  0.00    +0.049 A 
ATOM      7  C   UNL     1      -1.771  -2.200  -2.516  0.00  0.00    -0.001 A 
ATOM      8  C   UNL     1      -0.465  -2.198  -3.016  0.00  0.00    +0.013 A 
ATOM      9  C   UNL     1      -2.925  -2.289  -3.414  0.00  0.00    +0.020 A 
ATOM     10  C   UNL     1      -4.168  -2.283  -2.873  0.00  0.00    +0.031 A 
ATOM     11  C   UNL     1      -4.335  -2.191  -1.474  0.00  0.00    +0.254 A 
ATOM     12  O   UNL     1      -5.461  -2.187  -1.009  0.00  0.00    -0.268 OA
ATOM     13  N   UNL     1      -3.281  -2.109  -0.642  0.00  0.00    -0.322 N 
ATOM     14  H   UNL     1      -3.431  -2.048   0.314  0.00  0.00    +0.169 HD
BRANCH   3  16
ATOM     15  C   UNL     1       2.442  -0.683  -2.964  0.00  0.00    +0.009 C 
ATOM     16  C   UNL     1       1.998  -2.121  -2.689  0.00  0.00    +0.032 C 
ENDBRANCH   3  16
ENDBRANCH   2  10
ENDBRANCH   1   2
BRANCH   1  17
ATOM     17  C   UNL     1      -6.555  -4.182  -2.671  0.00  0.00    +0.124 C 
BRANCH  17  18
ATOM     18  C   UNL     1      -6.568  -5.686  -2.576  0.00  0.00    +0.008 A 
ATOM     19  C   UNL     1      -7.732  -6.385  -2.836  0.00  0.00    +0.008 A 
ATOM     20  C   UNL     1      -7.745  -7.764  -2.748  0.00  0.00    +0.001 A 
ATOM     21  C   UNL     1      -6.594  -8.448  -2.401  0.00  0.00    +0.004 A 
ATOM     22  C   UNL     1      -5.429  -7.755  -2.141  0.00  0.00    +0.046 A 
ATOM     23  C   UNL     1      -5.411  -6.370  -2.233  0.00  0.00    +0.124 A 
BRANCH  23  24
ATOM     24  O   UNL     1      -4.264  -5.686  -1.984  0.00  0.00    -0.495 OA
ATOM     25  C   UNL     1      -3.112  -6.456  -1.636  0.00  0.00    +0.277 C 
ENDBRANCH  23  24
ENDBRANCH  17  18
ENDBRANCH   1  17
BRANCH   1  26
ATOM     26  C   UNL     1      -6.603  -3.994  -5.085  0.00  0.00    +0.127 C 
BRANCH  26  27
ATOM     27  C   UNL     1      -7.527  -2.823  -5.299  0.00  0.00    +0.168 A 
ATOM     28  N   UNL     1      -7.224  -1.554  -5.177  0.00  0.00    -0.112 NA
ATOM     29  N   UNL     1      -8.280  -0.865  -5.443  0.00  0.00    -0.023 NA
ATOM     30  N   UNL     1      -9.249  -1.662  -5.732  0.00  0.00    -0.044 NA
ATOM     31  N   UNL     1      -8.823  -2.878  -5.660  0.00  0.00    -0.225 N 
BRANCH  31  32
ATOM     32  C   UNL     1      -9.604  -4.090  -5.918  0.00  0.00    +0.179 C 
BRANCH  32  33
ATOM     33  C   UNL     1     -10.260  -4.561  -4.618  0.00  0.00    +0.140 C 
ATOM     34  C   UNL     1     -10.986  -5.903  -4.854  0.00  0.00    +0.035 C 
ATOM     35  C   UNL     1     -12.278  -5.732  -4.009  0.00  0.00    +0.031 C 
ATOM     36  C   UNL     1     -12.543  -4.215  -4.181  0.00  0.00    +0.160 C 
ATOM     37  O   UNL     1     -11.240  -3.605  -4.195  0.00  0.00    -0.375 OA
ENDBRANCH  32  33
ENDBRANCH  31  32
ENDBRANCH  26  27
BRANCH  26  38
ATOM     38  C   UNL     1      -5.667  -4.132  -6.287  0.00  0.00    +0.023 C 
ATOM     39  C   UNL     1      -4.817  -5.394  -6.129  0.00  0.00    +0.006 C 
ENDBRANCH  26  38
ENDBRANCH   1  26
TORSDOF 11
