REMARK  Name = ZINC45388242
REMARK  6 active torsions:
REMARK  status: ('A' for Active; 'I' for Inactive)
REMARK    1  A    between atoms: C_1  and  C_2
REMARK    2  A    between atoms: C_5  and  C_9
REMARK    3  A    between atoms: C_6  and  C_8
REMARK    4  A    between atoms: C_9  and  C_10
REMARK    5  A    between atoms: C_19  and  N_21
REMARK    6  A    between atoms: C_24  and  C_27
REMARK                            x       y       z     vdW  Elec       q    Type
REMARK                         _______ _______ _______ _____ _____    ______ ____
ROOT
ATOM      1  C   UNL     1      -1.328  -4.700  -0.114  0.00  0.00    -0.012 C 
ATOM      2  C   UNL     1      -1.807  -4.133   1.240  0.00  0.00    +0.038 C 
ATOM      3  C   UNL     1      -2.823  -5.132   1.750  0.00  0.00    -0.046 A 
ATOM      4  C   UNL     1      -3.793  -5.005   2.731  0.00  0.00    +0.004 A 
ATOM      5  C   UNL     1      -4.620  -6.068   3.033  0.00  0.00    +0.000 A 
ATOM      6  C   UNL     1      -4.481  -7.265   2.354  0.00  0.00    +0.000 A 
ATOM      7  C   UNL     1      -3.514  -7.394   1.376  0.00  0.00    +0.002 A 
ATOM      8  C   UNL     1      -2.684  -6.329   1.072  0.00  0.00    -0.057 A 
ATOM      9  C   UNL     1      -1.565  -6.216   0.054  0.00  0.00    -0.033 C 
ENDROOT
BRANCH   9  10
ATOM     10  N   UNL     1      -0.350  -6.868   0.560  0.00  0.00    +0.387 N 
ATOM     11  C   UNL     1      -0.537  -8.328   0.556  0.00  0.00    -0.073 C 
ATOM     12  C   UNL     1       0.813  -8.994   0.834  0.00  0.00    +0.017 C 
ATOM     13  C   UNL     1       1.444  -8.366   2.047  0.00  0.00    -0.048 C 
ATOM     14  C   UNL     1       1.039  -7.213   2.534  0.00  0.00    -0.041 C 
ATOM     15  C   UNL     1      -0.089  -6.424   1.934  0.00  0.00    -0.050 C 
ATOM     16  H   UNL     1       0.433  -6.625  -0.029  0.00  0.00    -0.080 HD
BRANCH  13  17
ATOM     17  C   UNL     1       2.559  -9.069   2.715  0.00  0.00    -0.022 A 
ATOM     18  C   UNL     1       3.772  -9.251   2.048  0.00  0.00    +0.009 A 
ATOM     19  C   UNL     1       4.809  -9.908   2.677  0.00  0.00    +0.020 A 
ATOM     20  C   UNL     1       4.649 -10.387   3.966  0.00  0.00    +0.041 A 
ATOM     21  C   UNL     1       3.448 -10.209   4.632  0.00  0.00    +0.020 A 
ATOM     22  C   UNL     1       2.406  -9.548   4.016  0.00  0.00    +0.009 A 
ATOM     23 CL   UNL     1       5.959 -11.213   4.751  0.00  0.00    -0.084 Cl
ENDBRANCH  13  17
ENDBRANCH   9  10
BRANCH   1  24
ATOM     24  C   UNL     1       0.156  -4.402  -0.333  0.00  0.00    +0.038 C 
BRANCH  24  29
ATOM     25  C   UNL     1       1.679  -6.042  -5.661  0.00  0.00    +0.044 C 
ATOM     26  C   UNL     1       1.282  -5.614  -4.271  0.00  0.00    -0.050 A 
ATOM     27  C   UNL     1       1.684  -6.358  -3.178  0.00  0.00    +0.003 A 
ATOM     28  C   UNL     1       1.320  -5.966  -1.903  0.00  0.00    +0.004 A 
ATOM     29  C   UNL     1       0.554  -4.829  -1.722  0.00  0.00    -0.044 A 
ATOM     30  C   UNL     1       0.153  -4.085  -2.816  0.00  0.00    -0.047 A 
ATOM     31  C   UNL     1       0.521  -4.475  -4.090  0.00  0.00    +0.007 A 
ATOM     32  C   UNL     1      -0.682  -2.846  -2.619  0.00  0.00    +0.044 C 
ENDBRANCH  24  29
ENDBRANCH   1  24
TORSDOF 4
