REMARK  Name = ZINC38740769
REMARK  3 active torsions:
REMARK  status: ('A' for Active; 'I' for Inactive)
REMARK    1  A    between atoms: C_13  and  C_15
REMARK    2  A    between atoms: C_21  and  C_23
REMARK    3  A    between atoms: N_28  and  C_31
REMARK                            x       y       z     vdW  Elec       q    Type
REMARK                         _______ _______ _______ _____ _____    ______ ____
ROOT
ATOM      1  C   UNL     1      -0.073  -6.661   1.185  0.00  0.00    +0.091 C 
ATOM      2  C   UNL     1      -0.831  -6.404  -0.119  0.00  0.00    +0.040 C 
ATOM      3  C   UNL     1      -1.943  -7.398  -0.275  0.00  0.00    -0.030 C 
ATOM      4  C   UNL     1      -2.023  -8.507   0.388  0.00  0.00    -0.030 C 
ATOM      5  C   UNL     1      -1.020  -8.948   1.413  0.00  0.00    +0.040 C 
ATOM      6  C   UNL     1       0.277  -8.152   1.262  0.00  0.00    +0.091 C 
ENDROOT
BRANCH   1  19
ATOM      7  C   UNL     1       0.040   0.780   4.410  0.00  0.00    +0.005 A 
ATOM      8  C   UNL     1       1.234   1.488   4.433  0.00  0.00    +0.018 A 
ATOM      9  C   UNL     1       2.408   0.846   4.093  0.00  0.00    +0.084 A 
ATOM     10  N   UNL     1       2.407  -0.428   3.748  0.00  0.00    -0.350 N 
ATOM     11  C   UNL     1       1.290  -1.137   3.713  0.00  0.00    +0.099 A 
ATOM     12  C   UNL     1       0.070  -0.554   4.044  0.00  0.00    +0.042 A 
ATOM     13  N   UNL     1       1.335  -2.476   3.344  0.00  0.00    -0.314 N 
ATOM     14  C   UNL     1       0.127  -3.311   3.406  0.00  0.00    +0.125 C 
ATOM     15  C   UNL     1      -0.109  -3.937   2.026  0.00  0.00    +0.126 C 
ATOM     16  N   UNL     1       1.148  -4.543   1.565  0.00  0.00    -0.298 N 
ATOM     17  C   UNL     1       2.356  -3.708   1.502  0.00  0.00    +0.126 C 
ATOM     18  C   UNL     1       2.590  -3.081   2.877  0.00  0.00    +0.125 C 
ATOM     19  C   UNL     1       1.192  -5.841   1.206  0.00  0.00    +0.220 C 
ATOM     20  O   UNL     1       2.249  -6.351   0.900  0.00  0.00    -0.275 OA
ATOM     21  H   UNL     1       3.246  -0.855   3.514  0.00  0.00    +0.166 HD
ENDBRANCH   1  19
BRANCH   6  22
ATOM     22  C   UNL     1       1.171  -8.402   2.450  0.00  0.00    +0.220 C 
ATOM     23  O   UNL     1       1.170  -7.627   3.383  0.00  0.00    -0.275 OA
ATOM     24  N   UNL     1       1.971  -9.486   2.475  0.00  0.00    -0.298 N 
ATOM     25  C   UNL     1       2.070 -10.370   1.305  0.00  0.00    +0.126 C 
ATOM     26  C   UNL     1       3.545 -10.487   0.902  0.00  0.00    +0.124 C 
ATOM     27  N   UNL     1       4.335 -10.806   2.100  0.00  0.00    -0.325 N 
ATOM     28  C   UNL     1       4.236  -9.922   3.270  0.00  0.00    +0.124 C 
ATOM     29  C   UNL     1       2.765  -9.802   3.671  0.00  0.00    +0.126 C 
BRANCH  27  30
ATOM     30  C   UNL     1       5.162 -11.927   2.126  0.00  0.00    +0.070 A 
ATOM     31  C   UNL     1       4.679 -13.163   2.556  0.00  0.00    +0.081 A 
ATOM     32  C   UNL     1       5.531 -14.249   2.566  0.00  0.00    +0.132 A 
ATOM     33  N   UNL     1       6.787 -14.128   2.176  0.00  0.00    -0.260 NA
ATOM     34  C   UNL     1       7.281 -12.976   1.763  0.00  0.00    +0.132 A 
ATOM     35  C   UNL     1       6.494 -11.843   1.717  0.00  0.00    +0.081 A 
ATOM     36 CL   UNL     1       7.152 -10.335   1.166  0.00  0.00    -0.080 Cl
ATOM     37 CL   UNL     1       3.030 -13.333   3.071  0.00  0.00    -0.080 Cl
ENDBRANCH  27  30
ENDBRANCH   6  22
TORSDOF 3
