REMARK  Name = ZINC12476719
REMARK  17 active torsions:
REMARK  status: ('A' for Active; 'I' for Inactive)
REMARK    1  A    between atoms: C_1  and  C_2
REMARK    2  A    between atoms: C_5  and  C_7
REMARK    3  A    between atoms: N_10  and  C_12
REMARK    4  A    between atoms: C_12  and  C_13
REMARK    5  A    between atoms: N_15  and  C_16
REMARK    6  A    between atoms: N_15  and  C_24
REMARK    7  A    between atoms: C_21  and  O_22
REMARK    8  A    between atoms: O_22  and  C_23
REMARK    9  A    between atoms: C_24  and  C_26
REMARK   10  A    between atoms: C_24  and  C_30
REMARK   11  A    between atoms: C_26  and  C_27
REMARK   12  A    between atoms: C_27  and  C_28
REMARK   13  A    between atoms: C_27  and  C_29
REMARK   14  A    between atoms: N_32  and  C_33
REMARK   15  A    between atoms: C_33  and  C_34
REMARK   16  A    between atoms: C_33  and  C_35
REMARK   17  A    between atoms: C_33  and  C_36
REMARK                            x       y       z     vdW  Elec       q    Type
REMARK                         _______ _______ _______ _____ _____    ______ ____
ROOT
ATOM      1  C   UNL     1      -1.786   3.741   3.510  0.00  0.00    +0.244 C 
ATOM      2  O   UNL     1      -2.782   4.432   3.479  0.00  0.00    -0.273 OA
ATOM      3  N   UNL     1      -1.897   2.398   3.531  0.00  0.00    -0.255 N 
ENDROOT
BRANCH   3   4
ATOM      4  C   UNL     1      -0.745   1.600   3.567  0.00  0.00    +0.079 A 
ATOM      5  C   UNL     1      -0.200   1.221   4.785  0.00  0.00    +0.027 A 
ATOM      6  C   UNL     1       0.939   0.439   4.818  0.00  0.00    +0.002 A 
ATOM      7  C   UNL     1       1.534   0.028   3.639  0.00  0.00    +0.004 A 
ATOM      8  C   UNL     1       0.993   0.398   2.422  0.00  0.00    +0.047 A 
ATOM      9  C   UNL     1      -0.148   1.182   2.380  0.00  0.00    +0.141 A 
BRANCH   9  10
ATOM     10  O   UNL     1      -0.682   1.547   1.184  0.00  0.00    -0.493 OA
ATOM     11  C   UNL     1      -0.013   1.086   0.008  0.00  0.00    +0.277 C 
ENDBRANCH   9  10
ENDBRANCH   3   4
BRANCH   1  12
ATOM     12  C   UNL     1      -0.423   4.385   3.525  0.00  0.00    +0.264 C 
BRANCH  12  16
ATOM     13  C   UNL     1      -0.760   7.824   2.805  0.00  0.00    +0.239 A 
ATOM     14  N   UNL     1      -0.783   7.826   4.147  0.00  0.00    -0.105 NA
ATOM     15  N   UNL     1      -0.666   6.601   4.533  0.00  0.00    -0.045 NA
ATOM     16  N   UNL     1      -0.571   5.842   3.497  0.00  0.00    -0.154 N 
ATOM     17  N   UNL     1      -0.621   6.566   2.432  0.00  0.00    -0.127 NA
BRANCH  13  22
ATOM     18  C   UNL     1      -0.977  10.634  -1.349  0.00  0.00    +0.086 C 
ATOM     19  C   UNL     1      -0.960  10.236   0.104  0.00  0.00    +0.103 A 
ATOM     20  C   UNL     1      -1.063  11.078   1.150  0.00  0.00    +0.045 A 
ATOM     21  C   UNL     1      -1.008  10.293   2.319  0.00  0.00    +0.053 A 
ATOM     22  C   UNL     1      -0.864   9.003   1.918  0.00  0.00    +0.175 A 
ATOM     23  O   UNL     1      -0.840   8.983   0.571  0.00  0.00    -0.457 OA
ENDBRANCH  13  22
ENDBRANCH  12  16
ENDBRANCH   1  12
BRANCH   3  24
ATOM     24  C   UNL     1      -3.221   1.773   3.517  0.00  0.00    +0.167 C 
BRANCH  24  25
ATOM     25  C   UNL     1      -3.396   0.937   4.759  0.00  0.00    +0.234 C 
ATOM     26  O   UNL     1      -2.502   0.871   5.576  0.00  0.00    -0.274 OA
ATOM     27  N   UNL     1      -4.546   0.264   4.962  0.00  0.00    -0.309 N 
ATOM     28  H   UNL     1      -5.261   0.317   4.308  0.00  0.00    +0.149 HD
BRANCH  27  29
ATOM     29  C   UNL     1      -4.715  -0.548   6.169  0.00  0.00    +0.026 C 
ATOM     30  C   UNL     1      -4.586   0.343   7.406  0.00  0.00    +0.031 C 
ATOM     31  C   UNL     1      -6.099  -1.202   6.154  0.00  0.00    +0.031 C 
ATOM     32  C   UNL     1      -3.639  -1.635   6.208  0.00  0.00    +0.031 C 
ENDBRANCH  27  29
ENDBRANCH  24  25
BRANCH  24  33
ATOM     33  C   UNL     1      -3.351   0.881   2.280  0.00  0.00    +0.035 C 
BRANCH  33  34
ATOM     34  C   UNL     1      -3.298   1.747   1.020  0.00  0.00    -0.015 C 
ATOM     35  C   UNL     1      -3.302   0.847  -0.218  0.00  0.00    +0.007 C 
ATOM     36  C   UNL     1      -4.518   2.669   0.983  0.00  0.00    +0.007 C 
ENDBRANCH  33  34
ENDBRANCH  24  33
ENDBRANCH   3  24
TORSDOF 10
