REMARK  Name = ZINC59170626
REMARK  7 active torsions:
REMARK  status: ('A' for Active; 'I' for Inactive)
REMARK    1  A    between atoms: C_1  and  C_2
REMARK    2  A    between atoms: C_2  and  C_3
REMARK    3  A    between atoms: C_6  and  N_9
REMARK    4  A    between atoms: C_10  and  C_12
REMARK    5  A    between atoms: N_26  and  C_27
REMARK    6  A    between atoms: C_30  and  S_33
REMARK    7  A    between atoms: S_33  and  N_36
REMARK                            x       y       z     vdW  Elec       q    Type
REMARK                         _______ _______ _______ _____ _____    ______ ____
ROOT
ATOM      1  C   UNL     1       2.824  -2.352   6.970  0.00  0.00    +0.098 A 
ATOM      2  C   UNL     1       2.138  -2.621   8.149  0.00  0.00    +0.030 A 
ATOM      3  C   UNL     1       2.886  -3.010   9.280  0.00  0.00    +0.026 A 
ATOM      4  C   UNL     1       2.220  -3.517  10.482  0.00  0.00    -0.007 A 
ATOM      5  C   UNL     1       0.829  -3.616  10.562  0.00  0.00    +0.009 A 
ATOM      6  C   UNL     1       0.250  -4.095  11.701  0.00  0.00    +0.001 A 
ATOM      7  C   UNL     1       1.028  -4.485  12.787  0.00  0.00    +0.001 A 
ATOM      8  C   UNL     1       2.388  -4.402  12.741  0.00  0.00    +0.008 A 
ATOM      9  C   UNL     1       3.015  -3.914  11.583  0.00  0.00    -0.017 A 
ATOM     10  C   UNL     1       4.418  -3.815  11.499  0.00  0.00    +0.012 A 
ATOM     11  C   UNL     1       5.021  -3.334  10.382  0.00  0.00    +0.047 A 
ATOM     12  C   UNL     1       4.285  -2.920   9.269  0.00  0.00    +0.138 A 
ATOM     13  O   UNL     1       4.920  -2.410   8.186  0.00  0.00    -0.439 OA
ATOM     14  C   UNL     1       4.288  -2.534   6.988  0.00  0.00    +0.212 A 
ATOM     15  N   UNL     1       4.956  -2.800   5.885  0.00  0.00    -0.325 N 
ATOM     16  H   UNL     1       4.479  -2.993   5.063  0.00  0.00    +0.169 HD
ENDROOT
BRANCH  15  17
ATOM     17  C   UNL     1       6.324  -2.807   5.899  0.00  0.00    +0.042 A 
ATOM     18  C   UNL     1       7.024  -1.784   6.544  0.00  0.00    +0.027 A 
ATOM     19  C   UNL     1       8.403  -1.796   6.553  0.00  0.00    +0.030 A 
ATOM     20  C   UNL     1       9.093  -2.819   5.926  0.00  0.00    +0.105 A 
ATOM     21  C   UNL     1       8.406  -3.835   5.285  0.00  0.00    +0.030 A 
ATOM     22  C   UNL     1       7.027  -3.838   5.272  0.00  0.00    +0.027 A 
BRANCH  20  23
ATOM     23  S   UNL     1      10.855  -2.826   5.944  0.00  0.00    +0.056 S 
ATOM     24  O   UNL     1      11.269  -3.595   4.822  0.00  0.00    -0.153 OA
ATOM     25  O   UNL     1      11.265  -1.480   6.138  0.00  0.00    -0.153 OA
BRANCH  23  26
ATOM     26  N   UNL     1      11.328  -3.664   7.291  0.00  0.00    -0.204 NA
ATOM     27  H   UNL     1      12.164  -4.156   7.288  0.00  0.00    +0.144 HD
ATOM     28  H   UNL     1      10.768  -3.664   8.084  0.00  0.00    +0.144 HD
ENDBRANCH  23  26
ENDBRANCH  20  23
ENDBRANCH  15  17
BRANCH   1  30
ATOM     29  N   UNL     1       2.823  -1.523   4.672  0.00  0.00    -0.281 N 
ATOM     30  C   UNL     1       2.120  -1.911   5.755  0.00  0.00    +0.253 C 
ATOM     31  O   UNL     1       0.904  -1.896   5.729  0.00  0.00    -0.270 OA
ATOM     32  H   UNL     1       3.791  -1.586   4.674  0.00  0.00    +0.155 HD
BRANCH  29  36
ATOM     33  C   UNL     1       0.839  -0.055   1.317  0.00  0.00    -0.048 A 
ATOM     34  C   UNL     1       2.072   0.461   1.670  0.00  0.00    +0.005 A 
ATOM     35  C   UNL     1       2.733  -0.023   2.782  0.00  0.00    +0.023 A 
ATOM     36  C   UNL     1       2.157  -1.030   3.546  0.00  0.00    +0.034 A 
ATOM     37  C   UNL     1       0.918  -1.546   3.189  0.00  0.00    +0.023 A 
ATOM     38  C   UNL     1       0.260  -1.053   2.079  0.00  0.00    +0.005 A 
BRANCH  33  40
ATOM     39  C   UNL     1      -0.767   1.654   0.512  0.00  0.00    +0.009 C 
ATOM     40  C   UNL     1       0.120   0.477   0.104  0.00  0.00    +0.032 C 
ENDBRANCH  33  40
ENDBRANCH  29  36
ENDBRANCH   1  30
TORSDOF 6
