REMARK  Name = ZINC12795105
REMARK  8 active torsions:
REMARK  status: ('A' for Active; 'I' for Inactive)
REMARK    1  A    between atoms: C_1  and  C_2
REMARK    2  A    between atoms: C_5  and  C_7
REMARK    3  A    between atoms: C_16  and  C_18
REMARK    4  A    between atoms: C_18  and  S_19
REMARK    5  A    between atoms: S_19  and  C_20
REMARK    6  A    between atoms: C_23  and  C_25
REMARK    7  A    between atoms: C_27  and  C_32
REMARK    8  A    between atoms: C_29  and  C_31
REMARK                            x       y       z     vdW  Elec       q    Type
REMARK                         _______ _______ _______ _____ _____    ______ ____
ROOT
ATOM      1  C   UNL     1      -1.159   2.334   0.020  0.00  0.00    +0.010 A 
ATOM      2  C   UNL     1      -0.929   3.671   0.030  0.00  0.00    +0.057 A 
ATOM      3  S   UNL     1       0.850   3.783   0.014  0.00  0.00    -0.076 S 
ATOM      4  C   UNL     1       1.240   2.052   0.001  0.00  0.00    +0.116 A 
ATOM      5  C   UNL     1      -0.017   1.427   0.010  0.00  0.00    +0.080 A 
ATOM      6  C   UNL     1       0.002  -0.004   0.002  0.00  0.00    +0.260 A 
ATOM      7  O   UNL     1      -1.040  -0.637   0.008  0.00  0.00    -0.267 OA
ATOM      8  N   UNL     1       1.188  -0.640  -0.013  0.00  0.00    -0.310 N 
ATOM      9  H   UNL     1       1.207  -1.610  -0.018  0.00  0.00    +0.170 HD
ATOM     10  C   UNL     1       2.358   0.048  -0.020  0.00  0.00    +0.121 A 
ATOM     11  N   UNL     1       2.373   1.354  -0.013  0.00  0.00    -0.226 NA
ENDROOT
BRANCH   1  16
ATOM     12  C   UNL     1      -6.121  -0.233  -0.726  0.00  0.00    +0.051 C 
ATOM     13  C   UNL     1      -4.917   0.581  -0.331  0.00  0.00    -0.013 A 
ATOM     14  C   UNL     1      -4.798   1.504   0.657  0.00  0.00    +0.011 A 
ATOM     15  C   UNL     1      -3.585   2.131   0.848  0.00  0.00    +0.016 A 
ATOM     16  C   UNL     1      -2.540   1.808   0.024  0.00  0.00    +0.021 A 
ATOM     17  S   UNL     1      -3.279   0.579  -1.041  0.00  0.00    -0.093 S 
ENDBRANCH   1  16
BRANCH  10  18
ATOM     18  C   UNL     1       3.662  -0.707  -0.036  0.00  0.00    +0.153 C 
BRANCH  18  19
ATOM     19  S   UNL     1       5.039   0.467  -0.043  0.00  0.00    -0.058 S 
BRANCH  19  20
ATOM     20  C   UNL     1       6.398  -0.655  -0.062  0.00  0.00    +0.278 A 
ATOM     21  N   UNL     1       6.323  -1.966  -0.068  0.00  0.00    -0.101 NA
ATOM     22  N   UNL     1       7.510  -2.462  -0.081  0.00  0.00    -0.106 NA
ATOM     23  C   UNL     1       8.389  -1.490  -0.084  0.00  0.00    +0.249 A 
ATOM     24  O   UNL     1       7.703  -0.325  -0.078  0.00  0.00    -0.411 OA
BRANCH  23  25
ATOM     25  C   UNL     1       9.859  -1.640  -0.098  0.00  0.00    +0.039 A 
ATOM     26  C   UNL     1      10.679  -0.510  -0.106  0.00  0.00    +0.016 A 
ATOM     27  C   UNL     1      12.050  -0.657  -0.113  0.00  0.00    -0.049 A 
ATOM     28  C   UNL     1      12.614  -1.921  -0.124  0.00  0.00    +0.006 A 
ATOM     29  C   UNL     1      11.807  -3.045  -0.123  0.00  0.00    -0.049 A 
ATOM     30  C   UNL     1      10.434  -2.912  -0.110  0.00  0.00    +0.016 A 
ATOM     31  C   UNL     1      12.429  -4.417  -0.135  0.00  0.00    +0.044 C 
ATOM     32  C   UNL     1      12.937   0.561  -0.115  0.00  0.00    +0.044 C 
ENDBRANCH  23  25
ENDBRANCH  19  20
ENDBRANCH  18  19
ENDBRANCH  10  18
TORSDOF 5
