REMARK  Name = ZINC35991018
REMARK  15 active torsions:
REMARK  status: ('A' for Active; 'I' for Inactive)
REMARK    1  A    between atoms: C_1  and  C_2
REMARK    2  A    between atoms: C_2  and  N_3
REMARK    3  A    between atoms: C_4  and  C_26
REMARK    4  A    between atoms: C_5  and  C_21
REMARK    5  A    between atoms: C_6  and  C_11
REMARK    6  A    between atoms: C_13  and  O_19
REMARK    7  A    between atoms: C_15  and  O_17
REMARK    8  A    between atoms: O_17  and  C_18
REMARK    9  A    between atoms: O_19  and  C_20
REMARK   10  A    between atoms: C_21  and  O_23
REMARK   11  A    between atoms: O_23  and  C_24
REMARK   12  A    between atoms: C_24  and  C_25
REMARK   13  A    between atoms: C_26  and  N_27
REMARK   14  A    between atoms: N_27  and  C_28
REMARK   15  A    between atoms: N_27  and  C_29
REMARK                            x       y       z     vdW  Elec       q    Type
REMARK                         _______ _______ _______ _____ _____    ______ ____
ROOT
ATOM      1  N   UNL     1      -1.008  -0.849  -0.303  0.00  0.00    -0.261 N 
ATOM      2  C   UNL     1      -1.672  -0.944   0.887  0.00  0.00    +0.010 C 
ATOM      3  C   UNL     1      -2.814  -1.657   0.992  0.00  0.00    +0.076 C 
ATOM      4  C   UNL     1      -3.332  -2.348  -0.253  0.00  0.00    +0.144 C 
ATOM      5  N   UNL     1      -2.542  -2.183  -1.485  0.00  0.00    -0.288 N 
ATOM      6  C   UNL     1      -1.423  -1.434  -1.434  0.00  0.00    +0.307 C 
ATOM      7  O   UNL     1      -0.765  -1.288  -2.446  0.00  0.00    -0.252 OA
ATOM      8  H   UNL     1      -2.822  -2.600  -2.314  0.00  0.00    +0.151 HD
ENDROOT
BRANCH   4   9
ATOM      9  C   UNL     1      -3.431  -3.823   0.040  0.00  0.00    -0.016 A 
ATOM     10  C   UNL     1      -2.298  -4.612  -0.005  0.00  0.00    +0.051 A 
ATOM     11  C   UNL     1      -2.386  -5.971   0.265  0.00  0.00    +0.124 A 
ATOM     12  C   UNL     1      -3.613  -6.535   0.580  0.00  0.00    +0.091 A 
ATOM     13  C   UNL     1      -4.748  -5.741   0.625  0.00  0.00    +0.124 A 
ATOM     14  C   UNL     1      -4.653  -4.382   0.360  0.00  0.00    +0.051 A 
BRANCH  13  15
ATOM     15  O   UNL     1      -5.952  -6.291   0.933  0.00  0.00    -0.495 OA
ATOM     16  C   UNL     1      -5.974  -7.695   1.199  0.00  0.00    +0.277 C 
ENDBRANCH  13  15
BRANCH  11  17
ATOM     17  O   UNL     1      -1.272  -6.747   0.220  0.00  0.00    -0.495 OA
ATOM     18  C   UNL     1      -1.437  -8.137   0.509  0.00  0.00    +0.277 C 
ENDBRANCH  11  17
ENDBRANCH   4   9
BRANCH   1  20
ATOM     19  C   UNL     1      -0.118   1.407  -0.617  0.00  0.00    +0.025 C 
ATOM     20  C   UNL     1       0.225  -0.059  -0.345  0.00  0.00    +0.111 C 
ENDBRANCH   1  20
BRANCH   3  21
ATOM     21  C   UNL     1      -3.502  -1.757   2.224  0.00  0.00    +0.339 C 
ATOM     22  O   UNL     1      -3.006  -1.302   3.237  0.00  0.00    -0.245 OA
BRANCH  21  23
ATOM     23  O   UNL     1      -4.710  -2.357   2.275  0.00  0.00    -0.462 OA
BRANCH  23  24
ATOM     24  C   UNL     1      -5.349  -2.422   3.551  0.00  0.00    +0.229 C 
ATOM     25  C   UNL     1      -6.697  -3.131   3.412  0.00  0.00    +0.048 C 
ENDBRANCH  23  24
ENDBRANCH  21  23
ENDBRANCH   3  21
BRANCH   2  26
ATOM     26  C   UNL     1      -1.122  -0.241   2.101  0.00  0.00    -0.026 C 
BRANCH  26  27
ATOM     27  N   UNL     1      -0.099  -1.085   2.734  0.00  0.00    +0.383 N 
ATOM     28  C   UNL     1      -0.718  -2.329   3.211  0.00  0.00    -0.095 C 
ATOM     29  H   UNL     1       0.620  -1.304   2.061  0.00  0.00    -0.081 HD
BRANCH  27  30
ATOM     30  C   UNL     1       0.495  -0.367   3.869  0.00  0.00    -0.068 C 
ATOM     31  C   UNL     1       1.139   0.928   3.371  0.00  0.00    -0.015 C 
ATOM     32  C   UNL     1       1.758   1.677   4.554  0.00  0.00    -0.002 C 
ATOM     33  C   UNL     1       2.823   0.798   5.213  0.00  0.00    -0.000 C 
ATOM     34  C   UNL     1       2.179  -0.498   5.710  0.00  0.00    -0.002 C 
ATOM     35  C   UNL     1       1.560  -1.246   4.528  0.00  0.00    -0.015 C 
ENDBRANCH  27  30
ENDBRANCH  26  27
ENDBRANCH   2  26
TORSDOF 10
