REMARK  Name = ZINC39710843
REMARK  9 active torsions:
REMARK  status: ('A' for Active; 'I' for Inactive)
REMARK    1  A    between atoms: C_1  and  C_2
REMARK    2  A    between atoms: C_8  and  C_14
REMARK    3  A    between atoms: C_14  and  C_16
REMARK    4  A    between atoms: C_14  and  N_25
REMARK    5  A    between atoms: N_20  and  C_21
REMARK    6  A    between atoms: C_21  and  C_22
REMARK    7  A    between atoms: C_22  and  O_23
REMARK    8  A    between atoms: O_23  and  C_24
REMARK    9  A    between atoms: N_28  and  C_31
REMARK                            x       y       z     vdW  Elec       q    Type
REMARK                         _______ _______ _______ _____ _____    ______ ____
ROOT
ATOM      1  C   UNL     1      -1.204  -2.589   4.466  0.00  0.00    +0.142 C 
ENDROOT
BRANCH   1   9
ATOM      2  C   UNL     1      -1.890   1.521  -0.041  0.00  0.00    +0.045 C 
ATOM      3  C   UNL     1      -1.999   0.018  -0.037  0.00  0.00    -0.029 A 
ATOM      4  C   UNL     1      -2.597  -0.618  -1.078  0.00  0.00    +0.005 A 
ATOM      5  C   UNL     1      -2.729  -2.005  -1.137  0.00  0.00    +0.001 A 
ATOM      6  C   UNL     1      -2.261  -2.803  -0.143  0.00  0.00    +0.009 A 
ATOM      7  C   UNL     1      -1.605  -2.184   1.010  0.00  0.00    -0.007 A 
ATOM      8  C   UNL     1      -1.119  -2.945   2.031  0.00  0.00    -0.003 C 
ATOM      9  C   UNL     1      -0.455  -2.219   3.184  0.00  0.00    +0.123 C 
ATOM     10  C   UNL     1      -0.386  -0.710   3.108  0.00  0.00    +0.226 C 
ATOM     11  O   UNL     1       0.137  -0.077   4.006  0.00  0.00    -0.275 OA
ATOM     12  N   UNL     1      -0.894  -0.082   2.061  0.00  0.00    -0.284 N 
ATOM     13  C   UNL     1      -1.474  -0.717   1.043  0.00  0.00    +0.043 A 
ATOM     14  H   UNL     1      -0.839   0.886   2.032  0.00  0.00    +0.155 HD
ENDBRANCH   1   9
BRANCH   1  15
ATOM     15  N   UNL     1      -0.538  -1.970   5.619  0.00  0.00    -0.289 NA
ATOM     16  C   UNL     1       0.846  -2.445   5.745  0.00  0.00    +0.104 C 
ATOM     17  C   UNL     1       1.560  -1.646   6.841  0.00  0.00    +0.120 C 
ATOM     18  N   UNL     1       0.760  -1.726   8.073  0.00  0.00    -0.327 N 
ATOM     19  C   UNL     1      -0.671  -1.396   7.996  0.00  0.00    +0.120 C 
ATOM     20  C   UNL     1      -1.297  -2.205   6.855  0.00  0.00    +0.104 C 
BRANCH  18  21
ATOM     21  C   UNL     1       1.345  -2.106   9.285  0.00  0.00    +0.030 A 
ATOM     22  C   UNL     1       2.720  -2.287   9.367  0.00  0.00    +0.026 A 
ATOM     23  C   UNL     1       3.295  -2.662  10.565  0.00  0.00    +0.040 A 
ATOM     24  C   UNL     1       2.503  -2.857  11.684  0.00  0.00    +0.124 A 
ATOM     25  C   UNL     1       1.133  -2.676  11.604  0.00  0.00    +0.040 A 
ATOM     26  C   UNL     1       0.553  -2.296  10.409  0.00  0.00    +0.026 A 
ATOM     27  F   UNL     1       3.069  -3.224  12.854  0.00  0.00    -0.205 F 
ENDBRANCH  18  21
ENDBRANCH   1  15
BRANCH   1  28
ATOM     28  C   UNL     1      -1.206  -4.087   4.632  0.00  0.00    +0.170 A 
ATOM     29  N   UNL     1      -0.158  -4.859   4.786  0.00  0.00    -0.112 NA
ATOM     30  N   UNL     1      -0.571  -6.074   4.894  0.00  0.00    -0.023 NA
ATOM     31  N   UNL     1      -1.855  -6.098   4.813  0.00  0.00    -0.044 NA
ATOM     32  N   UNL     1      -2.285  -4.892   4.657  0.00  0.00    -0.225 N 
BRANCH  32  33
ATOM     33  C   UNL     1      -3.683  -4.476   4.527  0.00  0.00    +0.175 C 
BRANCH  33  34
ATOM     34  C   UNL     1      -4.123  -4.615   3.068  0.00  0.00    +0.183 C 
BRANCH  34  35
ATOM     35  O   UNL     1      -5.518  -4.321   2.961  0.00  0.00    -0.381 OA
ATOM     36  C   UNL     1      -6.033  -4.423   1.631  0.00  0.00    +0.194 C 
ENDBRANCH  34  35
ENDBRANCH  33  34
ENDBRANCH  32  33
ENDBRANCH   1  28
TORSDOF 7
