REMARK  Name = ZINC50321958
REMARK  6 active torsions:
REMARK  status: ('A' for Active; 'I' for Inactive)
REMARK    1  A    between atoms: C_1  and  C_2
REMARK    2  A    between atoms: C_2  and  C_3
REMARK    3  A    between atoms: C_3  and  C_4
REMARK    4  A    between atoms: C_5  and  N_23
REMARK    5  A    between atoms: C_6  and  C_10
REMARK    6  A    between atoms: C_20  and  C_22
REMARK                            x       y       z     vdW  Elec       q    Type
REMARK                         _______ _______ _______ _____ _____    ______ ____
ROOT
ATOM      1  C   UNL     1       1.657  -2.101   0.088  0.00  0.00    +0.057 A 
ATOM      2  C   UNL     1       0.506  -2.583  -0.451  0.00  0.00    +0.078 A 
ATOM      3  C   UNL     1       0.721  -3.976  -0.616  0.00  0.00    +0.168 A 
ATOM      4  N   UNL     1       1.940  -4.234  -0.182  0.00  0.00    -0.167 NA
ATOM      5  N   UNL     1       2.505  -3.155   0.226  0.00  0.00    -0.279 N 
ATOM      6  H   UNL     1       3.404  -3.100   0.585  0.00  0.00    +0.189 HD
ENDROOT
BRANCH   3   7
ATOM      7  C   UNL     1      -0.237  -4.952  -1.166  0.00  0.00    +0.273 C 
ATOM      8  O   UNL     1      -1.376  -4.608  -1.421  0.00  0.00    -0.268 OA
ATOM      9  N   UNL     1       0.148  -6.224  -1.388  0.00  0.00    -0.263 N 
ATOM     10  C   UNL     1      -0.664  -7.225  -1.928  0.00  0.00    +0.040 A 
ATOM     11  C   UNL     1      -1.995  -7.155  -2.345  0.00  0.00    +0.024 A 
ATOM     12  C   UNL     1      -2.623  -8.271  -2.856  0.00  0.00    +0.002 A 
ATOM     13  C   UNL     1      -1.939  -9.469  -2.959  0.00  0.00    +0.000 A 
ATOM     14  C   UNL     1      -0.621  -9.546  -2.547  0.00  0.00    +0.005 A 
ATOM     15  C   UNL     1       0.012  -8.430  -2.035  0.00  0.00    -0.024 A 
ATOM     16  C   UNL     1       1.421  -8.238  -1.520  0.00  0.00    +0.059 C 
ATOM     17  C   UNL     1       1.482  -6.759  -1.103  0.00  0.00    +0.083 C 
ATOM     18  C   UNL     1       2.538  -6.016  -1.924  0.00  0.00    +0.029 C 
ENDBRANCH   3   7
BRANCH   2  19
ATOM     19  N   UNL     1      -0.649  -1.858  -0.776  0.00  0.00    -0.355 N 
ATOM     20  H   UNL     1      -0.682  -0.901  -0.618  0.00  0.00    +0.142 HD
ATOM     21  H   UNL     1      -1.416  -2.312  -1.159  0.00  0.00    +0.142 HD
ENDBRANCH   2  19
BRANCH   1  22
ATOM     22  C   UNL     1       1.942  -0.668   0.456  0.00  0.00    +0.056 C 
BRANCH  22  24
ATOM     23  C   UNL     1       1.701   1.067   2.237  0.00  0.00    +0.004 C 
ATOM     24  C   UNL     1       1.411  -0.388   1.863  0.00  0.00    +0.003 C 
ENDBRANCH  22  24
ENDBRANCH   1  22
TORSDOF 4
