REMARK  Name = ZINC35490391
REMARK  4 active torsions:
REMARK  status: ('A' for Active; 'I' for Inactive)
REMARK    1  A    between atoms: C_1  and  O_2
REMARK    2  A    between atoms: O_2  and  C_3
REMARK    3  A    between atoms: C_5  and  C_11
REMARK    4  A    between atoms: C_8  and  O_9
REMARK                            x       y       z     vdW  Elec       q    Type
REMARK                         _______ _______ _______ _____ _____    ______ ____
ROOT
ATOM      1  C   UNL     1      -4.871   0.258   0.039  0.00  0.00    +0.152 C 
ATOM      2  C   UNL     1      -5.461   0.307  -1.332  0.00  0.00    +0.072 A 
ATOM      3  C   UNL     1      -4.939   0.849  -2.590  0.00  0.00    +0.199 A 
ATOM      4  O   UNL     1      -3.787   1.220  -2.729  0.00  0.00    -0.287 OA
ATOM      5  C   UNL     1      -5.947   0.902  -3.679  0.00  0.00    +0.067 A 
ATOM      6  C   UNL     1      -5.664   1.571  -4.870  0.00  0.00    +0.053 A 
ATOM      7  C   UNL     1      -6.614   1.615  -5.869  0.00  0.00    +0.124 A 
ATOM      8  C   UNL     1      -7.845   0.994  -5.686  0.00  0.00    +0.042 A 
ATOM      9  C   UNL     1      -8.132   0.330  -4.515  0.00  0.00    +0.050 A 
ATOM     10  C   UNL     1      -7.187   0.270  -3.491  0.00  0.00    +0.140 A 
ATOM     11  O   UNL     1      -7.492  -0.399  -2.355  0.00  0.00    -0.450 OA
ATOM     12  C   UNL     1      -6.696  -0.276  -1.275  0.00  0.00    +0.199 A 
ATOM     13  C   UNL     1      -6.940  -0.707   0.112  0.00  0.00    +0.289 C 
ATOM     14  O   UNL     1      -7.950  -1.258   0.501  0.00  0.00    -0.266 OA
ATOM     15  N   UNL     1      -5.879  -0.399   0.888  0.00  0.00    -0.230 N 
ATOM     16  C   UNL     1      -5.758  -0.656   2.247  0.00  0.00    +0.191 A 
ATOM     17  N   UNL     1      -4.763  -0.386   3.082  0.00  0.00    -0.126 NA
ATOM     18  N   UNL     1      -4.818  -0.693   4.304  0.00  0.00    -0.148 NA
ATOM     19  C   UNL     1      -5.865  -1.300   4.829  0.00  0.00    +0.183 A 
ATOM     20  S   UNL     1      -6.904  -1.441   3.377  0.00  0.00    -0.038 S 
ATOM     21  F   UNL     1      -6.349   2.261  -7.025  0.00  0.00    -0.205 F 
ENDROOT
BRANCH   1  24
ATOM     22  C   UNL     1      -1.201  -0.638   0.010  0.00  0.00    +0.163 A 
ATOM     23  C   UNL     1      -2.374   0.100   0.019  0.00  0.00    +0.055 A 
ATOM     24  C   UNL     1      -3.597  -0.546   0.028  0.00  0.00    -0.017 A 
ATOM     25  C   UNL     1      -3.653  -1.927   0.028  0.00  0.00    +0.025 A 
ATOM     26  C   UNL     1      -2.486  -2.669   0.018  0.00  0.00    +0.063 A 
ATOM     27  C   UNL     1      -1.257  -2.028   0.003  0.00  0.00    +0.173 A 
ATOM     28 BR   UNL     1      -2.567  -4.559   0.019  0.00  0.00    -0.046 Br
BRANCH  22  30
ATOM     29  C   UNL     1      -0.017   1.425   0.010  0.00  0.00    +0.277 C 
ATOM     30  O   UNL     1       0.002  -0.004   0.002  0.00  0.00    -0.491 OA
ENDBRANCH  22  30
BRANCH  27  31
ATOM     31  O   UNL     1      -0.108  -2.756  -0.012  0.00  0.00    -0.503 OA
ATOM     32  H   UNL     1       0.233  -2.971   0.867  0.00  0.00    +0.292 HD
ENDBRANCH  27  31
ENDBRANCH   1  24
TORSDOF 3
