REMARK  Name = ZINC63205408
REMARK  11 active torsions:
REMARK  status: ('A' for Active; 'I' for Inactive)
REMARK    1  A    between atoms: C_1  and  O_2
REMARK    2  A    between atoms: O_2  and  C_3
REMARK    3  A    between atoms: C_5  and  C_18
REMARK    4  A    between atoms: C_8  and  O_9
REMARK    5  A    between atoms: O_9  and  C_10
REMARK    6  A    between atoms: C_10  and  C_11
REMARK    7  A    between atoms: C_19  and  C_20
REMARK    8  A    between atoms: C_19  and  C_22
REMARK    9  A    between atoms: N_24  and  C_25
REMARK   10  A    between atoms: C_25  and  C_26
REMARK   11  A    between atoms: C_26  and  C_27
REMARK                            x       y       z     vdW  Elec       q    Type
REMARK                         _______ _______ _______ _____ _____    ______ ____
ROOT
ATOM      1  C   UNL     1      -4.896   0.217   0.285  0.00  0.00    +0.032 C 
ATOM      2  C   UNL     1      -6.064  -0.429  -0.059  0.00  0.00    +0.114 C 
ENDROOT
BRANCH   1   5
ATOM      3  C   UNL     1      -1.448  -1.082   0.966  0.00  0.00    +0.162 A 
ATOM      4  C   UNL     1      -2.484  -0.369   0.400  0.00  0.00    +0.057 A 
ATOM      5  C   UNL     1      -3.791  -0.537   0.881  0.00  0.00    -0.020 A 
ATOM      6  C   UNL     1      -4.035  -1.429   1.935  0.00  0.00    +0.012 A 
ATOM      7  C   UNL     1      -2.994  -2.135   2.493  0.00  0.00    +0.050 A 
ATOM      8  C   UNL     1      -1.701  -1.971   2.011  0.00  0.00    +0.162 A 
BRANCH   3  10
ATOM      9  C   UNL     1       0.007   0.006  -0.569  0.00  0.00    +0.277 C 
ATOM     10  O   UNL     1      -0.179  -0.921   0.502  0.00  0.00    -0.491 OA
ENDBRANCH   3  10
BRANCH   8  11
ATOM     11  O   UNL     1      -0.679  -2.675   2.562  0.00  0.00    -0.484 OA
BRANCH  11  12
ATOM     12  C   UNL     1      -1.008  -3.568   3.628  0.00  0.00    +0.267 C 
BRANCH  12  13
ATOM     13  C   UNL     1       0.243  -4.257   4.110  0.00  0.00    +0.025 A 
ATOM     14  C   UNL     1       1.461  -3.968   3.524  0.00  0.00    +0.010 A 
ATOM     15  C   UNL     1       2.608  -4.600   3.966  0.00  0.00    +0.001 A 
ATOM     16  C   UNL     1       2.539  -5.520   4.995  0.00  0.00    +0.003 A 
ATOM     17  C   UNL     1       1.323  -5.810   5.583  0.00  0.00    +0.039 A 
ATOM     18  C   UNL     1       0.174  -5.174   5.145  0.00  0.00    +0.130 A 
ATOM     19  F   UNL     1      -1.015  -5.453   5.722  0.00  0.00    -0.205 F 
ENDBRANCH  12  13
ENDBRANCH  11  12
ENDBRANCH   8  11
ENDBRANCH   1   5
BRANCH   2  20
ATOM     20  C   UNL     1      -6.118  -1.899  -0.061  0.00  0.00    +0.254 C 
ATOM     21  O   UNL     1      -5.103  -2.546   0.113  0.00  0.00    -0.269 OA
ATOM     22  N   UNL     1      -7.293  -2.530  -0.256  0.00  0.00    -0.310 N 
ATOM     23  H   UNL     1      -8.103  -2.014  -0.395  0.00  0.00    +0.149 HD
BRANCH  22  24
ATOM     24  C   UNL     1      -7.347  -3.994  -0.259  0.00  0.00    +0.109 C 
BRANCH  24  25
ATOM     25  C   UNL     1      -8.788  -4.450  -0.499  0.00  0.00    +0.052 C 
BRANCH  25  26
ATOM     26  C   UNL     1      -8.844  -5.956  -0.502  0.00  0.00    -0.040 C 
ATOM     27  C   UNL     1      -9.151  -6.760   0.541  0.00  0.00    -0.001 A 
ATOM     28  C   UNL     1      -9.510  -6.484   1.938  0.00  0.00    +0.010 A 
ATOM     29  C   UNL     1      -9.768  -7.521   2.766  0.00  0.00    +0.001 A 
ATOM     30  C   UNL     1      -9.701  -8.851   2.326  0.00  0.00    +0.002 A 
ATOM     31  C   UNL     1      -9.378  -9.184   1.058  0.00  0.00    +0.026 A 
ATOM     32  C   UNL     1      -9.087  -8.172   0.101  0.00  0.00    +0.043 A 
ATOM     33  N   UNL     1      -8.754  -8.239  -1.165  0.00  0.00    -0.380 N 
ATOM     34  C   UNL     1      -8.574  -6.874  -1.673  0.00  0.00    +0.144 C 
ATOM     35  H   UNL     1      -8.648  -9.053  -1.680  0.00  0.00    +0.160 HD
ENDBRANCH  25  26
ENDBRANCH  24  25
ENDBRANCH  22  24
ENDBRANCH   2  20
BRANCH   2  36
ATOM     36  C   UNL     1      -7.224   0.331  -0.414  0.00  0.00    +0.104 C 
ATOM     37  N   UNL     1      -8.145   0.934  -0.695  0.00  0.00    -0.191 NA
ENDBRANCH   2  36
TORSDOF 10
