REMARK  Name = ZINC00863396
REMARK  11 active torsions:
REMARK  status: ('A' for Active; 'I' for Inactive)
REMARK    1  A    between atoms: C_1  and  C_2
REMARK    2  A    between atoms: C_2  and  O_3
REMARK    3  A    between atoms: O_3  and  C_4
REMARK    4  A    between atoms: C_4  and  C_6
REMARK    5  A    between atoms: C_7  and  C_37
REMARK    6  A    between atoms: C_11  and  C_13
REMARK    7  A    between atoms: C_24  and  C_27
REMARK    8  A    between atoms: C_30  and  O_35
REMARK    9  A    between atoms: C_31  and  O_33
REMARK   10  A    between atoms: O_33  and  C_34
REMARK   11  A    between atoms: O_35  and  C_36
REMARK                            x       y       z     vdW  Elec       q    Type
REMARK                         _______ _______ _______ _____ _____    ______ ____
ROOT
ATOM      1  C   UNL     1       6.055  -3.238  -7.929  0.00  0.00    +0.065 C 
ATOM      2  C   UNL     1       6.699  -3.216  -6.749  0.00  0.00    +0.016 C 
ATOM      3  N   UNL     1       5.997  -3.255  -5.576  0.00  0.00    -0.321 N 
ATOM      4  C   UNL     1       4.670  -2.920  -5.546  0.00  0.00    +0.016 C 
ATOM      5  C   UNL     1       3.935  -2.931  -6.678  0.00  0.00    +0.024 C 
ATOM      6  C   UNL     1       4.558  -3.314  -7.997  0.00  0.00    +0.092 C 
ATOM      7  C   UNL     1       2.571  -2.591  -6.661  0.00  0.00    +0.162 C 
ATOM      8  O   UNL     1       1.942  -2.594  -7.701  0.00  0.00    -0.292 OA
ATOM      9  C   UNL     1       1.876  -2.224  -5.378  0.00  0.00    +0.088 C 
ATOM     10  C   UNL     1       2.575  -2.931  -4.213  0.00  0.00    +0.032 C 
ATOM     11  C   UNL     1       4.054  -2.538  -4.223  0.00  0.00    +0.059 C 
ATOM     12  C   UNL     1       8.204  -3.147  -6.719  0.00  0.00    +0.061 C 
ATOM     13  H   UNL     1       6.499  -3.557  -4.645  0.00  0.00    +0.152 HD
ENDROOT
BRANCH   6  14
ATOM     14  C   UNL     1       4.151  -4.722  -8.346  0.00  0.00    -0.034 A 
ATOM     15  C   UNL     1       4.484  -5.767  -7.504  0.00  0.00    +0.006 A 
ATOM     16  C   UNL     1       4.107  -7.058  -7.820  0.00  0.00    +0.022 A 
ATOM     17  C   UNL     1       3.405  -7.308  -8.986  0.00  0.00    +0.059 A 
ATOM     18  C   UNL     1       3.076  -6.263  -9.832  0.00  0.00    +0.060 A 
ATOM     19  C   UNL     1       3.450  -4.970  -9.511  0.00  0.00    +0.026 A 
ATOM     20 CL   UNL     1       2.195  -6.574 -11.295  0.00  0.00    -0.082 Cl
ATOM     21 CL   UNL     1       2.938  -8.931  -9.387  0.00  0.00    -0.082 Cl
ENDBRANCH   6  14
BRANCH  10  22
ATOM     22  C   UNL     1       1.947  -2.504  -2.911  0.00  0.00    -0.040 A 
ATOM     23  C   UNL     1       1.938  -1.168  -2.555  0.00  0.00    +0.008 A 
ATOM     24  C   UNL     1       1.358  -0.771  -1.365  0.00  0.00    +0.049 A 
ATOM     25  C   UNL     1       0.793  -1.714  -0.520  0.00  0.00    +0.161 A 
ATOM     26  C   UNL     1       0.802  -3.058  -0.879  0.00  0.00    +0.162 A 
ATOM     27  C   UNL     1       1.380  -3.449  -2.076  0.00  0.00    +0.053 A 
BRANCH  26  28
ATOM     28  O   UNL     1       0.244  -3.986  -0.056  0.00  0.00    -0.491 OA
ATOM     29  C   UNL     1       0.290  -5.348  -0.489  0.00  0.00    +0.277 C 
ENDBRANCH  26  28
BRANCH  25  30
ATOM     30  O   UNL     1       0.227  -1.325   0.653  0.00  0.00    -0.491 OA
ATOM     31  C   UNL     1       0.255   0.071   0.956  0.00  0.00    +0.277 C 
ENDBRANCH  25  30
ENDBRANCH  10  22
BRANCH   1  32
ATOM     32  C   UNL     1       6.803  -3.188  -9.128  0.00  0.00    +0.338 C 
ATOM     33  O   UNL     1       8.005  -3.002  -9.088  0.00  0.00    -0.245 OA
BRANCH  32  34
ATOM     34  O   UNL     1       6.183  -3.345 -10.317  0.00  0.00    -0.462 OA
BRANCH  34  36
ATOM     35  C   UNL     1       6.128  -3.482 -12.729  0.00  0.00    +0.048 C 
ATOM     36  C   UNL     1       7.000  -3.283 -11.487  0.00  0.00    +0.229 C 
ENDBRANCH  34  36
ENDBRANCH  32  34
ENDBRANCH   1  32
TORSDOF 7
