REMARK  Name = ZINC01268782
REMARK  9 active torsions:
REMARK  status: ('A' for Active; 'I' for Inactive)
REMARK    1  A    between atoms: C_1  and  C_2
REMARK    2  A    between atoms: C_2  and  C_3
REMARK    3  A    between atoms: C_2  and  C_4
REMARK    4  A    between atoms: C_2  and  C_5
REMARK    5  A    between atoms: C_8  and  C_11
REMARK    6  A    between atoms: C_16  and  C_33
REMARK    7  A    between atoms: C_26  and  C_28
REMARK    8  A    between atoms: C_28  and  C_29
REMARK    9  A    between atoms: C_29  and  C_30
REMARK                            x       y       z     vdW  Elec       q    Type
REMARK                         _______ _______ _______ _____ _____    ______ ____
ROOT
ATOM      1  C   UNL     1       2.707   4.554  -4.246  0.00  0.00    +0.032 C 
ATOM      2  C   UNL     1       3.051   5.791  -3.417  0.00  0.00    +0.059 C 
ATOM      3  C   UNL     1       2.686   5.559  -1.961  0.00  0.00    +0.017 C 
ATOM      4  C   UNL     1       2.754   4.327  -1.427  0.00  0.00    +0.037 C 
ATOM      5  C   UNL     1       2.427   3.960   0.000  0.00  0.00    +0.147 C 
ATOM      6  N   UNL     1       2.266   5.091   0.890  0.00  0.00    -0.258 N 
ATOM      7  C   UNL     1       1.226   6.003   0.711  0.00  0.00    +0.058 A 
ATOM      8  C   UNL     1       0.188   6.102   1.623  0.00  0.00    +0.025 A 
ATOM      9  C   UNL     1      -0.881   6.938   1.348  0.00  0.00    +0.002 A 
ATOM     10  C   UNL     1      -0.913   7.670   0.175  0.00  0.00    +0.002 A 
ATOM     11  C   UNL     1       0.133   7.590  -0.727  0.00  0.00    +0.025 A 
ATOM     12  C   UNL     1       1.211   6.768  -0.445  0.00  0.00    +0.053 A 
ATOM     13  N   UNL     1       2.315   6.675  -1.283  0.00  0.00    -0.316 N 
ATOM     14  C   UNL     1       3.134   5.264   1.906  0.00  0.00    +0.221 C 
ATOM     15  O   UNL     1       4.042   4.477   2.070  0.00  0.00    -0.275 OA
ATOM     16  C   UNL     1       3.159   3.228  -2.222  0.00  0.00    +0.163 C 
ATOM     17  O   UNL     1       3.231   2.129  -1.710  0.00  0.00    -0.292 OA
ATOM     18  C   UNL     1       3.501   3.374  -3.675  0.00  0.00    +0.088 C 
ATOM     19  H   UNL     1       2.908   7.597  -1.376  0.00  0.00    +0.152 HD
ENDROOT
BRANCH   1  23
ATOM     20  C   UNL     1       3.795   5.194  -8.327  0.00  0.00    -0.042 A 
ATOM     21  C   UNL     1       2.485   4.897  -7.999  0.00  0.00    +0.004 A 
ATOM     22  C   UNL     1       2.133   4.691  -6.678  0.00  0.00    +0.004 A 
ATOM     23  C   UNL     1       3.091   4.780  -5.686  0.00  0.00    -0.043 A 
ATOM     24  C   UNL     1       4.399   5.081  -6.013  0.00  0.00    +0.004 A 
ATOM     25  C   UNL     1       4.753   5.284  -7.334  0.00  0.00    +0.004 A 
BRANCH  20  27
ATOM     26  C   UNL     1       3.381   6.598 -10.329  0.00  0.00    +0.015 C 
ATOM     27  C   UNL     1       4.179   5.420  -9.767  0.00  0.00    -0.013 C 
ATOM     28  C   UNL     1       5.675   5.729  -9.853  0.00  0.00    +0.015 C 
ATOM     29  C   UNL     1       3.871   4.161 -10.580  0.00  0.00    +0.015 C 
ENDBRANCH  20  27
ENDBRANCH   1  23
BRANCH   5  30
ATOM     30  C   UNL     1       1.150   3.161   0.008  0.00  0.00    -0.019 A 
ATOM     31  C   UNL     1       1.142   1.839   0.426  0.00  0.00    +0.025 A 
ATOM     32  C   UNL     1      -0.049   1.138   0.419  0.00  0.00    +0.111 A 
ATOM     33  N   UNL     1      -1.167   1.711   0.017  0.00  0.00    -0.263 NA
ATOM     34  C   UNL     1      -1.198   2.967  -0.382  0.00  0.00    +0.111 A 
ATOM     35  C   UNL     1      -0.046   3.731  -0.403  0.00  0.00    +0.025 A 
ENDBRANCH   5  30
BRANCH  14  36
ATOM     36  C   UNL     1       2.977   6.437   2.839  0.00  0.00    +0.107 C 
BRANCH  36  37
ATOM     37  C   UNL     1       4.083   6.401   3.896  0.00  0.00    +0.134 C 
BRANCH  37  38
ATOM     38  C   UNL     1       3.925   7.574   4.829  0.00  0.00    +0.356 C 
ATOM     39  O   UNL     1       3.021   8.358   4.665  0.00  0.00    -0.246 OA
ATOM     40  O   UNL     1       4.790   7.747   5.841  0.00  0.00    -0.246 OA
ENDBRANCH  37  38
ENDBRANCH  36  37
ENDBRANCH  14  36
TORSDOF 6
