REMARK  Name = ZINC20615164
REMARK  9 active torsions:
REMARK  status: ('A' for Active; 'I' for Inactive)
REMARK    1  A    between atoms: C_1  and  C_2
REMARK    2  A    between atoms: C_2  and  N_3
REMARK    3  A    between atoms: C_5  and  C_9
REMARK    4  A    between atoms: C_6  and  C_8
REMARK    5  A    between atoms: C_11  and  C_28
REMARK    6  A    between atoms: C_13  and  C_25
REMARK    7  A    between atoms: N_15  and  C_18
REMARK    8  A    between atoms: C_25  and  C_26
REMARK    9  A    between atoms: C_25  and  C_27
REMARK                            x       y       z     vdW  Elec       q    Type
REMARK                         _______ _______ _______ _____ _____    ______ ____
ROOT
ATOM      1  C   UNL     1      -1.311   2.346  -0.104  0.00  0.00    +0.077 A 
ATOM      2  C   UNL     1      -2.594   1.788  -0.115  0.00  0.00    +0.038 A 
ATOM      3  C   UNL     1      -3.687   2.604  -0.034  0.00  0.00    +0.032 A 
ATOM      4  C   UNL     1      -3.479   3.989   0.059  0.00  0.00    +0.051 A 
ATOM      5  C   UNL     1      -4.345   5.103   0.156  0.00  0.00    +0.076 A 
ATOM      6  N   UNL     1      -3.624   6.185   0.216  0.00  0.00    -0.169 NA
ATOM      7  N   UNL     1      -2.265   5.853   0.164  0.00  0.00    -0.214 N 
ATOM      8  C   UNL     1      -2.162   4.488   0.065  0.00  0.00    +0.165 A 
ATOM      9  N   UNL     1      -1.133   3.655  -0.011  0.00  0.00    -0.227 NA
ENDROOT
BRANCH   7  10
ATOM     10  C   UNL     1      -1.196   6.757   0.204  0.00  0.00    +0.068 A 
ATOM     11  C   UNL     1      -0.017   6.410   0.851  0.00  0.00    +0.030 A 
ATOM     12  C   UNL     1       1.038   7.301   0.886  0.00  0.00    +0.040 A 
ATOM     13  C   UNL     1       0.917   8.543   0.285  0.00  0.00    +0.124 A 
ATOM     14  C   UNL     1      -0.260   8.893  -0.356  0.00  0.00    +0.040 A 
ATOM     15  C   UNL     1      -1.315   8.003  -0.397  0.00  0.00    +0.030 A 
ATOM     16  F   UNL     1       1.948   9.415   0.325  0.00  0.00    -0.205 F 
ENDBRANCH   7  10
BRANCH   1  19
ATOM     17  N   UNL     1       1.127  -0.330  -0.350  0.00  0.00    -0.271 N 
ATOM     18  C   UNL     1      -0.150   0.094  -0.287  0.00  0.00    +0.118 A 
ATOM     19  C   UNL     1      -0.129   1.456  -0.192  0.00  0.00    +0.041 A 
ATOM     20  C   UNL     1       1.221   1.861  -0.198  0.00  0.00    +0.069 A 
ATOM     21  N   UNL     1       1.964   0.791  -0.292  0.00  0.00    -0.176 NA
ATOM     22  C   UNL     1       1.719   3.281  -0.112  0.00  0.00    +0.068 C 
BRANCH  17  24
ATOM     23  C   UNL     1       2.477  -1.878  -1.678  0.00  0.00    +0.029 C 
ATOM     24  C   UNL     1       1.566  -1.723  -0.458  0.00  0.00    +0.140 C 
ENDBRANCH  17  24
ENDBRANCH   1  19
BRANCH   5  25
ATOM     25  C   UNL     1      -5.851   5.047   0.185  0.00  0.00    +0.034 C 
ATOM     26  C   UNL     1      -6.366   5.794   1.417  0.00  0.00    +0.014 C 
ATOM     27  C   UNL     1      -6.410   5.703  -1.079  0.00  0.00    +0.014 C 
ENDBRANCH   5  25
BRANCH   3  28
ATOM     28  C   UNL     1      -5.081   2.031  -0.044  0.00  0.00    +0.372 C 
ATOM     29  F   UNL     1      -5.720   2.339   1.162  0.00  0.00    -0.204 F 
ATOM     30  F   UNL     1      -5.804   2.581  -1.108  0.00  0.00    -0.204 F 
ENDBRANCH   3  28
TORSDOF 5
