REMARK  Name = ZINC63205605
REMARK  8 active torsions:
REMARK  status: ('A' for Active; 'I' for Inactive)
REMARK    1  A    between atoms: C_1  and  C_2
REMARK    2  A    between atoms: C_2  and  C_4
REMARK    3  A    between atoms: C_2  and  N_21
REMARK    4  A    between atoms: C_9  and  C_12
REMARK    5  A    between atoms: N_21  and  S_22
REMARK    6  A    between atoms: S_22  and  C_25
REMARK    7  A    between atoms: C_28  and  N_31
REMARK    8  A    between atoms: C_32  and  C_34
REMARK                            x       y       z     vdW  Elec       q    Type
REMARK                         _______ _______ _______ _____ _____    ______ ____
ROOT
ATOM      1  C   UNL     1       0.228  -0.738   1.313  0.00  0.00    +0.237 C 
ATOM      2  O   UNL     1       1.262  -1.370   1.271  0.00  0.00    -0.274 OA
ATOM      3  N   UNL     1      -0.387  -0.529   2.494  0.00  0.00    -0.263 N 
ATOM      4  C   UNL     1       0.164  -1.036   3.662  0.00  0.00    +0.165 A 
ATOM      5  N   UNL     1      -0.285  -0.943   4.895  0.00  0.00    -0.225 NA
ATOM      6  C   UNL     1       0.420  -1.517   5.878  0.00  0.00    +0.079 A 
ATOM      7  C   UNL     1       1.591  -2.184   5.543  0.00  0.00    +0.076 A 
ATOM      8  S   UNL     1       1.657  -1.988   3.873  0.00  0.00    -0.060 S 
ATOM      9  H   UNL     1      -1.214  -0.023   2.528  0.00  0.00    +0.157 HD
ENDROOT
BRANCH   6  10
ATOM     10  C   UNL     1      -0.016  -1.447   7.218  0.00  0.00    +0.007 C 
ATOM     11  C   UNL     1      -1.165  -0.822   7.698  0.00  0.00    +0.005 A 
ATOM     12  C   UNL     1      -2.199  -0.105   7.056  0.00  0.00    +0.010 A 
ATOM     13  C   UNL     1      -3.220   0.405   7.791  0.00  0.00    +0.001 A 
ATOM     14  C   UNL     1      -3.277   0.241   9.177  0.00  0.00    +0.002 A 
ATOM     15  C   UNL     1      -2.320  -0.436   9.858  0.00  0.00    +0.026 A 
ATOM     16  C   UNL     1      -1.221  -0.999   9.158  0.00  0.00    +0.043 A 
ATOM     17  N   UNL     1      -0.179  -1.688   9.580  0.00  0.00    -0.380 N 
ATOM     18  C   UNL     1       0.663  -2.040   8.433  0.00  0.00    +0.151 C 
ATOM     19  H   UNL     1      -0.001  -1.928  10.503  0.00  0.00    +0.160 HD
ENDBRANCH   6  10
BRANCH   1  21
ATOM     20  C   UNL     1      -0.467   1.337   0.146  0.00  0.00    +0.035 C 
ATOM     21  C   UNL     1      -0.371  -0.187   0.044  0.00  0.00    +0.159 C 
BRANCH  21  22
ATOM     22  N   UNL     1       0.479  -0.547  -1.093  0.00  0.00    -0.178 NA
ATOM     23  H   UNL     1       1.442  -0.587  -0.986  0.00  0.00    +0.149 HD
BRANCH  22  24
ATOM     24  S   UNL     1      -0.205  -0.888  -2.562  0.00  0.00    +0.059 S 
ATOM     25  O   UNL     1       0.866  -1.171  -3.453  0.00  0.00    -0.153 OA
ATOM     26  O   UNL     1      -1.256  -1.812  -2.317  0.00  0.00    -0.153 OA
BRANCH  24  27
ATOM     27  C   UNL     1      -0.963   0.594  -3.140  0.00  0.00    +0.105 A 
ATOM     28  C   UNL     1      -2.279   0.868  -2.815  0.00  0.00    +0.030 A 
ATOM     29  C   UNL     1      -2.875   2.029  -3.267  0.00  0.00    +0.025 A 
ATOM     30  C   UNL     1      -2.153   2.921  -4.048  0.00  0.00    +0.033 A 
ATOM     31  C   UNL     1      -0.831   2.643  -4.372  0.00  0.00    +0.025 A 
ATOM     32  C   UNL     1      -0.239   1.483  -3.913  0.00  0.00    +0.030 A 
BRANCH  30  33
ATOM     33  N   UNL     1      -2.755   4.098  -4.507  0.00  0.00    -0.286 N 
ATOM     34  C   UNL     1      -3.680   4.721  -3.751  0.00  0.00    +0.214 C 
ATOM     35  O   UNL     1      -3.923   4.317  -2.634  0.00  0.00    -0.276 OA
ATOM     36  C   UNL     1      -4.415   5.920  -4.295  0.00  0.00    +0.109 C 
ATOM     37  H   UNL     1      -2.506   4.465  -5.370  0.00  0.00    +0.155 HD
ENDBRANCH  30  33
ENDBRANCH  24  27
ENDBRANCH  22  24
ENDBRANCH  21  22
ENDBRANCH   1  21
TORSDOF 6
