REMARK  Name = ZINC60355120
REMARK  8 active torsions:
REMARK  status: ('A' for Active; 'I' for Inactive)
REMARK    1  A    between atoms: C_1  and  C_2
REMARK    2  A    between atoms: C_5  and  C_7
REMARK    3  A    between atoms: C_7  and  C_9
REMARK    4  A    between atoms: C_7  and  N_26
REMARK    5  A    between atoms: C_9  and  N_10
REMARK    6  A    between atoms: C_11  and  C_13
REMARK    7  A    between atoms: N_16  and  C_19
REMARK    8  A    between atoms: C_17  and  C_18
REMARK                            x       y       z     vdW  Elec       q    Type
REMARK                         _______ _______ _______ _____ _____    ______ ____
ROOT
ATOM      1  N   UNL     1       3.278  -4.846   2.174  0.00  0.00    -0.312 N 
ATOM      2  C   UNL     1       4.123  -5.311   3.115  0.00  0.00    +0.247 C 
ATOM      3  O   UNL     1       4.131  -4.814   4.225  0.00  0.00    -0.270 OA
ATOM      4  H   UNL     1       3.272  -5.242   1.289  0.00  0.00    +0.149 HD
ENDROOT
BRANCH   2   5
ATOM      5  C   UNL     1       5.038  -6.423   2.799  0.00  0.00    +0.077 A 
ATOM      6  C   UNL     1       5.148  -7.093   1.560  0.00  0.00    +0.148 A 
ATOM      7  N   UNL     1       6.066  -8.013   1.676  0.00  0.00    -0.174 NA
ATOM      8  N   UNL     1       6.581  -7.977   2.977  0.00  0.00    -0.236 N 
ATOM      9  C   UNL     1       5.953  -7.000   3.657  0.00  0.00    +0.054 A 
ATOM     10  C   UNL     1       6.202  -6.610   5.091  0.00  0.00    +0.066 C 
BRANCH   8  11
ATOM     11  C   UNL     1       7.585  -8.814   3.484  0.00  0.00    +0.066 A 
ATOM     12  C   UNL     1       8.697  -9.114   2.709  0.00  0.00    +0.029 A 
ATOM     13  C   UNL     1       9.685  -9.938   3.211  0.00  0.00    +0.017 A 
ATOM     14  C   UNL     1       9.566 -10.465   4.485  0.00  0.00    +0.018 A 
ATOM     15  C   UNL     1       8.459 -10.168   5.259  0.00  0.00    +0.017 A 
ATOM     16  C   UNL     1       7.471  -9.339   4.764  0.00  0.00    +0.029 A 
ATOM     17 BR   UNL     1      10.921 -11.594   5.169  0.00  0.00    -0.050 Br
ENDBRANCH   8  11
ENDBRANCH   2   5
BRANCH   1  18
ATOM     18  C   UNL     1       2.369  -3.741   2.488  0.00  0.00    +0.097 C 
BRANCH  18  19
ATOM     19  C   UNL     1       1.437  -3.494   1.300  0.00  0.00    +0.016 C 
BRANCH  19  24
ATOM     20  C   UNL     1      -2.368  -6.750   1.911  0.00  0.00    +0.086 C 
ATOM     21  C   UNL     1      -1.115  -6.106   1.376  0.00  0.00    +0.102 A 
ATOM     22  C   UNL     1      -0.353  -6.580   0.374  0.00  0.00    +0.044 A 
ATOM     23  C   UNL     1       0.713  -5.668   0.202  0.00  0.00    +0.043 A 
ATOM     24  C   UNL     1       0.539  -4.690   1.110  0.00  0.00    +0.093 A 
ATOM     25  O   UNL     1      -0.573  -4.958   1.814  0.00  0.00    -0.466 OA
ENDBRANCH  19  24
BRANCH  19  26
ATOM     26  N   UNL     1       0.617  -2.304   1.560  0.00  0.00    +0.387 N 
ATOM     27  C   UNL     1       1.485  -1.108   1.716  0.00  0.00    -0.078 C 
ATOM     28  C   UNL     1       0.524   0.069   1.414  0.00  0.00    -0.020 C 
ATOM     29  C   UNL     1      -0.361  -0.489   0.277  0.00  0.00    -0.020 C 
ATOM     30  C   UNL     1      -0.254  -2.021   0.399  0.00  0.00    -0.078 C 
ATOM     31  H   UNL     1       0.058  -2.439   2.389  0.00  0.00    -0.081 HD
ENDBRANCH  19  26
ENDBRANCH  18  19
ENDBRANCH   1  18
TORSDOF 6
