REMARK  Name = ZINC64656848
REMARK  6 active torsions:
REMARK  status: ('A' for Active; 'I' for Inactive)
REMARK    1  A    between atoms: C_1  and  C_2
REMARK    2  A    between atoms: C_2  and  O_3
REMARK    3  A    between atoms: O_3  and  C_4
REMARK    4  A    between atoms: C_9  and  C_10
REMARK    5  A    between atoms: C_20  and  S_21
REMARK    6  A    between atoms: S_21  and  C_24
REMARK                            x       y       z     vdW  Elec       q    Type
REMARK                         _______ _______ _______ _____ _____    ______ ____
ROOT
ATOM      1  C   UNL     1      -3.626  -2.114   0.707  0.00  0.00    +0.070 C 
ATOM      2  C   UNL     1      -4.334  -2.275  -0.645  0.00  0.00    +0.109 C 
ATOM      3  C   UNL     1      -5.653  -1.555  -0.639  0.00  0.00    +0.218 C 
ATOM      4  O   UNL     1      -6.003  -0.983  -1.650  0.00  0.00    -0.275 OA
ATOM      5  N   UNL     1      -6.464  -1.515   0.432  0.00  0.00    -0.283 N 
ATOM      6  C   UNL     1      -5.977  -1.997   1.681  0.00  0.00    +0.070 A 
ATOM      7  C   UNL     1      -4.641  -2.276   1.789  0.00  0.00    +0.021 A 
ATOM      8  S   UNL     1      -4.461  -2.842   3.454  0.00  0.00    -0.097 S 
ATOM      9  C   UNL     1      -6.166  -2.657   3.958  0.00  0.00    +0.074 A 
ATOM     10  C   UNL     1      -6.748  -2.192   2.824  0.00  0.00    +0.122 A 
ATOM     11  H   UNL     1      -7.365  -1.165   0.355  0.00  0.00    +0.155 HD
ENDROOT
BRANCH   1  17
ATOM     12  C   UNL     1      -1.234  -2.795   1.032  0.00  0.00    +0.124 A 
ATOM     13  C   UNL     1      -0.255  -3.768   1.169  0.00  0.00    +0.046 A 
ATOM     14  C   UNL     1      -0.599  -5.104   1.119  0.00  0.00    +0.004 A 
ATOM     15  C   UNL     1      -1.918  -5.474   0.932  0.00  0.00    +0.001 A 
ATOM     16  C   UNL     1      -2.896  -4.506   0.795  0.00  0.00    +0.008 A 
ATOM     17  C   UNL     1      -2.558  -3.168   0.851  0.00  0.00    +0.003 A 
BRANCH  12  18
ATOM     18  O   UNL     1      -0.899  -1.479   1.081  0.00  0.00    -0.492 OA
BRANCH  18  20
ATOM     19  C   UNL     1       0.666   0.350   1.299  0.00  0.00    +0.048 C 
ATOM     20  C   UNL     1       0.483  -1.169   1.270  0.00  0.00    +0.225 C 
ENDBRANCH  18  20
ENDBRANCH  12  18
ENDBRANCH   1  17
BRANCH  10  21
ATOM     21  S   UNL     1      -8.473  -1.834   2.798  0.00  0.00    +0.027 S 
ATOM     22  O   UNL     1      -8.973  -2.147   4.091  0.00  0.00    -0.164 OA
ATOM     23  O   UNL     1      -8.611  -0.543   2.220  0.00  0.00    -0.164 OA
BRANCH  21  24
ATOM     24  C   UNL     1      -9.224  -2.969   1.679  0.00  0.00    +0.094 A 
ATOM     25  C   UNL     1      -9.465  -2.594   0.371  0.00  0.00    +0.029 A 
ATOM     26  C   UNL     1     -10.054  -3.484  -0.507  0.00  0.00    +0.022 A 
ATOM     27  C   UNL     1     -10.403  -4.752  -0.076  0.00  0.00    +0.041 A 
ATOM     28  C   UNL     1     -10.161  -5.127   1.234  0.00  0.00    +0.022 A 
ATOM     29  C   UNL     1      -9.567  -4.238   2.109  0.00  0.00    +0.029 A 
ATOM     30 CL   UNL     1     -11.143  -5.870  -1.178  0.00  0.00    -0.084 Cl
ENDBRANCH  21  24
ENDBRANCH  10  21
TORSDOF 5
