REMARK  Name = ZINC13064809
REMARK  11 active torsions:
REMARK  status: ('A' for Active; 'I' for Inactive)
REMARK    1  A    between atoms: C_1  and  C_2
REMARK    2  A    between atoms: C_2  and  C_3
REMARK    3  A    between atoms: C_3  and  C_5
REMARK    4  A    between atoms: C_3  and  N_68
REMARK    5  A    between atoms: N_9  and  C_10
REMARK    6  A    between atoms: C_15  and  C_16
REMARK    7  A    between atoms: C_15  and  N_68
REMARK    8  A    between atoms: C_22  and  C_23
REMARK    9  A    between atoms: C_22  and  N_68
REMARK   10  A    between atoms: C_26  and  C_36
REMARK   11  A    between atoms: C_28  and  C_35
REMARK                            x       y       z     vdW  Elec       q    Type
REMARK                         _______ _______ _______ _____ _____    ______ ____
ROOT
ATOM      1  N   UNL     1       5.007   4.745  -1.493  0.00  0.00    +0.392 N 
ATOM      2  H   UNL     1       4.349   5.362  -1.984  0.00  0.00    -0.080 HD
ENDROOT
BRANCH   1   3
ATOM      3  C   UNL     1       6.305   5.438  -1.358  0.00  0.00    +0.003 C 
BRANCH   3   4
ATOM      4  C   UNL     1       7.235   4.650  -0.472  0.00  0.00    +0.138 A 
ATOM      5  N   UNL     1       6.906   3.969   0.599  0.00  0.00    -0.115 NA
ATOM      6  N   UNL     1       7.978   3.435   1.076  0.00  0.00    -0.023 NA
ATOM      7  N   UNL     1       8.982   3.764   0.341  0.00  0.00    -0.044 NA
ATOM      8  N   UNL     1       8.566   4.513  -0.623  0.00  0.00    -0.228 N 
BRANCH   8   9
ATOM      9  C   UNL     1       9.386   5.102  -1.684  0.00  0.00    +0.111 C 
ATOM     10  C   UNL     1      10.128   3.993  -2.457  0.00  0.00    +0.027 C 
ATOM     11  C   UNL     1      11.512   4.613  -2.775  0.00  0.00    +0.002 C 
ATOM     12  C   UNL     1      11.829   5.421  -1.493  0.00  0.00    +0.002 C 
ATOM     13  C   UNL     1      10.467   6.011  -1.071  0.00  0.00    +0.027 C 
ENDBRANCH   8   9
ENDBRANCH   3   4
BRANCH   3  15
ATOM     14  C   UNL     1       5.199   7.654  -1.690  0.00  0.00    +0.002 C 
ATOM     15  C   UNL     1       6.066   6.819  -0.745  0.00  0.00    -0.011 C 
ENDBRANCH   3  15
ENDBRANCH   1   3
BRANCH   1  16
ATOM     16  C   UNL     1       5.176   3.503  -2.275  0.00  0.00    -0.040 C 
BRANCH  16  17
ATOM     17  C   UNL     1       5.361   3.867  -3.726  0.00  0.00    -0.046 A 
ATOM     18  C   UNL     1       4.260   4.102  -4.537  0.00  0.00    +0.005 A 
ATOM     19  C   UNL     1       4.478   4.438  -5.864  0.00  0.00    +0.020 A 
ATOM     20  C   UNL     1       5.776   4.517  -6.334  0.00  0.00    +0.111 A 
ATOM     21  N   UNL     1       6.798   4.282  -5.536  0.00  0.00    -0.263 NA
ATOM     22  C   UNL     1       6.628   3.964  -4.267  0.00  0.00    +0.112 A 
ENDBRANCH  16  17
ENDBRANCH   1  16
BRANCH   1  23
ATOM     23  C   UNL     1       4.461   4.429  -0.156  0.00  0.00    -0.036 C 
BRANCH  23  24
ATOM     24  C   UNL     1       3.003   4.076  -0.299  0.00  0.00    +0.001 A 
ATOM     25  C   UNL     1       2.630   2.776  -0.394  0.00  0.00    +0.017 A 
ATOM     26  C   UNL     1       1.205   2.467  -0.533  0.00  0.00    +0.002 A 
ATOM     27  C   UNL     1       0.759   1.145  -0.636  0.00  0.00    -0.041 A 
ATOM     28  C   UNL     1      -0.577   0.889  -0.765  0.00  0.00    +0.007 A 
ATOM     29  C   UNL     1      -1.496   1.930  -0.795  0.00  0.00    -0.048 A 
ATOM     30  C   UNL     1      -1.079   3.240  -0.694  0.00  0.00    +0.029 A 
ATOM     31  C   UNL     1       0.277   3.524  -0.562  0.00  0.00    +0.050 A 
ATOM     32  N   UNL     1       0.722   4.825  -0.461  0.00  0.00    -0.322 N 
ATOM     33  H   UNL     1       0.081   5.553  -0.481  0.00  0.00    +0.169 HD
ATOM     34  C   UNL     1       2.032   5.100  -0.334  0.00  0.00    +0.251 A 
ATOM     35  O   UNL     1       2.390   6.261  -0.247  0.00  0.00    -0.268 OA
ATOM     36  C   UNL     1      -2.964   1.624  -0.938  0.00  0.00    +0.044 C 
ATOM     37  C   UNL     1       1.747   0.008  -0.605  0.00  0.00    +0.044 C 
ENDBRANCH  23  24
ENDBRANCH   1  23
TORSDOF 8
