REMARK  Name = ZINC02500103
REMARK  5 active torsions:
REMARK  status: ('A' for Active; 'I' for Inactive)
REMARK    1  A    between atoms: C_1  and  C_2
REMARK    2  A    between atoms: C_2  and  C_3
REMARK    3  A    between atoms: C_2  and  C_4
REMARK    4  A    between atoms: C_7  and  C_10
REMARK    5  A    between atoms: C_13  and  C_21
REMARK                            x       y       z     vdW  Elec       q    Type
REMARK                         _______ _______ _______ _____ _____    ______ ____
ROOT
ATOM      1  C   UNL     1      -5.419  -2.005   0.043  0.00  0.00    +0.106 C 
ATOM      2  C   UNL     1      -5.426  -3.459   0.527  0.00  0.00    +0.059 C 
ATOM      3  C   UNL     1      -6.869  -3.977   0.592  0.00  0.00    +0.149 C 
ATOM      4  N   UNL     1      -7.540  -3.662  -0.669  0.00  0.00    -0.225 N 
ATOM      5  C   UNL     1      -7.111  -2.725  -1.549  0.00  0.00    +0.215 A 
ATOM      6  N   UNL     1      -7.939  -2.710  -2.559  0.00  0.00    -0.202 NA
ATOM      7  C   UNL     1      -8.902  -3.616  -2.360  0.00  0.00    +0.247 A 
ATOM      8  N   UNL     1      -8.696  -4.220  -1.216  0.00  0.00    -0.156 NA
ATOM      9  N   UNL     1      -5.976  -1.956  -1.322  0.00  0.00    -0.307 N 
ATOM     10  H   UNL     1      -5.571  -1.420  -2.022  0.00  0.00    +0.149 HD
ENDROOT
BRANCH   1  14
ATOM     11  C   UNL     1      -1.412  -0.526   0.013  0.00  0.00    -0.045 A 
ATOM     12  C   UNL     1      -2.259  -0.204   1.056  0.00  0.00    +0.004 A 
ATOM     13  C   UNL     1      -3.556  -0.683   1.066  0.00  0.00    +0.006 A 
ATOM     14  C   UNL     1      -4.006  -1.482   0.032  0.00  0.00    -0.027 A 
ATOM     15  C   UNL     1      -3.159  -1.803  -1.012  0.00  0.00    +0.006 A 
ATOM     16  C   UNL     1      -1.863  -1.321  -1.024  0.00  0.00    +0.004 A 
BRANCH  11  18
ATOM     17  C   UNL     1      -0.019   1.526   0.010  0.00  0.00    +0.012 C 
ATOM     18  C   UNL     1       0.002  -0.004   0.002  0.00  0.00    +0.013 C 
ATOM     19  C   UNL     1       0.742  -0.511   1.242  0.00  0.00    +0.012 C 
ENDBRANCH  11  18
ENDBRANCH   1  14
BRANCH   3  20
ATOM     20  C   UNL     1      -6.861  -5.468   0.804  0.00  0.00    +0.014 A 
ATOM     21  C   UNL     1      -7.394  -6.188   1.822  0.00  0.00    +0.013 A 
ATOM     22  C   UNL     1      -7.265  -7.564   1.809  0.00  0.00    +0.008 A 
ATOM     23  C   UNL     1      -6.610  -8.153   0.779  0.00  0.00    +0.045 A 
ATOM     24  S   UNL     1      -6.155  -6.747  -0.222  0.00  0.00    -0.099 S 
ENDBRANCH   3  20
TORSDOF 3
