REMARK  Name = ZINC39853653
REMARK  7 active torsions:
REMARK  status: ('A' for Active; 'I' for Inactive)
REMARK    1  A    between atoms: C_1  and  O_2
REMARK    2  A    between atoms: O_2  and  C_3
REMARK    3  A    between atoms: C_8  and  C_9
REMARK    4  A    between atoms: C_9  and  C_11
REMARK    5  A    between atoms: C_9  and  N_29
REMARK    6  A    between atoms: C_15  and  N_16
REMARK    7  A    between atoms: C_17  and  C_19
REMARK                            x       y       z     vdW  Elec       q    Type
REMARK                         _______ _______ _______ _____ _____    ______ ____
ROOT
ATOM      1  C   UNL     1       1.068  -3.081  -1.079  0.00  0.00    +0.006 A 
ATOM      2  C   UNL     1       1.014  -2.357  -2.270  0.00  0.00    -0.030 A 
ATOM      3  C   UNL     1       1.965  -2.642  -3.200  0.00  0.00    -0.005 A 
ATOM      4  S   UNL     1       2.941  -3.910  -2.437  0.00  0.00    -0.078 S 
ATOM      5  C   UNL     1       2.043  -4.011  -0.895  0.00  0.00    +0.077 A 
ATOM      6  C   UNL     1       2.135  -2.022  -4.549  0.00  0.00    +0.043 C 
ATOM      7  C   UNL     1       0.848  -1.257  -4.894  0.00  0.00    +0.005 C 
ATOM      8  C   UNL     1       0.449  -0.398  -3.690  0.00  0.00    +0.005 C 
ATOM      9  C   UNL     1      -0.042  -1.291  -2.550  0.00  0.00    +0.036 C 
ENDROOT
BRANCH   5  10
ATOM     10  N   UNL     1       2.280  -4.832   0.209  0.00  0.00    -0.276 N 
ATOM     11  C   UNL     1       3.311  -5.700   0.195  0.00  0.00    +0.249 C 
ATOM     12  O   UNL     1       4.035  -5.768  -0.779  0.00  0.00    -0.270 OA
ATOM     13  H   UNL     1       1.702  -4.778   0.986  0.00  0.00    +0.156 HD
BRANCH  11  14
ATOM     14  C   UNL     1       3.561  -6.569   1.364  0.00  0.00    +0.037 A 
ATOM     15  C   UNL     1       2.728  -6.498   2.482  0.00  0.00    +0.013 A 
ATOM     16  C   UNL     1       2.967  -7.312   3.569  0.00  0.00    +0.001 A 
ATOM     17  C   UNL     1       4.030  -8.198   3.554  0.00  0.00    +0.000 A 
ATOM     18  C   UNL     1       4.860  -8.273   2.449  0.00  0.00    +0.001 A 
ATOM     19  C   UNL     1       4.628  -7.469   1.353  0.00  0.00    +0.013 A 
ENDBRANCH  11  14
ENDBRANCH   5  10
BRANCH   1  20
ATOM     20  C   UNL     1       0.052  -2.828   0.005  0.00  0.00    +0.124 C 
BRANCH  20  26
ATOM     21  C   UNL     1      -1.543  -4.754  -0.182  0.00  0.00    +0.125 A 
ATOM     22  C   UNL     1      -2.769  -5.286  -0.557  0.00  0.00    +0.046 A 
ATOM     23  C   UNL     1      -3.717  -4.479  -1.155  0.00  0.00    +0.004 A 
ATOM     24  C   UNL     1      -3.446  -3.142  -1.381  0.00  0.00    +0.001 A 
ATOM     25  C   UNL     1      -2.225  -2.610  -1.010  0.00  0.00    +0.009 A 
ATOM     26  C   UNL     1      -1.276  -3.411  -0.405  0.00  0.00    +0.016 A 
BRANCH  21  28
ATOM     27  C   UNL     1      -0.953  -6.918   0.605  0.00  0.00    +0.277 C 
ATOM     28  O   UNL     1      -0.609  -5.545   0.407  0.00  0.00    -0.495 OA
ENDBRANCH  21  28
ENDBRANCH  20  26
BRANCH  20  29
ATOM     29  N   UNL     1      -0.092  -1.381   0.214  0.00  0.00    -0.287 NA
ATOM     30  C   UNL     1       1.204  -0.764   0.533  0.00  0.00    +0.113 C 
ATOM     31  C   UNL     1       1.019   0.749   0.683  0.00  0.00    +0.175 C 
ATOM     32  O   UNL     1       0.035   1.006   1.689  0.00  0.00    -0.377 OA
ATOM     33  C   UNL     1      -1.240   0.419   1.410  0.00  0.00    +0.175 C 
ATOM     34  C   UNL     1      -1.077  -1.097   1.267  0.00  0.00    +0.113 C 
ENDBRANCH  20  29
ENDBRANCH   1  20
TORSDOF 6
