REMARK  Name = ZINC08444202
REMARK  9 active torsions:
REMARK  status: ('A' for Active; 'I' for Inactive)
REMARK    1  A    between atoms: C_1  and  C_2
REMARK    2  A    between atoms: C_2  and  C_3
REMARK    3  A    between atoms: C_3  and  C_5
REMARK    4  A    between atoms: C_3  and  O_6
REMARK    5  A    between atoms: O_6  and  C_7
REMARK    6  A    between atoms: C_12  and  C_13
REMARK    7  A    between atoms: C_18  and  C_22
REMARK    8  A    between atoms: C_18  and  C_23
REMARK    9  A    between atoms: C_32  and  C_34
REMARK                            x       y       z     vdW  Elec       q    Type
REMARK                         _______ _______ _______ _____ _____    ______ ____
ROOT
ATOM      1  C   UNL     1      -0.977  -2.149   0.040  0.00  0.00    +0.150 C 
ATOM      2  C   UNL     1      -1.483  -2.957   1.214  0.00  0.00    +0.037 C 
ATOM      3  C   UNL     1      -2.014  -2.461   2.341  0.00  0.00    +0.017 C 
ATOM      4  C   UNL     1      -2.516  -3.396   3.430  0.00  0.00    +0.058 C 
ATOM      5  C   UNL     1      -1.661  -4.661   3.464  0.00  0.00    -0.023 C 
ATOM      6  C   UNL     1      -1.773  -5.337   2.092  0.00  0.00    +0.086 C 
ATOM      7  C   UNL     1      -1.351  -4.356   1.041  0.00  0.00    +0.163 C 
ATOM      8  O   UNL     1      -0.878  -4.776   0.003  0.00  0.00    -0.292 OA
ATOM      9  C   UNL     1      -0.202  -4.293   3.743  0.00  0.00    +0.011 C 
ATOM     10  C   UNL     1      -2.176  -5.606   4.551  0.00  0.00    +0.011 C 
ATOM     11  N   UNL     1      -2.158  -1.140   2.626  0.00  0.00    -0.316 N 
ATOM     12  C   UNL     1      -2.684  -0.194   1.754  0.00  0.00    +0.053 A 
ATOM     13  C   UNL     1      -3.851   0.498   2.027  0.00  0.00    +0.025 A 
ATOM     14  C   UNL     1      -4.286   1.470   1.142  0.00  0.00    +0.002 A 
ATOM     15  C   UNL     1      -3.559   1.746  -0.001  0.00  0.00    +0.002 A 
ATOM     16  C   UNL     1      -2.405   1.037  -0.287  0.00  0.00    +0.025 A 
ATOM     17  C   UNL     1      -1.978   0.045   0.589  0.00  0.00    +0.059 A 
ATOM     18  N   UNL     1      -0.856  -0.731   0.304  0.00  0.00    -0.250 N 
ATOM     19  C   UNL     1       0.361  -0.153   0.279  0.00  0.00    +0.325 C 
ATOM     20  O   UNL     1       1.345  -0.821   0.037  0.00  0.00    -0.265 OA
ATOM     21  H   UNL     1      -1.872  -0.836   3.501  0.00  0.00    +0.152 HD
ENDROOT
BRANCH   1  27
ATOM     22  C   UNL     1      -1.485  -2.121  -2.415  0.00  0.00    +0.126 A 
ATOM     23  C   UNL     1      -2.358  -2.300  -3.479  0.00  0.00    +0.046 A 
ATOM     24  C   UNL     1      -3.659  -2.698  -3.243  0.00  0.00    +0.004 A 
ATOM     25  C   UNL     1      -4.093  -2.918  -1.948  0.00  0.00    +0.001 A 
ATOM     26  C   UNL     1      -3.224  -2.745  -0.887  0.00  0.00    +0.009 A 
ATOM     27  C   UNL     1      -1.923  -2.342  -1.117  0.00  0.00    +0.020 A 
BRANCH  22  28
ATOM     28  O   UNL     1      -0.204  -1.730  -2.644  0.00  0.00    -0.489 OA
BRANCH  28  29
ATOM     29  C   UNL     1       0.194  -1.580  -4.008  0.00  0.00    +0.170 C 
ATOM     30  C   UNL     1      -0.224  -0.197  -4.512  0.00  0.00    +0.052 C 
BRANCH  29  32
ATOM     31  C   UNL     1       2.121  -3.144  -3.717  0.00  0.00    +0.007 C 
ATOM     32  C   UNL     1       1.714  -1.724  -4.115  0.00  0.00    +0.041 C 
ENDBRANCH  29  32
ENDBRANCH  28  29
ENDBRANCH  22  28
ENDBRANCH   1  27
BRANCH  19  33
ATOM     33  C   UNL     1       0.501   1.322   0.552  0.00  0.00    +0.470 C 
ATOM     34  F   UNL     1       1.849   1.686   0.471  0.00  0.00    -0.162 F 
ATOM     35  F   UNL     1      -0.235   2.043  -0.394  0.00  0.00    -0.162 F 
ATOM     36  F   UNL     1       0.018   1.607   1.834  0.00  0.00    -0.162 F 
ENDBRANCH  19  33
TORSDOF 5
