REMARK  Name = ZINC35707107
REMARK  6 active torsions:
REMARK  status: ('A' for Active; 'I' for Inactive)
REMARK    1  A    between atoms: C_1  and  C_2
REMARK    2  A    between atoms: C_7  and  N_8
REMARK    3  A    between atoms: N_11  and  C_12
REMARK    4  A    between atoms: N_11  and  C_36
REMARK    5  A    between atoms: C_12  and  C_13
REMARK    6  A    between atoms: C_27  and  C_29
REMARK                            x       y       z     vdW  Elec       q    Type
REMARK                         _______ _______ _______ _____ _____    ______ ____
ROOT
ATOM      1  C   UNL     1       1.766  -1.038   6.195  0.00  0.00    +0.238 C 
ATOM      2  O   UNL     1       0.648  -0.943   5.736  0.00  0.00    -0.273 OA
ATOM      3  N   UNL     1       1.962  -1.673   7.367  0.00  0.00    -0.255 N 
ATOM      4  C   UNL     1       0.890  -2.315   8.003  0.00  0.00    +0.061 A 
ATOM      5  C   UNL     1      -0.406  -1.853   7.837  0.00  0.00    +0.025 A 
ATOM      6  C   UNL     1      -1.455  -2.501   8.461  0.00  0.00    +0.002 A 
ATOM      7  C   UNL     1      -1.221  -3.612   9.251  0.00  0.00    +0.002 A 
ATOM      8  C   UNL     1       0.070  -4.079   9.428  0.00  0.00    +0.028 A 
ATOM      9  C   UNL     1       1.123  -3.433   8.811  0.00  0.00    +0.068 A 
ATOM     10  N   UNL     1       2.450  -3.852   8.981  0.00  0.00    -0.316 N 
ATOM     11  C   UNL     1       2.943  -5.002   9.501  0.00  0.00    +0.092 A 
ATOM     12  C   UNL     1       4.293  -4.946   9.444  0.00  0.00    +0.020 A 
ATOM     13  C   UNL     1       4.643  -3.706   8.864  0.00  0.00    +0.025 A 
ATOM     14  C   UNL     1       3.506  -3.057   8.593  0.00  0.00    +0.049 A 
ATOM     15  C   UNL     1       3.303  -1.698   7.975  0.00  0.00    +0.159 C 
ENDROOT
BRANCH  15  16
ATOM     16  C   UNL     1       3.399  -0.638   9.042  0.00  0.00    -0.021 A 
ATOM     17  C   UNL     1       2.331  -0.412   9.891  0.00  0.00    +0.007 A 
ATOM     18  C   UNL     1       2.419   0.560  10.869  0.00  0.00    +0.020 A 
ATOM     19  C   UNL     1       3.576   1.308  10.999  0.00  0.00    +0.041 A 
ATOM     20  C   UNL     1       4.644   1.082  10.149  0.00  0.00    +0.020 A 
ATOM     21  C   UNL     1       4.557   0.105   9.175  0.00  0.00    +0.007 A 
ATOM     22 CL   UNL     1       3.687   2.530  12.227  0.00  0.00    -0.084 Cl
ENDBRANCH  15  16
BRANCH   1  23
ATOM     23  C   UNL     1       2.937  -0.445   5.455  0.00  0.00    +0.205 C 
BRANCH  23  27
ATOM     24  N   UNL     1       2.181   2.205   5.553  0.00  0.00    -0.269 N 
ATOM     25  C   UNL     1       2.138   1.580   4.360  0.00  0.00    +0.307 C 
ATOM     26  O   UNL     1       1.813   2.195   3.362  0.00  0.00    -0.252 OA
ATOM     27  N   UNL     1       2.455   0.273   4.272  0.00  0.00    -0.274 N 
ATOM     28  H   UNL     1       2.529   1.742   6.331  0.00  0.00    +0.156 HD
BRANCH  24  35
ATOM     29  C   UNL     1       2.890   3.674   7.885  0.00  0.00    +0.045 C 
ATOM     30  C   UNL     1       2.045   4.274   6.791  0.00  0.00    -0.029 A 
ATOM     31  C   UNL     1       1.596   5.576   6.900  0.00  0.00    +0.005 A 
ATOM     32  C   UNL     1       0.820   6.128   5.897  0.00  0.00    +0.000 A 
ATOM     33  C   UNL     1       0.492   5.379   4.782  0.00  0.00    +0.002 A 
ATOM     34  C   UNL     1       0.938   4.077   4.667  0.00  0.00    +0.023 A 
ATOM     35  C   UNL     1       1.722   3.522   5.670  0.00  0.00    +0.038 A 
ENDBRANCH  24  35
BRANCH  27  36
ATOM     36  C   UNL     1       2.317  -0.430   2.994  0.00  0.00    +0.078 C 
ATOM     37  C   UNL     1       2.175   0.421   1.731  0.00  0.00    +0.024 C 
ATOM     38  C   UNL     1       0.967  -0.340   2.280  0.00  0.00    +0.024 C 
ENDBRANCH  27  36
ENDBRANCH  23  27
ENDBRANCH   1  23
TORSDOF 5
