REMARK  Name = ZINC44791672
REMARK  7 active torsions:
REMARK  status: ('A' for Active; 'I' for Inactive)
REMARK    1  A    between atoms: C_1  and  C_2
REMARK    2  A    between atoms: C_2  and  C_3
REMARK    3  A    between atoms: C_2  and  C_4
REMARK    4  A    between atoms: C_2  and  C_8
REMARK    5  A    between atoms: N_5  and  O_6
REMARK    6  A    between atoms: C_13  and  C_16
REMARK    7  A    between atoms: C_16  and  C_17
REMARK                            x       y       z     vdW  Elec       q    Type
REMARK                         _______ _______ _______ _____ _____    ______ ____
ROOT
ATOM      1  C   UNL     1       0.782  -0.389  -1.230  0.00  0.00    +0.228 C 
ATOM      2  O   UNL     1       0.244  -1.019  -2.116  0.00  0.00    -0.275 OA
ATOM      3  N   UNL     1       2.075  -0.029  -1.348  0.00  0.00    -0.301 N 
ATOM      4  C   UNL     1       2.711   0.824  -0.335  0.00  0.00    +0.108 C 
ATOM      5  C   UNL     1       3.345   2.031  -1.034  0.00  0.00    +0.023 C 
ATOM      6  C   UNL     1       4.296   1.539  -2.128  0.00  0.00    +0.001 C 
ATOM      7  C   UNL     1       3.510   0.738  -3.167  0.00  0.00    +0.023 C 
ATOM      8  C   UNL     1       2.879  -0.488  -2.490  0.00  0.00    +0.108 C 
ENDROOT
BRANCH   1  10
ATOM      9  C   UNL     1       0.707  -0.563   1.242  0.00  0.00    +0.028 C 
ATOM     10  C   UNL     1       0.003  -0.007   0.002  0.00  0.00    +0.100 C 
ATOM     11  C   UNL     1      -1.409  -0.589  -0.086  0.00  0.00    +0.028 C 
BRANCH  10  12
ATOM     12  C   UNL     1      -0.077   1.494   0.101  0.00  0.00    +0.146 C 
ATOM     13  N   UNL     1       0.413   2.101   1.131  0.00  0.00    -0.076 NA
ATOM     14  N   UNL     1      -0.673   2.220  -0.906  0.00  0.00    -0.343 N 
ATOM     15  H   UNL     1      -1.041   1.764  -1.680  0.00  0.00    +0.144 HD
ATOM     16  H   UNL     1      -0.724   3.187  -0.843  0.00  0.00    +0.144 HD
BRANCH  13  17
ATOM     17  O   UNL     1       0.338   3.512   1.224  0.00  0.00    -0.408 OA
ATOM     18  H   UNL     1       0.731   3.874   2.030  0.00  0.00    +0.328 HD
ENDBRANCH  13  17
ENDBRANCH  10  12
ENDBRANCH   1  10
BRANCH   6  19
ATOM     19  C   UNL     1       4.958   2.741  -2.805  0.00  0.00    +0.099 C 
BRANCH  19  20
ATOM     20  C   UNL     1       5.984   2.256  -3.797  0.00  0.00    +0.211 C 
ATOM     21  O   UNL     1       6.168   1.067  -3.947  0.00  0.00    -0.276 OA
ATOM     22  N   UNL     1       6.698   3.145  -4.517  0.00  0.00    -0.329 N 
ATOM     23  H   UNL     1       6.551   4.096  -4.396  0.00  0.00    +0.145 HD
ATOM     24  H   UNL     1       7.358   2.833  -5.155  0.00  0.00    +0.145 HD
ENDBRANCH  19  20
ENDBRANCH   6  19
TORSDOF 5
