REMARK  Name = ZINC53633303
REMARK  8 active torsions:
REMARK  status: ('A' for Active; 'I' for Inactive)
REMARK    1  A    between atoms: C_1  and  C_2
REMARK    2  A    between atoms: C_2  and  C_3
REMARK    3  A    between atoms: C_3  and  N_26
REMARK    4  A    between atoms: C_5  and  C_20
REMARK    5  A    between atoms: N_7  and  C_10
REMARK    6  A    between atoms: N_26  and  C_27
REMARK    7  A    between atoms: C_27  and  C_28
REMARK    8  A    between atoms: C_28  and  C_29
REMARK                            x       y       z     vdW  Elec       q    Type
REMARK                         _______ _______ _______ _____ _____    ______ ____
ROOT
ATOM      1  C   UNL     1       0.724  -0.576   1.205  0.00  0.00    +0.018 C 
ATOM      2  C   UNL     1       0.031  -0.784   2.382  0.00  0.00    +0.083 C 
ATOM      3  C   UNL     1      -1.427  -0.683   2.590  0.00  0.00    +0.103 C 
ATOM      4  N   UNL     1      -1.657  -0.958   3.847  0.00  0.00    -0.174 NA
ATOM      5  N   UNL     1      -0.459  -1.237   4.507  0.00  0.00    -0.157 N 
ATOM      6  C   UNL     1       0.573  -1.145   3.647  0.00  0.00    +0.272 C 
ATOM      7  O   UNL     1       1.750  -1.334   3.905  0.00  0.00    -0.268 OA
ENDROOT
BRANCH   5   8
ATOM      8  C   UNL     1      -0.343  -1.585   5.925  0.00  0.00    +0.249 C 
ATOM      9  N   UNL     1      -1.163  -2.760   6.250  0.00  0.00    -0.315 N 
ATOM     10  C   UNL     1      -2.193  -2.592   7.174  0.00  0.00    +0.043 A 
ATOM     11  C   UNL     1      -3.077  -3.597   7.606  0.00  0.00    +0.024 A 
ATOM     12  C   UNL     1      -4.065  -3.329   8.525  0.00  0.00    +0.002 A 
ATOM     13  C   UNL     1      -4.222  -2.062   9.056  0.00  0.00    +0.001 A 
ATOM     14  C   UNL     1      -3.366  -1.053   8.649  0.00  0.00    +0.016 A 
ATOM     15  C   UNL     1      -2.378  -1.322   7.729  0.00  0.00    +0.032 A 
ATOM     16  S   UNL     1      -1.122  -0.303   6.987  0.00  0.00    -0.080 S 
ATOM     17  H   UNL     1      -0.993  -3.621   5.837  0.00  0.00    +0.149 HD
ENDBRANCH   5   8
BRANCH   3  18
ATOM     18  C   UNL     1      -2.440  -0.336   1.565  0.00  0.00    +0.003 A 
ATOM     19  C   UNL     1      -3.092  -1.344   0.856  0.00  0.00    +0.010 A 
ATOM     20  C   UNL     1      -4.034  -1.014  -0.097  0.00  0.00    +0.001 A 
ATOM     21  C   UNL     1      -4.331   0.313  -0.350  0.00  0.00    +0.000 A 
ATOM     22  C   UNL     1      -3.687   1.317   0.350  0.00  0.00    +0.001 A 
ATOM     23  C   UNL     1      -2.748   1.000   1.310  0.00  0.00    +0.010 A 
ENDBRANCH   3  18
BRANCH   1  25
ATOM     24  C   UNL     1       0.063   1.468  -0.034  0.00  0.00    +0.010 C 
ATOM     25  C   UNL     1       0.002  -0.060  -0.013  0.00  0.00    +0.048 C 
ENDBRANCH   1  25
BRANCH   1  26
ATOM     26  N   UNL     1       2.047  -0.835   1.146  0.00  0.00    -0.346 N 
ATOM     27  H   UNL     1       2.512  -1.166   1.930  0.00  0.00    +0.146 HD
BRANCH  26  28
ATOM     28  C   UNL     1       2.782  -0.614  -0.102  0.00  0.00    +0.107 C 
BRANCH  28  29
ATOM     29  C   UNL     1       4.253  -0.982   0.100  0.00  0.00    +0.073 C 
BRANCH  29  30
ATOM     30  C   UNL     1       5.009  -0.755  -1.184  0.00  0.00    +0.035 A 
ATOM     31  H   UNL     1       6.601   0.823  -3.354  0.00  0.00    +0.166 HD
ATOM     32  C   UNL     1       5.538   0.413  -1.595  0.00  0.00    +0.105 A 
ATOM     33  N   UNL     1       6.133   0.174  -2.805  0.00  0.00    -0.352 N 
ATOM     34  C   UNL     1       5.945  -1.132  -3.091  0.00  0.00    +0.171 A 
ATOM     35  N   UNL     1       5.277  -1.683  -2.115  0.00  0.00    -0.350 N 
ATOM     36  H   UNL     1       5.013  -2.615  -2.071  0.00  0.00    +0.166 HD
ENDBRANCH  29  30
ENDBRANCH  28  29
ENDBRANCH  26  28
ENDBRANCH   1  26
TORSDOF 7
