REMARK  Name = ZINC41508160
REMARK  5 active torsions:
REMARK  status: ('A' for Active; 'I' for Inactive)
REMARK    1  A    between atoms: C_5  and  O_7
REMARK    2  A    between atoms: O_7  and  C_8
REMARK    3  A    between atoms: C_13  and  O_19
REMARK    4  A    between atoms: O_19  and  C_20
REMARK    5  A    between atoms: C_20  and  C_21
REMARK                            x       y       z     vdW  Elec       q    Type
REMARK                         _______ _______ _______ _____ _____    ______ ____
ROOT
ATOM      1  C   UNL     1       0.091  -2.777  -0.060  0.00  0.00    +0.210 A 
ATOM      2  C   UNL     1      -1.108  -2.167  -0.128  0.00  0.00    +0.245 A 
ATOM      3  O   UNL     1      -2.264  -2.842  -0.168  0.00  0.00    -0.459 OA
ATOM      4  C   UNL     1      -2.314  -4.190  -0.144  0.00  0.00    +0.142 A 
ATOM      5  C   UNL     1      -3.529  -4.860  -0.188  0.00  0.00    +0.092 A 
ATOM      6  C   UNL     1      -3.552  -6.244  -0.162  0.00  0.00    +0.125 A 
ATOM      7  C   UNL     1      -2.365  -6.971  -0.092  0.00  0.00    +0.046 A 
ATOM      8  C   UNL     1      -1.162  -6.327  -0.049  0.00  0.00    +0.019 A 
ATOM      9  C   UNL     1      -1.122  -4.932  -0.074  0.00  0.00    +0.068 A 
ATOM     10  C   UNL     1       0.155  -4.199  -0.035  0.00  0.00    +0.234 A 
ATOM     11  O   UNL     1       1.223  -4.787   0.020  0.00  0.00    -0.283 OA
ENDROOT
BRANCH   1  12
ATOM     12  O   UNL     1       1.235  -2.039  -0.022  0.00  0.00    -0.448 OA
BRANCH  12  17
ATOM     13  C   UNL     1       2.256  -2.766   3.393  0.00  0.00    +0.004 A 
ATOM     14  C   UNL     1       3.481  -2.126   3.438  0.00  0.00    +0.001 A 
ATOM     15  C   UNL     1       3.955  -1.457   2.325  0.00  0.00    +0.019 A 
ATOM     16  C   UNL     1       3.204  -1.426   1.164  0.00  0.00    +0.060 A 
ATOM     17  C   UNL     1       1.975  -2.068   1.117  0.00  0.00    +0.143 A 
ATOM     18  C   UNL     1       1.502  -2.739   2.236  0.00  0.00    +0.047 A 
ATOM     19 BR   UNL     1       3.852  -0.509  -0.358  0.00  0.00    -0.046 Br
ENDBRANCH  12  17
ENDBRANCH   1  12
BRANCH   6  20
ATOM     20  O   UNL     1      -4.740  -6.898  -0.205  0.00  0.00    -0.487 OA
BRANCH  20  21
ATOM     21  C   UNL     1      -4.696  -8.326  -0.175  0.00  0.00    +0.268 C 
BRANCH  21  22
ATOM     22  C   UNL     1      -6.099  -8.874  -0.230  0.00  0.00    +0.033 A 
ATOM     23  C   UNL     1      -7.175  -8.010  -0.302  0.00  0.00    +0.030 A 
ATOM     24  C   UNL     1      -8.463  -8.512  -0.352  0.00  0.00    +0.042 A 
ATOM     25  C   UNL     1      -8.675  -9.879  -0.327  0.00  0.00    +0.029 A 
ATOM     26  C   UNL     1      -7.601 -10.746  -0.255  0.00  0.00    +0.022 A 
ATOM     27  C   UNL     1      -6.309 -10.245  -0.213  0.00  0.00    +0.135 A 
ATOM     28  O   UNL     1      -5.243 -11.088  -0.156  0.00  0.00    -0.465 OA
ATOM     29  C   UNL     1      -5.509 -12.442   0.219  0.00  0.00    +0.394 C 
ATOM     30  O   UNL     1      -6.625 -12.918  -0.544  0.00  0.00    -0.339 OA
ATOM     31  C   UNL     1      -7.845 -12.234  -0.225  0.00  0.00    +0.202 C 
ATOM     32 CL   UNL     1      -9.814  -7.426  -0.443  0.00  0.00    -0.084 Cl
ENDBRANCH  21  22
ENDBRANCH  20  21
ENDBRANCH   6  20
TORSDOF 5
