REMARK  Name = ZINC12600685
REMARK  11 active torsions:
REMARK  status: ('A' for Active; 'I' for Inactive)
REMARK    1  A    between atoms: C_1  and  C_2
REMARK    2  A    between atoms: C_5  and  N_9
REMARK    3  A    between atoms: C_6  and  C_8
REMARK    4  A    between atoms: N_9  and  S_10
REMARK    5  A    between atoms: S_10  and  C_13
REMARK    6  A    between atoms: C_15  and  N_34
REMARK    7  A    between atoms: C_18  and  N_19
REMARK    8  A    between atoms: N_19  and  N_20
REMARK    9  A    between atoms: C_21  and  C_22
REMARK   10  A    between atoms: C_21  and  C_23
REMARK   11  A    between atoms: C_32  and  O_33
REMARK                            x       y       z     vdW  Elec       q    Type
REMARK                         _______ _______ _______ _____ _____    ______ ____
ROOT
ATOM      1  C   UNL     1       2.470   0.214  -2.418  0.00  0.00    +0.133 A 
ATOM      2  C   UNL     1       3.478  -0.036  -3.325  0.00  0.00    +0.063 A 
ATOM      3  C   UNL     1       3.331   0.340  -4.650  0.00  0.00    +0.128 A 
ATOM      4  C   UNL     1       2.170   0.968  -5.073  0.00  0.00    +0.035 A 
ATOM      5  C   UNL     1       1.155   1.224  -4.177  0.00  0.00    +0.029 A 
ATOM      6  C   UNL     1       1.295   0.842  -2.840  0.00  0.00    +0.075 A 
ENDROOT
BRANCH   1   7
ATOM      7  S   UNL     1       2.660  -0.265  -0.733  0.00  0.00    +0.074 S 
ATOM      8  O   UNL     1       2.330   0.873   0.052  0.00  0.00    -0.150 OA
ATOM      9  O   UNL     1       3.917  -0.919  -0.635  0.00  0.00    -0.150 OA
BRANCH   7  10
ATOM     10  N   UNL     1       1.505  -1.409  -0.416  0.00  0.00    -0.216 N 
ATOM     11  H   UNL     1       0.841  -1.250   0.272  0.00  0.00    +0.174 HD
BRANCH  10  16
ATOM     12  C   UNL     1       1.438  -6.259  -3.354  0.00  0.00    +0.044 C 
ATOM     13  C   UNL     1       1.456  -4.970  -2.573  0.00  0.00    -0.050 A 
ATOM     14  C   UNL     1       2.662  -4.373  -2.255  0.00  0.00    +0.005 A 
ATOM     15  C   UNL     1       2.682  -3.195  -1.535  0.00  0.00    +0.025 A 
ATOM     16  C   UNL     1       1.488  -2.603  -1.140  0.00  0.00    +0.051 A 
ATOM     17  C   UNL     1       0.279  -3.203  -1.466  0.00  0.00    -0.028 A 
ATOM     18  C   UNL     1       0.266  -4.384  -2.182  0.00  0.00    +0.008 A 
ATOM     19  C   UNL     1      -1.018  -2.565  -1.040  0.00  0.00    +0.046 C 
ENDBRANCH  10  16
ENDBRANCH   7  10
ENDBRANCH   1   7
BRANCH   3  20
ATOM     20  N   UNL     1       4.417   0.068  -5.618  0.00  0.00    +0.056 N 
ATOM     21  O   UNL     1       5.521  -0.530  -5.219  0.00  0.00    -0.126 OA
ATOM     22  O   UNL     1       4.280   0.423  -6.879  0.00  0.00    -0.126 OA
ENDBRANCH   3  20
BRANCH   6  23
ATOM     23  N   UNL     1       0.281   1.089  -1.940  0.00  0.00    -0.236 N 
ATOM     24  H   UNL     1       0.348   0.757  -1.031  0.00  0.00    +0.174 HD
BRANCH  23  25
ATOM     25  N   UNL     1      -0.757   1.761  -2.307  0.00  0.00    -0.187 NA
ATOM     26  C   UNL     1      -1.692   2.087  -1.410  0.00  0.00    +0.067 C 
ATOM     27  C   UNL     1      -1.486   1.762   0.047  0.00  0.00    +0.068 C 
BRANCH  26  28
ATOM     28  C   UNL     1      -2.859   2.729  -1.823  0.00  0.00    +0.039 A 
ATOM     29  C   UNL     1      -3.850   3.075  -0.876  0.00  0.00    +0.014 A 
ATOM     30  C   UNL     1      -4.987   3.696  -1.257  0.00  0.00    +0.009 A 
ATOM     31  C   UNL     1      -5.223   4.029  -2.663  0.00  0.00    -0.014 A 
ATOM     32  C   UNL     1      -6.398   4.672  -3.052  0.00  0.00    +0.008 A 
ATOM     33  C   UNL     1      -6.607   4.980  -4.387  0.00  0.00    +0.001 A 
ATOM     34  C   UNL     1      -5.660   4.658  -5.345  0.00  0.00    +0.001 A 
ATOM     35  C   UNL     1      -4.488   4.021  -4.987  0.00  0.00    +0.012 A 
ATOM     36  C   UNL     1      -4.255   3.699  -3.642  0.00  0.00    +0.024 A 
ATOM     37  C   UNL     1      -3.061   3.054  -3.249  0.00  0.00    +0.133 A 
BRANCH  37  38
ATOM     38  O   UNL     1      -2.126   2.737  -4.159  0.00  0.00    -0.506 OA
ATOM     39  H   UNL     1      -2.198   1.868  -4.577  0.00  0.00    +0.292 HD
ENDBRANCH  37  38
ENDBRANCH  26  28
ENDBRANCH  23  25
ENDBRANCH   6  23
TORSDOF 8
