REMARK  Name = ZINC12883463
REMARK  6 active torsions:
REMARK  status: ('A' for Active; 'I' for Inactive)
REMARK    1  A    between atoms: C_1  and  C_2
REMARK    2  A    between atoms: C_13  and  C_15
REMARK    3  A    between atoms: C_15  and  C_16
REMARK    4  A    between atoms: N_24  and  C_27
REMARK    5  A    between atoms: C_27  and  C_28
REMARK    6  A    between atoms: C_28  and  C_29
REMARK                            x       y       z     vdW  Elec       q    Type
REMARK                         _______ _______ _______ _____ _____    ______ ____
ROOT
ATOM      1  C   UNL     1       6.599   0.489   0.239  0.00  0.00    +0.044 C 
ATOM      2  C   UNL     1       5.344   0.349  -0.584  0.00  0.00    -0.050 A 
ATOM      3  C   UNL     1       5.199  -0.718  -1.451  0.00  0.00    +0.005 A 
ATOM      4  C   UNL     1       4.052  -0.852  -2.205  0.00  0.00    +0.024 A 
ATOM      5  C   UNL     1       3.030   0.089  -2.100  0.00  0.00    +0.036 A 
ATOM      6  C   UNL     1       3.187   1.159  -1.224  0.00  0.00    -0.027 A 
ATOM      7  C   UNL     1       4.333   1.288  -0.472  0.00  0.00    +0.008 A 
ATOM      8  C   UNL     1       1.931   1.975  -1.344  0.00  0.00    +0.050 C 
ATOM      9  C   UNL     1       1.208   2.098   0.002  0.00  0.00    +0.088 C 
ATOM     10  C   UNL     1       0.607   3.532   0.011  0.00  0.00    +0.073 C 
ATOM     11  C   UNL     1       1.005   4.136  -1.352  0.00  0.00    -0.053 C 
ATOM     12  C   UNL     1      -0.885   3.284   0.027  0.00  0.00    +0.224 C 
ATOM     13  O   UNL     1      -1.738   4.145   0.040  0.00  0.00    -0.275 OA
ATOM     14  N   UNL     1      -1.117   1.966   0.018  0.00  0.00    -0.241 N 
ATOM     15  C   UNL     1      -0.014   1.208   0.009  0.00  0.00    +0.225 C 
ATOM     16  O   UNL     1       0.002  -0.004   0.002  0.00  0.00    -0.275 OA
ATOM     17  C   UNL     1       1.089   1.250  -2.358  0.00  0.00    +0.211 C 
ATOM     18  O   UNL     1      -0.013   1.574  -2.749  0.00  0.00    -0.277 OA
ATOM     19  N   UNL     1       1.795   0.171  -2.746  0.00  0.00    -0.286 N 
ATOM     20  H   UNL     1       1.482  -0.474  -3.400  0.00  0.00    +0.155 HD
ATOM     21  N   UNL     1       2.182   3.359  -1.755  0.00  0.00    +0.394 N 
ATOM     22  H   UNL     1       2.308   3.410  -2.772  0.00  0.00    -0.083 HD
ATOM     23  H   UNL     1       3.022   3.721  -1.287  0.00  0.00    -0.083 HD
ENDROOT
BRANCH  11  24
ATOM     24  C   UNL     1       1.344   5.620  -1.198  0.00  0.00    +0.020 C 
BRANCH  24  25
ATOM     25  C   UNL     1       1.610   6.218  -2.555  0.00  0.00    -0.049 A 
ATOM     26  C   UNL     1       2.894   6.222  -3.069  0.00  0.00    +0.003 A 
ATOM     27  C   UNL     1       3.137   6.766  -4.316  0.00  0.00    +0.000 A 
ATOM     28  C   UNL     1       2.099   7.316  -5.045  0.00  0.00    +0.000 A 
ATOM     29  C   UNL     1       0.817   7.318  -4.529  0.00  0.00    +0.000 A 
ATOM     30  C   UNL     1       0.572   6.769  -3.284  0.00  0.00    +0.003 A 
ENDBRANCH  24  25
ENDBRANCH  11  24
BRANCH  14  31
ATOM     31  C   UNL     1      -2.468   1.400   0.021  0.00  0.00    +0.121 C 
BRANCH  31  32
ATOM     32  C   UNL     1      -2.932   1.195   1.464  0.00  0.00    +0.054 C 
BRANCH  32  33
ATOM     33  C   UNL     1      -4.321   0.613   1.468  0.00  0.00    -0.046 A 
ATOM     34  C   UNL     1      -5.422   1.449   1.483  0.00  0.00    +0.004 A 
ATOM     35  C   UNL     1      -6.697   0.915   1.481  0.00  0.00    +0.000 A 
ATOM     36  C   UNL     1      -6.871  -0.456   1.475  0.00  0.00    +0.000 A 
ATOM     37  C   UNL     1      -5.771  -1.293   1.466  0.00  0.00    +0.000 A 
ATOM     38  C   UNL     1      -4.496  -0.759   1.462  0.00  0.00    +0.004 A 
ENDBRANCH  32  33
ENDBRANCH  31  32
ENDBRANCH  14  31
TORSDOF 5
