REMARK  Name = ZINC16249394
REMARK  7 active torsions:
REMARK  status: ('A' for Active; 'I' for Inactive)
REMARK    1  A    between atoms: C_1  and  C_2
REMARK    2  A    between atoms: C_3  and  C_14
REMARK    3  A    between atoms: C_4  and  O_13
REMARK    4  A    between atoms: N_5  and  C_7
REMARK    5  A    between atoms: C_14  and  C_16
REMARK    6  A    between atoms: C_14  and  C_22
REMARK    7  A    between atoms: C_28  and  N_65
REMARK                            x       y       z     vdW  Elec       q    Type
REMARK                         _______ _______ _______ _____ _____    ______ ____
ROOT
ATOM      1  C   UNL     1       5.135   6.948  -0.736  0.00  0.00    +0.064 C 
ENDROOT
BRANCH   1   4
ATOM      2  C   UNL     1       7.680   5.877   0.814  0.00  0.00    +0.068 C 
ATOM      3  C   UNL     1       6.317   5.236   0.807  0.00  0.00    +0.068 A 
ATOM      4  C   UNL     1       5.194   5.710   0.122  0.00  0.00    +0.045 A 
ATOM      5  C   UNL     1       4.165   4.854   0.363  0.00  0.00    +0.220 A 
ATOM      6  N   UNL     1       4.631   3.876   1.184  0.00  0.00    -0.200 N 
ATOM      7  N   UNL     1       5.983   4.141   1.441  0.00  0.00    -0.168 NA
BRANCH   6   8
ATOM      8  C   UNL     1       3.893   2.792   1.680  0.00  0.00    +0.069 A 
ATOM      9  C   UNL     1       4.503   1.556   1.853  0.00  0.00    +0.028 A 
ATOM     10  C   UNL     1       3.773   0.491   2.342  0.00  0.00    +0.002 A 
ATOM     11  C   UNL     1       2.436   0.652   2.654  0.00  0.00    +0.000 A 
ATOM     12  C   UNL     1       1.827   1.883   2.489  0.00  0.00    +0.002 A 
ATOM     13  C   UNL     1       2.552   2.952   2.000  0.00  0.00    +0.028 A 
ENDBRANCH   6   8
BRANCH   5  14
ATOM     14  O   UNL     1       2.902   4.959  -0.124  0.00  0.00    -0.492 OA
ATOM     15  H   UNL     1       2.305   5.470   0.439  0.00  0.00    +0.294 HD
ENDBRANCH   5  14
ENDBRANCH   1   4
BRANCH   1  16
ATOM     16  C   UNL     1       4.909   6.553  -2.172  0.00  0.00    -0.039 A 
ATOM     17  C   UNL     1       3.691   6.028  -2.562  0.00  0.00    +0.004 A 
ATOM     18  C   UNL     1       3.482   5.669  -3.880  0.00  0.00    +0.000 A 
ATOM     19  C   UNL     1       4.495   5.828  -4.808  0.00  0.00    +0.000 A 
ATOM     20  C   UNL     1       5.715   6.348  -4.418  0.00  0.00    +0.000 A 
ATOM     21  C   UNL     1       5.922   6.710  -3.100  0.00  0.00    +0.004 A 
ENDBRANCH   1  16
BRANCH   1  22
ATOM     22  C   UNL     1       3.985   7.840  -0.265  0.00  0.00    +0.043 C 
ATOM     23  C   UNL     1       4.049   7.991   1.256  0.00  0.00    +0.010 C 
ATOM     24  C   UNL     1       3.058   9.082   1.679  0.00  0.00    +0.005 C 
ATOM     25  C   UNL     1       3.565  10.428   1.154  0.00  0.00    +0.029 C 
ATOM     26  C   UNL     1       3.910  10.317  -0.302  0.00  0.00    -0.010 C 
ATOM     27  C   UNL     1       4.098   9.185  -0.923  0.00  0.00    -0.010 C 
BRANCH  27  33
ATOM     28  C   UNL     1       3.450   8.801  -3.290  0.00  0.00    +0.085 C 
ATOM     29  C   UNL     1       3.289   9.934  -4.315  0.00  0.00    +0.017 C 
ATOM     30  C   UNL     1       4.663  10.306  -4.876  0.00  0.00    +0.003 C 
ATOM     31  C   UNL     1       5.560  10.807  -3.742  0.00  0.00    +0.017 C 
ATOM     32  C   UNL     1       5.746   9.690  -2.711  0.00  0.00    +0.085 C 
ATOM     33  N   UNL     1       4.298   9.562  -2.295  0.00  0.00    -0.396 NA
ATOM     34  H   UNL     1       3.936  10.522  -2.335  0.00  0.00    +0.126 HD
ENDBRANCH  27  33
ENDBRANCH   1  22
TORSDOF 6
