REMARK  Name = ZINC02651495
REMARK  4 active torsions:
REMARK  status: ('A' for Active; 'I' for Inactive)
REMARK    1  A    between atoms: C_1  and  C_2
REMARK    2  A    between atoms: C_2  and  C_4
REMARK    3  A    between atoms: C_2  and  O_10
REMARK    4  A    between atoms: O_10  and  C_11
REMARK                            x       y       z     vdW  Elec       q    Type
REMARK                         _______ _______ _______ _____ _____    ______ ____
ROOT
ATOM      1  O   UNL     1      -0.020   5.536   0.029  0.00  0.00    -0.480 OA
ENDROOT
BRANCH   1   2
ATOM      2  C   UNL     1      -0.012   4.194   0.241  0.00  0.00    +0.122 A 
ATOM      3  C   UNL     1      -1.219   3.524   0.466  0.00  0.00    +0.046 A 
ATOM      4  C   UNL     1      -1.245   2.181   0.677  0.00  0.00    +0.012 A 
ATOM      5  C   UNL     1      -0.042   1.452   0.680  0.00  0.00    -0.017 A 
ATOM      6  C   UNL     1      -0.032   0.065   0.898  0.00  0.00    +0.023 A 
ATOM      7  C   UNL     1       1.151  -0.611   0.888  0.00  0.00    +0.018 A 
ATOM      8  C   UNL     1       2.356   0.055   0.664  0.00  0.00    +0.016 A 
ATOM      9  C   UNL     1       2.384   1.399   0.449  0.00  0.00    +0.010 A 
ATOM     10  C   UNL     1       1.183   2.129   0.452  0.00  0.00    -0.014 A 
ATOM     11  C   UNL     1       1.174   3.516   0.232  0.00  0.00    +0.054 A 
ATOM     12 BR   UNL     1       1.160  -2.478   1.183  0.00  0.00    -0.050 Br
ENDBRANCH   1   2
BRANCH   1  14
ATOM     13  C   UNL     1      -1.809   6.501   1.336  0.00  0.00    +0.062 C 
ATOM     14  C   UNL     1      -1.297   6.170  -0.068  0.00  0.00    +0.256 C 
BRANCH  14  15
ATOM     15  C   UNL     1      -1.167   7.441  -0.868  0.00  0.00    +0.261 C 
ATOM     16  O   UNL     1      -0.088   7.770  -1.312  0.00  0.00    -0.271 OA
ATOM     17  N   UNL     1      -2.251   8.211  -1.090  0.00  0.00    -0.237 N 
ATOM     18  C   UNL     1      -2.135   9.347  -1.806  0.00  0.00    +0.303 C 
ATOM     19  O   UNL     1      -1.053   9.677  -2.251  0.00  0.00    -0.253 OA
ATOM     20  N   UNL     1      -3.219  10.117  -2.028  0.00  0.00    -0.313 N 
ATOM     21  H   UNL     1      -3.114   7.947  -0.735  0.00  0.00    +0.159 HD
ATOM     22  H   UNL     1      -4.082   9.853  -1.673  0.00  0.00    +0.146 HD
ATOM     23  H   UNL     1      -3.135  10.934  -2.543  0.00  0.00    +0.146 HD
ENDBRANCH  14  15
ENDBRANCH   1  14
TORSDOF 3
