REMARK  Name = ZINC06244890
REMARK  6 active torsions:
REMARK  status: ('A' for Active; 'I' for Inactive)
REMARK    1  A    between atoms: C_1  and  C_2
REMARK    2  A    between atoms: C_5  and  C_37
REMARK    3  A    between atoms: C_9  and  C_14
REMARK    4  A    between atoms: C_14  and  C_16
REMARK    5  A    between atoms: C_14  and  N_27
REMARK    6  A    between atoms: N_20  and  C_21
REMARK                            x       y       z     vdW  Elec       q    Type
REMARK                         _______ _______ _______ _____ _____    ______ ____
ROOT
ATOM      1  C   UNL     1       3.362  -0.502   1.614  0.00  0.00    +0.179 C 
ENDROOT
BRANCH   1  10
ATOM      2  C   UNL     1       7.615   1.926   3.382  0.00  0.00    +0.044 C 
ATOM      3  C   UNL     1       7.933   1.417   2.000  0.00  0.00    -0.041 A 
ATOM      4  C   UNL     1       9.166   1.637   1.454  0.00  0.00    +0.004 A 
ATOM      5  C   UNL     1       9.468   1.173   0.181  0.00  0.00    +0.005 A 
ATOM      6  C   UNL     1       8.531   0.481  -0.556  0.00  0.00    -0.026 A 
ATOM      7  C   UNL     1       7.270   0.244  -0.020  0.00  0.00    +0.052 A 
ATOM      8  C   UNL     1       6.967   0.716   1.271  0.00  0.00    +0.002 A 
ATOM      9  C   UNL     1       5.635   0.466   1.824  0.00  0.00    +0.021 A 
ATOM     10  C   UNL     1       4.741  -0.223   1.072  0.00  0.00    +0.045 A 
ATOM     11  C   UNL     1       5.094  -0.675  -0.217  0.00  0.00    +0.255 A 
ATOM     12  O   UNL     1       4.274  -1.289  -0.877  0.00  0.00    -0.268 OA
ATOM     13  N   UNL     1       6.314  -0.446  -0.735  0.00  0.00    -0.322 N 
ATOM     14  H   UNL     1       6.524  -0.770  -1.625  0.00  0.00    +0.169 HD
ATOM     15  C   UNL     1       8.872  -0.017  -1.937  0.00  0.00    +0.046 C 
ENDBRANCH   1  10
BRANCH   1  16
ATOM     16  N   UNL     1       2.357  -0.138   0.606  0.00  0.00    -0.316 N 
ATOM     17  C   UNL     1       1.139  -0.935   0.767  0.00  0.00    +0.106 C 
ATOM     18  C   UNL     1       0.120  -0.493  -0.291  0.00  0.00    +0.024 C 
ATOM     19  C   UNL     1      -0.331   0.928   0.054  0.00  0.00    +0.038 C 
ATOM     20  C   UNL     1       0.874   1.784   0.354  0.00  0.00    -0.026 A 
ATOM     21  C   UNL     1       2.118   1.235   0.612  0.00  0.00    +0.034 A 
ATOM     22  C   UNL     1       3.195   2.079   0.890  0.00  0.00    +0.023 A 
ATOM     23  C   UNL     1       3.023   3.447   0.906  0.00  0.00    +0.002 A 
ATOM     24  C   UNL     1       1.779   3.990   0.644  0.00  0.00    +0.000 A 
ATOM     25  C   UNL     1       0.710   3.160   0.369  0.00  0.00    +0.005 A 
ENDBRANCH   1  16
BRANCH   1  26
ATOM     26  C   UNL     1       3.238  -1.968   1.940  0.00  0.00    +0.177 A 
ATOM     27  N   UNL     1       3.091  -2.951   1.086  0.00  0.00    -0.111 NA
ATOM     28  N   UNL     1       3.024  -4.051   1.752  0.00  0.00    -0.023 NA
ATOM     29  N   UNL     1       3.118  -3.796   3.010  0.00  0.00    -0.044 NA
ATOM     30  N   UNL     1       3.251  -2.522   3.167  0.00  0.00    -0.224 N 
BRANCH  30  31
ATOM     31  C   UNL     1       3.389  -1.812   4.441  0.00  0.00    +0.111 C 
ATOM     32  C   UNL     1       4.637  -2.313   5.171  0.00  0.00    +0.027 C 
ATOM     33  C   UNL     1       4.782  -1.571   6.501  0.00  0.00    +0.002 C 
ATOM     34  C   UNL     1       3.547  -1.830   7.366  0.00  0.00    +0.000 C 
ATOM     35  C   UNL     1       2.300  -1.329   6.637  0.00  0.00    +0.002 C 
ATOM     36  C   UNL     1       2.154  -2.070   5.306  0.00  0.00    +0.027 C 
ENDBRANCH  30  31
ENDBRANCH   1  26
TORSDOF 4
