REMARK  Name = ZINC15774694
REMARK  5 active torsions:
REMARK  status: ('A' for Active; 'I' for Inactive)
REMARK    1  A    between atoms: C_4  and  N_7
REMARK    2  A    between atoms: C_8  and  C_10
REMARK    3  A    between atoms: C_10  and  N_11
REMARK    4  A    between atoms: N_19  and  N_20
REMARK    5  A    between atoms: N_20  and  C_21
REMARK                            x       y       z     vdW  Elec       q    Type
REMARK                         _______ _______ _______ _____ _____    ______ ____
ROOT
ATOM      1  N   UNL     1       4.719  -4.163   0.245  0.00  0.00    -0.257 N 
ATOM      2  C   UNL     1       4.544  -4.853   1.439  0.00  0.00    +0.047 A 
ATOM      3  C   UNL     1       4.548  -4.427   2.763  0.00  0.00    +0.025 A 
ATOM      4  C   UNL     1       4.347  -5.334   3.783  0.00  0.00    +0.017 A 
ATOM      5  C   UNL     1       4.140  -6.675   3.504  0.00  0.00    +0.019 A 
ATOM      6  C   UNL     1       4.133  -7.117   2.196  0.00  0.00    +0.027 A 
ATOM      7  C   UNL     1       4.334  -6.210   1.161  0.00  0.00    +0.029 A 
ATOM      8  C   UNL     1       4.387  -6.348  -0.313  0.00  0.00    +0.153 C 
ATOM      9  N   UNL     1       4.241  -7.446  -1.020  0.00  0.00    -0.177 NA
ATOM     10  C   UNL     1       4.631  -4.985  -0.815  0.00  0.00    +0.272 C 
ATOM     11  O   UNL     1       4.738  -4.660  -1.984  0.00  0.00    -0.268 OA
ATOM     12 BR   UNL     1       3.868  -7.903   4.917  0.00  0.00    -0.050 Br
ENDROOT
BRANCH   9  13
ATOM     13  N   UNL     1       4.314  -7.400  -2.307  0.00  0.00    -0.237 N 
ATOM     14  H   UNL     1       4.477  -6.554  -2.753  0.00  0.00    +0.174 HD
BRANCH  13  15
ATOM     15  C   UNL     1       4.160  -8.566  -3.057  0.00  0.00    +0.048 A 
ATOM     16  C   UNL     1       3.922  -9.778  -2.419  0.00  0.00    +0.025 A 
ATOM     17  C   UNL     1       3.769 -10.930  -3.165  0.00  0.00    +0.002 A 
ATOM     18  C   UNL     1       3.853 -10.879  -4.545  0.00  0.00    +0.000 A 
ATOM     19  C   UNL     1       4.091  -9.675  -5.182  0.00  0.00    +0.002 A 
ATOM     20  C   UNL     1       4.239  -8.518  -4.444  0.00  0.00    +0.025 A 
ENDBRANCH  13  15
ENDBRANCH   9  13
BRANCH   1  21
ATOM     21  C   UNL     1       4.962  -2.721   0.153  0.00  0.00    +0.210 C 
BRANCH  21  23
ATOM     22  N   UNL     1       3.622  -0.651  -0.037  0.00  0.00    -0.284 N 
ATOM     23  C   UNL     1       3.645  -1.995   0.057  0.00  0.00    +0.235 C 
ATOM     24  O   UNL     1       2.606  -2.620   0.064  0.00  0.00    -0.274 OA
ATOM     25  H   UNL     1       4.452  -0.156  -0.121  0.00  0.00    +0.155 HD
BRANCH  22  29
ATOM     26  C   UNL     1      -0.015   1.381   0.029  0.00  0.00    +0.000 A 
ATOM     27  C   UNL     1       0.140   0.218   0.763  0.00  0.00    +0.002 A 
ATOM     28  C   UNL     1       1.344  -0.457   0.743  0.00  0.00    +0.023 A 
ATOM     29  C   UNL     1       2.400   0.031  -0.015  0.00  0.00    +0.033 A 
ATOM     30  C   UNL     1       2.241   1.198  -0.751  0.00  0.00    +0.023 A 
ATOM     31  C   UNL     1       1.034   1.870  -0.727  0.00  0.00    +0.002 A 
ENDBRANCH  22  29
ENDBRANCH  21  23
ENDBRANCH   1  21
TORSDOF 5
