REMARK  Name = ZINC11789382
REMARK  9 active torsions:
REMARK  status: ('A' for Active; 'I' for Inactive)
REMARK    1  A    between atoms: C_1  and  C_2
REMARK    2  A    between atoms: C_3  and  C_12
REMARK    3  A    between atoms: C_12  and  C_13
REMARK    4  A    between atoms: C_22  and  C_26
REMARK    5  A    between atoms: C_26  and  N_69
REMARK    6  A    between atoms: C_27  and  N_69
REMARK    7  A    between atoms: C_28  and  C_29
REMARK    8  A    between atoms: C_28  and  N_69
REMARK    9  A    between atoms: C_31  and  C_35
REMARK                            x       y       z     vdW  Elec       q    Type
REMARK                         _______ _______ _______ _____ _____    ______ ____
ROOT
ATOM      1  C   UNL     1      -4.258   3.770   1.485  0.00  0.00    +0.220 C 
ATOM      2  O   UNL     1      -3.474   3.905   2.400  0.00  0.00    -0.275 OA
ATOM      3  N   UNL     1      -5.559   3.533   1.742  0.00  0.00    -0.294 N 
ATOM      4  C   UNL     1      -6.503   3.376   0.635  0.00  0.00    +0.149 C 
ATOM      5  C   UNL     1      -7.099   1.970   0.620  0.00  0.00    +0.248 C 
ATOM      6  O   UNL     1      -7.824   1.730   1.832  0.00  0.00    -0.490 OA
ATOM      7  C   UNL     1      -7.106   1.207   2.857  0.00  0.00    +0.125 A 
ATOM      8  C   UNL     1      -7.276  -0.122   3.222  0.00  0.00    +0.046 A 
ATOM      9  C   UNL     1      -6.471  -0.674   4.199  0.00  0.00    +0.005 A 
ATOM     10  C   UNL     1      -5.498   0.090   4.817  0.00  0.00    -0.063 A 
ATOM     11  C   UNL     1      -5.339   1.420   4.469  0.00  0.00    +0.010 A 
ATOM     12  C   UNL     1      -6.150   1.975   3.504  0.00  0.00    +0.012 A 
ATOM     13  C   UNL     1      -6.022   3.438   3.131  0.00  0.00    +0.146 C 
ENDROOT
BRANCH   1  14
ATOM     14  C   UNL     1      -3.778   3.868   0.060  0.00  0.00    +0.133 C 
BRANCH  14  17
ATOM     15  C   UNL     1      -2.426   6.662   0.063  0.00  0.00    +0.063 C 
ATOM     16  C   UNL     1      -1.702   5.341   0.048  0.00  0.00    +0.018 A 
ATOM     17  C   UNL     1      -2.295   4.137   0.047  0.00  0.00    -0.011 A 
ATOM     18  C   UNL     1      -1.228   3.133   0.031  0.00  0.00    +0.004 A 
ATOM     19  C   UNL     1      -1.208   1.737   0.017  0.00  0.00    +0.010 A 
ATOM     20  C   UNL     1      -0.013   1.076   0.008  0.00  0.00    +0.001 A 
ATOM     21  C   UNL     1       1.183   1.781   0.000  0.00  0.00    +0.002 A 
ATOM     22  C   UNL     1       1.187   3.158   0.008  0.00  0.00    +0.026 A 
ATOM     23  C   UNL     1      -0.018   3.852   0.023  0.00  0.00    +0.047 A 
ATOM     24  N   UNL     1      -0.342   5.191   0.035  0.00  0.00    -0.358 N 
ATOM     25  H   UNL     1       0.299   5.919   0.033  0.00  0.00    +0.166 HD
ENDBRANCH  14  17
ENDBRANCH   1  14
BRANCH  10  26
ATOM     26  C   UNL     1      -4.611  -0.526   5.868  0.00  0.00    -0.043 C 
BRANCH  26  28
ATOM     27  C   UNL     1      -3.766  -2.224   4.363  0.00  0.00    -0.095 C 
ATOM     28  N   UNL     1      -3.403  -1.071   5.214  0.00  0.00    +0.384 N 
ATOM     29  H   UNL     1      -2.985  -0.341   4.626  0.00  0.00    -0.081 HD
BRANCH  28  30
ATOM     30  C   UNL     1      -2.420  -1.487   6.236  0.00  0.00    -0.021 C 
BRANCH  30  31
ATOM     31  C   UNL     1      -1.122  -1.830   5.550  0.00  0.00    +0.047 A 
ATOM     32  C   UNL     1      -0.044  -0.961   5.353  0.00  0.00    +0.046 A 
ATOM     33  C   UNL     1       0.928  -1.643   4.705  0.00  0.00    +0.039 A 
ATOM     34  N   UNL     1       0.478  -2.897   4.492  0.00  0.00    -0.281 N 
ATOM     35  H   UNL     1       0.977  -3.631   4.030  0.00  0.00    +0.189 HD
ATOM     36  N   UNL     1      -0.811  -2.990   5.032  0.00  0.00    -0.181 NA
BRANCH  33  37
ATOM     37  C   UNL     1       2.271  -1.099   4.290  0.00  0.00    +0.037 C 
ATOM     38  C   UNL     1       2.877  -1.629   2.990  0.00  0.00    +0.010 C 
ATOM     39  C   UNL     1       3.465  -2.054   4.337  0.00  0.00    +0.010 C 
ENDBRANCH  33  37
ENDBRANCH  30  31
ENDBRANCH  28  30
ENDBRANCH  26  28
ENDBRANCH  10  26
TORSDOF 7
