REMARK  Name = ZINC41481452
REMARK  3 active torsions:
REMARK  status: ('A' for Active; 'I' for Inactive)
REMARK    1  A    between atoms: C_9  and  C_19
REMARK    2  A    between atoms: N_10  and  C_13
REMARK    3  A    between atoms: C_19  and  N_20
REMARK                            x       y       z     vdW  Elec       q    Type
REMARK                         _______ _______ _______ _____ _____    ______ ____
ROOT
ATOM      1  C   UNL     1      -0.017   1.385   0.010  0.00  0.00    +0.021 A 
ATOM      2  C   UNL     1       1.149   2.100   0.002  0.00  0.00    +0.017 A 
ATOM      3  C   UNL     1       2.369   1.427  -0.013  0.00  0.00    +0.065 A 
ATOM      4  C   UNL     1       2.399   0.014  -0.021  0.00  0.00    +0.079 A 
ATOM      5  C   UNL     1       1.196  -0.694  -0.013  0.00  0.00    +0.048 A 
ATOM      6  C   UNL     1       0.002  -0.004   0.002  0.00  0.00    +0.043 A 
ATOM      7 CL   UNL     1      -1.495  -0.882   0.011  0.00  0.00    -0.083 Cl
ATOM      8  N   UNL     1       3.599  -0.619  -0.036  0.00  0.00    -0.235 NA
ATOM      9  C   UNL     1       4.716   0.041  -0.043  0.00  0.00    +0.096 A 
ATOM     10  N   UNL     1       4.783   1.398  -0.037  0.00  0.00    -0.295 N 
ATOM     11  C   UNL     1       3.653   2.143  -0.022  0.00  0.00    +0.262 A 
ATOM     12  O   UNL     1       3.698   3.360  -0.016  0.00  0.00    -0.267 OA
ENDROOT
BRANCH  10  13
ATOM     13  C   UNL     1       6.089   2.061  -0.046  0.00  0.00    +0.092 C 
ATOM     14  C   UNL     1       6.205   2.942  -1.292  0.00  0.00    +0.025 C 
ATOM     15  C   UNL     1       7.570   3.634  -1.302  0.00  0.00    +0.002 C 
ATOM     16  C   UNL     1       7.711   4.501  -0.049  0.00  0.00    +0.000 C 
ATOM     17  C   UNL     1       7.595   3.620   1.196  0.00  0.00    +0.002 C 
ATOM     18  C   UNL     1       6.230   2.928   1.206  0.00  0.00    +0.025 C 
ENDBRANCH  10  13
BRANCH   9  19
ATOM     19  C   UNL     1       6.007  -0.737  -0.060  0.00  0.00    -0.011 C 
BRANCH  19  20
ATOM     20  N   UNL     1       5.710  -2.176  -0.064  0.00  0.00    +0.383 N 
ATOM     21  H   UNL     1       5.184  -2.414   0.763  0.00  0.00    -0.089 HD
ATOM     22  H   UNL     1       5.168  -2.406  -0.884  0.00  0.00    -0.089 HD
ATOM     23  H   UNL     1       6.574  -2.697  -0.075  0.00  0.00    -0.089 HD
ENDBRANCH  19  20
ENDBRANCH   9  19
TORSDOF 3
