REMARK  Name = ZINC60015751
REMARK  9 active torsions:
REMARK  status: ('A' for Active; 'I' for Inactive)
REMARK    1  A    between atoms: C_1  and  C_2
REMARK    2  A    between atoms: C_5  and  C_33
REMARK    3  A    between atoms: N_8  and  C_10
REMARK    4  A    between atoms: C_10  and  C_11
REMARK    5  A    between atoms: C_11  and  C_13
REMARK    6  A    between atoms: C_11  and  N_14
REMARK    7  A    between atoms: C_15  and  C_17
REMARK    8  A    between atoms: C_19  and  S_24
REMARK    9  A    between atoms: S_24  and  N_27
REMARK                            x       y       z     vdW  Elec       q    Type
REMARK                         _______ _______ _______ _____ _____    ______ ____
ROOT
ATOM      1  N   UNL     1       0.371  -0.535   3.259  0.00  0.00    -0.310 N 
ATOM      2  C   UNL     1      -0.746  -0.015   3.805  0.00  0.00    +0.246 C 
ATOM      3  O   UNL     1      -1.449  -0.701   4.521  0.00  0.00    -0.270 OA
ATOM      4  H   UNL     1       0.970   0.031   2.747  0.00  0.00    +0.149 HD
ENDROOT
BRANCH   2   5
ATOM      5  C   UNL     1      -1.117   1.389   3.532  0.00  0.00    +0.057 A 
ATOM      6  C   UNL     1      -0.379   2.145   2.620  0.00  0.00    +0.043 A 
ATOM      7  C   UNL     1      -0.730   3.455   2.369  0.00  0.00    +0.106 A 
ATOM      8  C   UNL     1      -1.813   4.021   3.021  0.00  0.00    +0.030 A 
ATOM      9  C   UNL     1      -2.549   3.280   3.926  0.00  0.00    +0.022 A 
ATOM     10  C   UNL     1      -2.212   1.965   4.182  0.00  0.00    +0.053 A 
ATOM     11 CL   UNL     1      -3.142   1.032   5.313  0.00  0.00    -0.083 Cl
BRANCH   7  12
ATOM     12  S   UNL     1       0.201   4.410   1.218  0.00  0.00    +0.061 S 
ATOM     13  O   UNL     1       0.098   5.764   1.637  0.00  0.00    -0.153 OA
ATOM     14  O   UNL     1       1.451   3.753   1.063  0.00  0.00    -0.153 OA
BRANCH  12  15
ATOM     15  N   UNL     1      -0.573   4.306  -0.242  0.00  0.00    -0.177 NA
ATOM     16  C   UNL     1      -0.319   3.175  -1.145  0.00  0.00    +0.109 C 
ATOM     17  C   UNL     1      -1.658   2.530  -1.515  0.00  0.00    +0.017 C 
ATOM     18  C   UNL     1      -2.592   3.596  -2.091  0.00  0.00    +0.003 C 
ATOM     19  C   UNL     1      -2.851   4.674  -1.035  0.00  0.00    +0.017 C 
ATOM     20  C   UNL     1      -1.530   5.341  -0.658  0.00  0.00    +0.109 C 
ENDBRANCH  12  15
ENDBRANCH   7  12
ENDBRANCH   2   5
BRANCH   1  21
ATOM     21  C   UNL     1       0.682  -1.955   3.439  0.00  0.00    +0.054 C 
ATOM     22  C   UNL     1       1.506  -2.139   4.716  0.00  0.00    +0.026 C 
BRANCH  21  23
ATOM     23  C   UNL     1       1.484  -2.458   2.238  0.00  0.00    -0.057 C 
BRANCH  23  29
ATOM     24  C   UNL     1      -0.767  -6.804   2.340  0.00  0.00    +0.005 C 
ATOM     25  C   UNL     1       0.584  -6.095   2.453  0.00  0.00    -0.031 C 
ATOM     26  C   UNL     1       1.535  -6.632   1.379  0.00  0.00    +0.003 C 
ATOM     27  C   UNL     1       2.857  -5.861   1.451  0.00  0.00    -0.031 C 
ATOM     28  C   UNL     1       2.579  -4.366   1.285  0.00  0.00    -0.076 C 
ATOM     29  N   UNL     1       1.686  -3.909   2.356  0.00  0.00    +0.381 N 
ATOM     30  C   UNL     1       0.390  -4.591   2.251  0.00  0.00    -0.076 C 
ATOM     31  C   UNL     1       3.521  -6.111   2.806  0.00  0.00    +0.005 C 
ATOM     32  H   UNL     1       2.102  -4.116   3.251  0.00  0.00    -0.082 HD
ENDBRANCH  23  29
ENDBRANCH  21  23
ENDBRANCH   1  21
TORSDOF 6
