REMARK  Name = ZINC13370305
REMARK  6 active torsions:
REMARK  status: ('A' for Active; 'I' for Inactive)
REMARK    1  A    between atoms: C_1  and  C_2
REMARK    2  A    between atoms: C_13  and  S_18
REMARK    3  A    between atoms: S_18  and  C_19
REMARK    4  A    between atoms: C_24  and  N_25
REMARK    5  A    between atoms: C_28  and  C_31
REMARK    6  A    between atoms: C_36  and  N_37
REMARK                            x       y       z     vdW  Elec       q    Type
REMARK                         _______ _______ _______ _____ _____    ______ ____
ROOT
ATOM      1  C   UNL     1       5.441  -0.683   4.750  0.00  0.00    +0.044 C 
ATOM      2  C   UNL     1       5.384  -2.012   4.042  0.00  0.00    -0.050 A 
ATOM      3  C   UNL     1       6.420  -2.917   4.186  0.00  0.00    +0.005 A 
ATOM      4  C   UNL     1       6.374  -4.132   3.534  0.00  0.00    +0.023 A 
ATOM      5  C   UNL     1       5.287  -4.456   2.729  0.00  0.00    +0.031 A 
ATOM      6  C   UNL     1       4.248  -3.558   2.593  0.00  0.00    -0.021 A 
ATOM      7  C   UNL     1       4.297  -2.327   3.248  0.00  0.00    +0.009 A 
ATOM      8  C   UNL     1       3.080  -3.923   1.750  0.00  0.00    +0.045 C 
ATOM      9  C   UNL     1       3.612  -4.808   0.590  0.00  0.00    +0.024 C 
ATOM     10  C   UNL     1       2.372  -4.914  -0.302  0.00  0.00    +0.022 C 
ATOM     11  C   UNL     1       1.807  -3.466  -0.279  0.00  0.00    +0.070 C 
ATOM     12  C   UNL     1       2.328  -2.815   1.028  0.00  0.00    +0.101 C 
ATOM     13 CL   UNL     1       0.948  -2.238   2.034  0.00  0.00    -0.120 Cl
ATOM     14  C   UNL     1       4.124  -6.088   1.227  0.00  0.00    +0.107 C 
ATOM     15  N   UNL     1       5.274  -5.689   2.066  0.00  0.00    -0.336 N 
ATOM     16  H   UNL     1       6.029  -6.290   2.159  0.00  0.00    +0.147 HD
ENDROOT
BRANCH  14  17
ATOM     17  C   UNL     1       4.569  -7.056   0.162  0.00  0.00    +0.003 A 
ATOM     18  C   UNL     1       4.772  -6.615  -1.133  0.00  0.00    +0.008 A 
ATOM     19  C   UNL     1       5.181  -7.504  -2.109  0.00  0.00    +0.000 A 
ATOM     20  C   UNL     1       5.387  -8.834  -1.792  0.00  0.00    +0.002 A 
ATOM     21  C   UNL     1       5.184  -9.275  -0.498  0.00  0.00    +0.033 A 
ATOM     22  C   UNL     1       4.780  -8.385   0.480  0.00  0.00    +0.131 A 
BRANCH  22  23
ATOM     23  N   UNL     1       4.569  -8.856   1.868  0.00  0.00    +0.057 N 
ATOM     24  O   UNL     1       4.643 -10.044   2.125  0.00  0.00    -0.126 OA
ATOM     25  O   UNL     1       4.321  -8.055   2.752  0.00  0.00    -0.126 OA
ENDBRANCH  22  23
ENDBRANCH  14  17
BRANCH  11  26
ATOM     26  S   UNL     1      -0.006  -3.505  -0.276  0.00  0.00    -0.118 S 
BRANCH  26  27
ATOM     27  C   UNL     1      -0.470  -1.807  -0.349  0.00  0.00    +0.038 A 
ATOM     28  C   UNL     1       0.508  -0.820  -0.393  0.00  0.00    +0.017 A 
ATOM     29  C   UNL     1       0.141   0.510  -0.451  0.00  0.00    +0.001 A 
ATOM     30  C   UNL     1      -1.197   0.860  -0.465  0.00  0.00    +0.002 A 
ATOM     31  C   UNL     1      -2.172  -0.119  -0.421  0.00  0.00    +0.034 A 
ATOM     32  C   UNL     1      -1.813  -1.452  -0.364  0.00  0.00    +0.140 A 
BRANCH  32  33
ATOM     33  N   UNL     1      -2.857  -2.499  -0.318  0.00  0.00    +0.058 N 
ATOM     34  O   UNL     1      -4.034  -2.187  -0.330  0.00  0.00    -0.126 OA
ATOM     35  O   UNL     1      -2.539  -3.674  -0.267  0.00  0.00    -0.126 OA
ENDBRANCH  32  33
ENDBRANCH  26  27
ENDBRANCH  11  26
TORSDOF 5
