REMARK  Name = ZINC39336747
REMARK  5 active torsions:
REMARK  status: ('A' for Active; 'I' for Inactive)
REMARK    1  A    between atoms: C_4  and  N_7
REMARK    2  A    between atoms: C_9  and  C_20
REMARK    3  A    between atoms: C_10  and  C_13
REMARK    4  A    between atoms: N_21  and  N_22
REMARK    5  A    between atoms: C_23  and  C_29
REMARK                            x       y       z     vdW  Elec       q    Type
REMARK                         _______ _______ _______ _____ _____    ______ ____
ROOT
ATOM      1  N   UNL     1       3.637  -0.705  -0.087  0.00  0.00    -0.242 N 
ATOM      2  C   UNL     1       4.855  -0.079  -0.029  0.00  0.00    +0.100 C 
ATOM      3  C   UNL     1       5.860  -0.941  -0.258  0.00  0.00    +0.010 C 
ATOM      4  C   UNL     1       5.219  -2.292  -0.494  0.00  0.00    +0.136 C 
ATOM      5  N   UNL     1       3.772  -2.036  -0.356  0.00  0.00    -0.224 NA
ATOM      6  H   UNL     1       3.280  -2.285  -1.200  0.00  0.00    +0.146 HD
ENDROOT
BRANCH   4   7
ATOM      7  C   UNL     1       5.543  -2.796  -1.877  0.00  0.00    -0.024 A 
ATOM      8  C   UNL     1       4.841  -2.319  -2.968  0.00  0.00    +0.007 A 
ATOM      9  C   UNL     1       5.138  -2.780  -4.237  0.00  0.00    +0.020 A 
ATOM     10  C   UNL     1       6.138  -3.720  -4.414  0.00  0.00    +0.041 A 
ATOM     11  C   UNL     1       6.840  -4.197  -3.322  0.00  0.00    +0.020 A 
ATOM     12  C   UNL     1       6.546  -3.730  -2.054  0.00  0.00    +0.007 A 
ATOM     13 CL   UNL     1       6.511  -4.300  -6.007  0.00  0.00    -0.084 Cl
ENDBRANCH   4   7
BRANCH   1  17
ATOM     14  C   UNL     1      -0.013   1.211   0.501  0.00  0.00    +0.000 A 
ATOM     15  C   UNL     1       1.165   1.933   0.575  0.00  0.00    +0.002 A 
ATOM     16  C   UNL     1       2.377   1.301   0.381  0.00  0.00    +0.025 A 
ATOM     17  C   UNL     1       2.413  -0.062   0.111  0.00  0.00    +0.049 A 
ATOM     18  C   UNL     1       1.228  -0.784   0.038  0.00  0.00    +0.025 A 
ATOM     19  C   UNL     1       0.019  -0.145   0.233  0.00  0.00    +0.002 A 
ENDBRANCH   1  17
BRANCH   3  20
ATOM     20  C   UNL     1       7.247  -0.644  -0.276  0.00  0.00    +0.137 C 
ATOM     21  N   UNL     1       7.655   0.573  -0.054  0.00  0.00    -0.184 NA
BRANCH  21  22
ATOM     22  N   UNL     1       9.026   0.845   0.044  0.00  0.00    -0.170 N 
ATOM     23  C   UNL     1      10.143  -0.119   0.036  0.00  0.00    +0.272 C 
ATOM     24  N   UNL     1      11.334   0.735   0.166  0.00  0.00    -0.166 NA
ATOM     25  N   UNL     1      10.955   1.907   0.230  0.00  0.00    -0.096 NA
ATOM     26  C   UNL     1       9.626   2.051   0.160  0.00  0.00    +0.199 C 
ATOM     27  S   UNL     1       8.802   3.550   0.213  0.00  0.00    -0.013 S 
BRANCH  23  28
ATOM     28  C   UNL     1      10.034  -1.065   1.204  0.00  0.00    +0.035 A 
ATOM     29  C   UNL     1      11.022  -1.689   1.893  0.00  0.00    +0.015 A 
ATOM     30  C   UNL     1      10.684  -2.523   2.942  0.00  0.00    +0.008 A 
ATOM     31  C   UNL     1       9.376  -2.693   3.251  0.00  0.00    +0.045 A 
ATOM     32  S   UNL     1       8.572  -1.650   2.045  0.00  0.00    -0.098 S 
ENDBRANCH  23  28
ENDBRANCH  21  22
ENDBRANCH   3  20
TORSDOF 5
