REMARK  Name = ZINC59210893
REMARK  12 active torsions:
REMARK  status: ('A' for Active; 'I' for Inactive)
REMARK    1  A    between atoms: C_1  and  C_2
REMARK    2  A    between atoms: C_2  and  O_3
REMARK    3  A    between atoms: O_3  and  C_4
REMARK    4  A    between atoms: C_6  and  C_18
REMARK    5  A    between atoms: C_9  and  O_10
REMARK    6  A    between atoms: O_10  and  C_11
REMARK    7  A    between atoms: C_11  and  C_12
REMARK    8  A    between atoms: C_20  and  C_27
REMARK    9  A    between atoms: C_21  and  C_26
REMARK   10  A    between atoms: N_29  and  C_30
REMARK   11  A    between atoms: C_33  and  C_37
REMARK   12  A    between atoms: C_35  and  C_36
REMARK                            x       y       z     vdW  Elec       q    Type
REMARK                         _______ _______ _______ _____ _____    ______ ____
ROOT
ATOM      1  C   UNL     1       1.629  -5.741   0.663  0.00  0.00    +0.139 C 
ATOM      2  C   UNL     1       1.092  -6.102   2.033  0.00  0.00    +0.056 C 
ATOM      3  C   UNL     1       0.756  -7.389   2.258  0.00  0.00    +0.017 C 
ATOM      4  N   UNL     1       0.896  -8.335   1.282  0.00  0.00    -0.300 N 
ATOM      5  C   UNL     1       1.365  -8.073   0.056  0.00  0.00    +0.135 C 
ATOM      6  S   UNL     1       1.490  -9.353  -1.074  0.00  0.00    -0.019 S 
ATOM      7  N   UNL     1       1.741  -6.834  -0.318  0.00  0.00    -0.315 N 
ATOM      8  C   UNL     1       0.218  -7.791   3.607  0.00  0.00    +0.061 C 
ATOM      9  H   UNL     1       0.642  -9.248   1.490  0.00  0.00    +0.154 HD
ATOM     10  H   UNL     1       2.077  -6.667  -1.212  0.00  0.00    +0.149 HD
ENDROOT
BRANCH   1  13
ATOM     11  C   UNL     1       0.271  -2.373  -0.376  0.00  0.00    +0.162 A 
ATOM     12  C   UNL     1       1.094  -3.349   0.162  0.00  0.00    +0.055 A 
ATOM     13  C   UNL     1       0.733  -4.681   0.077  0.00  0.00    -0.019 A 
ATOM     14  C   UNL     1      -0.447  -5.042  -0.546  0.00  0.00    +0.009 A 
ATOM     15  C   UNL     1      -1.272  -4.073  -1.086  0.00  0.00    +0.050 A 
ATOM     16  C   UNL     1      -0.920  -2.736  -0.998  0.00  0.00    +0.162 A 
BRANCH  11  17
ATOM     17  O   UNL     1       0.624  -1.062  -0.292  0.00  0.00    -0.489 OA
BRANCH  17  19
ATOM     18  C   UNL     1       2.163   0.737   0.193  0.00  0.00    +0.048 C 
ATOM     19  C   UNL     1       1.906  -0.770   0.267  0.00  0.00    +0.226 C 
ENDBRANCH  17  19
ENDBRANCH  11  17
BRANCH  16  20
ATOM     20  O   UNL     1      -1.733  -1.781  -1.523  0.00  0.00    -0.484 OA
BRANCH  20  21
ATOM     21  C   UNL     1      -2.939  -2.227  -2.146  0.00  0.00    +0.264 C 
BRANCH  21  22
ATOM     22  C   UNL     1      -3.706  -1.038  -2.665  0.00  0.00    -0.010 A 
ATOM     23  C   UNL     1      -4.627  -0.402  -1.854  0.00  0.00    +0.007 A 
ATOM     24  C   UNL     1      -5.330   0.689  -2.330  0.00  0.00    +0.000 A 
ATOM     25  C   UNL     1      -5.112   1.143  -3.618  0.00  0.00    +0.000 A 
ATOM     26  C   UNL     1      -4.191   0.508  -4.428  0.00  0.00    +0.000 A 
ATOM     27  C   UNL     1      -3.484  -0.580  -3.951  0.00  0.00    +0.007 A 
ENDBRANCH  21  22
ENDBRANCH  20  21
ENDBRANCH  16  20
ENDBRANCH   1  13
BRANCH   2  28
ATOM     28  C   UNL     1       0.948  -5.120   3.044  0.00  0.00    +0.248 C 
ATOM     29  O   UNL     1       1.930  -4.692   3.622  0.00  0.00    -0.270 OA
ATOM     30  N   UNL     1      -0.278  -4.660   3.367  0.00  0.00    -0.281 N 
ATOM     31  H   UNL     1      -1.066  -5.051   2.958  0.00  0.00    +0.155 HD
BRANCH  30  32
ATOM     32  C   UNL     1      -0.412  -3.619   4.291  0.00  0.00    +0.037 A 
ATOM     33  C   UNL     1       0.671  -2.799   4.578  0.00  0.00    +0.024 A 
ATOM     34  C   UNL     1       0.534  -1.772   5.491  0.00  0.00    +0.005 A 
ATOM     35  C   UNL     1      -0.679  -1.560   6.119  0.00  0.00    -0.050 A 
ATOM     36  C   UNL     1      -1.760  -2.375   5.836  0.00  0.00    +0.008 A 
ATOM     37  C   UNL     1      -1.632  -3.400   4.918  0.00  0.00    -0.029 A 
ATOM     38  C   UNL     1      -2.812  -4.283   4.605  0.00  0.00    +0.045 C 
ATOM     39  C   UNL     1      -0.825  -0.439   7.116  0.00  0.00    +0.044 C 
ENDBRANCH  30  32
ENDBRANCH   2  28
TORSDOF 8
