REMARK  Name = ZINC36051984
REMARK  13 active torsions:
REMARK  status: ('A' for Active; 'I' for Inactive)
REMARK    1  A    between atoms: C_1  and  C_2
REMARK    2  A    between atoms: C_2  and  C_3
REMARK    3  A    between atoms: C_2  and  C_4
REMARK    4  A    between atoms: N_6  and  C_7
REMARK    5  A    between atoms: N_6  and  C_11
REMARK    6  A    between atoms: C_7  and  C_8
REMARK    7  A    between atoms: C_11  and  C_12
REMARK    8  A    between atoms: C_17  and  C_30
REMARK    9  A    between atoms: N_19  and  C_20
REMARK   10  A    between atoms: C_23  and  O_28
REMARK   11  A    between atoms: C_24  and  O_26
REMARK   12  A    between atoms: O_26  and  C_27
REMARK   13  A    between atoms: O_28  and  C_29
REMARK                            x       y       z     vdW  Elec       q    Type
REMARK                         _______ _______ _______ _____ _____    ______ ____
ROOT
ATOM      1  C   UNL     1       0.093  -2.990   1.760  0.00  0.00    +0.237 C 
ATOM      2  O   UNL     1      -0.478  -2.393   2.649  0.00  0.00    -0.274 OA
ATOM      3  N   UNL     1       1.163  -3.758   2.044  0.00  0.00    -0.254 N 
ATOM      4  C   UNL     1       1.614  -3.866   3.353  0.00  0.00    +0.207 A 
ATOM      5  N   UNL     1       1.080  -3.277   4.395  0.00  0.00    -0.214 NA
ATOM      6  C   UNL     1       1.780  -3.609   5.501  0.00  0.00    +0.091 A 
ATOM      7  C   UNL     1       2.787  -4.438   5.128  0.00  0.00    +0.122 A 
ATOM      8  N   UNL     1       2.680  -4.606   3.768  0.00  0.00    -0.287 N 
ATOM      9  H   UNL     1       1.620  -4.235   1.333  0.00  0.00    +0.158 HD
ENDROOT
BRANCH   6  10
ATOM     10  C   UNL     1       1.496  -3.149   6.882  0.00  0.00    +0.002 A 
ATOM     11  C   UNL     1       2.306  -3.565   7.938  0.00  0.00    +0.011 A 
ATOM     12  C   UNL     1       2.038  -3.134   9.221  0.00  0.00    +0.020 A 
ATOM     13  C   UNL     1       0.968  -2.289   9.461  0.00  0.00    +0.041 A 
ATOM     14  C   UNL     1       0.161  -1.872   8.416  0.00  0.00    +0.020 A 
ATOM     15  C   UNL     1       0.424  -2.293   7.128  0.00  0.00    +0.011 A 
ATOM     16 CL   UNL     1       0.636  -1.750  11.078  0.00  0.00    -0.084 Cl
ENDBRANCH   6  10
BRANCH   8  17
ATOM     17  C   UNL     1       3.515  -5.391   2.958  0.00  0.00    +0.053 A 
ATOM     18  C   UNL     1       2.961  -6.296   2.063  0.00  0.00    +0.030 A 
ATOM     19  C   UNL     1       3.781  -7.070   1.264  0.00  0.00    +0.051 A 
ATOM     20  C   UNL     1       5.158  -6.944   1.355  0.00  0.00    +0.162 A 
ATOM     21  C   UNL     1       5.716  -6.037   2.251  0.00  0.00    +0.163 A 
ATOM     22  C   UNL     1       4.893  -5.258   3.048  0.00  0.00    +0.075 A 
BRANCH  21  23
ATOM     23  O   UNL     1       7.067  -5.912   2.341  0.00  0.00    -0.491 OA
ATOM     24  C   UNL     1       7.570  -4.962   3.283  0.00  0.00    +0.277 C 
ENDBRANCH  21  23
BRANCH  20  25
ATOM     25  O   UNL     1       5.965  -7.706   0.568  0.00  0.00    -0.491 OA
ATOM     26  C   UNL     1       5.324  -8.616  -0.328  0.00  0.00    +0.277 C 
ENDBRANCH  20  25
ENDBRANCH   8  17
BRANCH   1  27
ATOM     27  C   UNL     1      -0.396  -2.873   0.340  0.00  0.00    +0.203 C 
BRANCH  27  30
ATOM     28  C   UNL     1      -1.407  -0.682   0.006  0.00  0.00    +0.219 C 
ATOM     29  O   UNL     1      -2.357   0.070   0.067  0.00  0.00    -0.275 OA
ATOM     30  N   UNL     1      -1.563  -1.989   0.296  0.00  0.00    -0.292 N 
BRANCH  28  32
ATOM     31  C   UNL     1      -0.226   1.111  -1.236  0.00  0.00    +0.017 C 
ATOM     32  C   UNL     1      -0.053  -0.154  -0.393  0.00  0.00    +0.069 C 
ATOM     33  C   UNL     1       0.756   0.177   0.863  0.00  0.00    +0.017 C 
ENDBRANCH  28  32
BRANCH  30  34
ATOM     34  C   UNL     1      -2.899  -2.525   0.566  0.00  0.00    +0.111 C 
BRANCH  34  35
ATOM     35  C   UNL     1      -3.532  -3.002  -0.742  0.00  0.00    +0.006 C 
ATOM     36  C   UNL     1      -4.797  -2.286  -1.218  0.00  0.00    +0.005 C 
ATOM     37  C   UNL     1      -4.888  -3.706  -0.656  0.00  0.00    +0.005 C 
ENDBRANCH  34  35
ENDBRANCH  30  34
ENDBRANCH  27  30
ENDBRANCH   1  27
TORSDOF 9
