REMARK  Name = ZINC40114493
REMARK  7 active torsions:
REMARK  status: ('A' for Active; 'I' for Inactive)
REMARK    1  A    between atoms: C_1  and  C_2
REMARK    2  A    between atoms: N_11  and  C_15
REMARK    3  A    between atoms: C_15  and  C_16
REMARK    4  A    between atoms: N_18  and  C_19
REMARK    5  A    between atoms: C_24  and  N_25
REMARK    6  A    between atoms: N_25  and  C_26
REMARK    7  A    between atoms: N_25  and  C_27
REMARK                            x       y       z     vdW  Elec       q    Type
REMARK                         _______ _______ _______ _____ _____    ______ ____
ROOT
ATOM      1  C   UNL     1       3.421   2.879   2.259  0.00  0.00    +0.235 C 
ATOM      2  O   UNL     1       2.501   3.239   1.556  0.00  0.00    -0.274 OA
ATOM      3  N   UNL     1       4.441   3.721   2.519  0.00  0.00    -0.283 N 
ATOM      4  H   UNL     1       5.144   3.457   3.132  0.00  0.00    +0.155 HD
ENDROOT
BRANCH   3   5
ATOM      5  C   UNL     1       4.484   4.980   1.904  0.00  0.00    +0.055 A 
ATOM      6  C   UNL     1       3.308   5.669   1.648  0.00  0.00    +0.025 A 
ATOM      7  C   UNL     1       3.353   6.910   1.041  0.00  0.00    +0.002 A 
ATOM      8  C   UNL     1       4.568   7.468   0.687  0.00  0.00    +0.002 A 
ATOM      9  C   UNL     1       5.744   6.788   0.938  0.00  0.00    +0.025 A 
ATOM     10  C   UNL     1       5.709   5.545   1.552  0.00  0.00    +0.055 A 
BRANCH  10  11
ATOM     11  N   UNL     1       6.900   4.857   1.813  0.00  0.00    -0.302 N 
ATOM     12  C   UNL     1       7.594   5.052   3.088  0.00  0.00    +0.135 C 
BRANCH  11  13
ATOM     13  C   UNL     1       7.426   3.985   0.858  0.00  0.00    +0.034 A 
ATOM     14  C   UNL     1       6.772   3.804  -0.355  0.00  0.00    +0.023 A 
ATOM     15  C   UNL     1       7.296   2.941  -1.297  0.00  0.00    +0.002 A 
ATOM     16  C   UNL     1       8.469   2.257  -1.036  0.00  0.00    +0.000 A 
ATOM     17  C   UNL     1       9.123   2.436   0.170  0.00  0.00    +0.002 A 
ATOM     18  C   UNL     1       8.608   3.301   1.115  0.00  0.00    +0.023 A 
ENDBRANCH  11  13
ENDBRANCH  10  11
ENDBRANCH   3   5
BRANCH   1  19
ATOM     19  C   UNL     1       3.426   1.488   2.841  0.00  0.00    +0.214 C 
BRANCH  19  29
ATOM     20  C   UNL     1      -0.028   1.529   0.024  0.00  0.00    +0.010 C 
ATOM     21  C   UNL     1      -0.014  -0.001   0.026  0.00  0.00    +0.018 C 
ATOM     22  C   UNL     1      -1.453  -0.524   0.040  0.00  0.00    +0.006 C 
ATOM     23  C   UNL     1      -1.438  -2.054   0.062  0.00  0.00    +0.000 C 
ATOM     24  C   UNL     1      -0.716  -2.541   1.321  0.00  0.00    +0.003 C 
ATOM     25  C   UNL     1       0.726  -2.025   1.312  0.00  0.00    +0.035 C 
ATOM     26  C   UNL     1       0.721  -0.501   1.265  0.00  0.00    +0.115 C 
ATOM     27  C   UNL     1       2.135   0.032   1.291  0.00  0.00    +0.247 C 
ATOM     28  O   UNL     1       3.009  -0.166   0.475  0.00  0.00    -0.273 OA
ATOM     29  N   UNL     1       2.219   0.776   2.413  0.00  0.00    -0.215 N 
ATOM     30  C   UNL     1       1.063   0.783   3.088  0.00  0.00    +0.310 C 
ATOM     31  O   UNL     1       0.893   1.383   4.131  0.00  0.00    -0.252 OA
ATOM     32  N   UNL     1       0.110   0.049   2.482  0.00  0.00    -0.285 N 
ATOM     33  H   UNL     1      -0.800  -0.089   2.789  0.00  0.00    +0.151 HD
ENDBRANCH  19  29
ENDBRANCH   1  19
TORSDOF 5
