REMARK  Name = ZINC47139119
REMARK  6 active torsions:
REMARK  status: ('A' for Active; 'I' for Inactive)
REMARK    1  A    between atoms: C_3  and  C_6
REMARK    2  A    between atoms: C_6  and  N_7
REMARK    3  A    between atoms: C_11  and  C_12
REMARK    4  A    between atoms: N_21  and  N_22
REMARK    5  A    between atoms: C_23  and  C_24
REMARK    6  A    between atoms: C_29  and  O_30
REMARK                            x       y       z     vdW  Elec       q    Type
REMARK                         _______ _______ _______ _____ _____    ______ ____
ROOT
ATOM      1  N   UNL     1       4.171   0.140   1.002  0.00  0.00    -0.237 N 
ATOM      2  C   UNL     1       4.004   1.233   1.727  0.00  0.00    +0.259 C 
ATOM      3  O   UNL     1       3.512   2.242   1.255  0.00  0.00    -0.269 OA
ATOM      4  C   UNL     1       4.440   1.173   3.136  0.00  0.00    +0.078 C 
ATOM      5  C   UNL     1       4.389   2.133   4.095  0.00  0.00    +0.028 C 
ATOM      6  S   UNL     1       5.055  -0.501   3.240  0.00  0.00    -0.047 S 
ATOM      7  C   UNL     1       4.724  -0.993   1.556  0.00  0.00    +0.190 C 
ATOM      8  N   UNL     1       4.954  -2.158   0.982  0.00  0.00    -0.126 NA
ENDROOT
BRANCH   5   9
ATOM      9  C   UNL     1       5.010   1.896   5.405  0.00  0.00    -0.024 A 
ATOM     10  C   UNL     1       6.009   0.926   5.545  0.00  0.00    +0.011 A 
ATOM     11  C   UNL     1       6.587   0.709   6.776  0.00  0.00    +0.039 A 
ATOM     12  C   UNL     1       6.181   1.449   7.877  0.00  0.00    +0.123 A 
ATOM     13  C   UNL     1       5.191   2.411   7.746  0.00  0.00    +0.039 A 
ATOM     14  C   UNL     1       4.608   2.643   6.519  0.00  0.00    +0.011 A 
ATOM     15  F   UNL     1       6.752   1.230   9.082  0.00  0.00    -0.205 F 
ENDBRANCH   5   9
BRANCH   8  16
ATOM     16  N   UNL     1       5.557  -3.091   1.636  0.00  0.00    -0.155 NA
ATOM     17  C   UNL     1       5.865  -4.213   1.040  0.00  0.00    +0.146 C 
BRANCH  17  18
ATOM     18  C   UNL     1       5.629  -4.367  -0.403  0.00  0.00    +0.038 A 
ATOM     19  C   UNL     1       5.387  -3.244  -1.200  0.00  0.00    +0.033 A 
ATOM     20  C   UNL     1       5.167  -3.397  -2.554  0.00  0.00    +0.042 A 
ATOM     21  C   UNL     1       5.184  -4.659  -3.126  0.00  0.00    +0.023 A 
ATOM     22  C   UNL     1       5.421  -5.777  -2.348  0.00  0.00    +0.047 A 
ATOM     23  C   UNL     1       5.650  -5.642  -0.989  0.00  0.00    +0.126 A 
ATOM     24 CL   UNL     1       4.867  -2.002  -3.544  0.00  0.00    -0.084 Cl
BRANCH  23  25
ATOM     25  O   UNL     1       5.889  -6.739  -0.226  0.00  0.00    -0.506 OA
ATOM     26  H   UNL     1       5.088  -7.186   0.083  0.00  0.00    +0.292 HD
ENDBRANCH  23  25
ENDBRANCH  17  18
ENDBRANCH   8  16
BRANCH   1  27
ATOM     27  C   UNL     1       3.758   0.133  -0.404  0.00  0.00    +0.190 C 
BRANCH  27  30
ATOM     28  C   UNL     1       0.159  -0.636  -0.605  0.00  0.00    +0.041 A 
ATOM     29  C   UNL     1       1.223   0.283  -0.457  0.00  0.00    +0.046 A 
ATOM     30  C   UNL     1       2.363  -0.427  -0.515  0.00  0.00    +0.123 A 
ATOM     31  O   UNL     1       2.048  -1.721  -0.690  0.00  0.00    -0.466 OA
ATOM     32  C   UNL     1       0.713  -1.854  -0.745  0.00  0.00    +0.195 A 
ENDBRANCH  27  30
ENDBRANCH   1  27
TORSDOF 6
