REMARK  Name = ZINC41052807
REMARK  5 active torsions:
REMARK  status: ('A' for Active; 'I' for Inactive)
REMARK    1  A    between atoms: C_1  and  C_2
REMARK    2  A    between atoms: C_2  and  C_3
REMARK    3  A    between atoms: C_2  and  C_4
REMARK    4  A    between atoms: C_2  and  N_16
REMARK    5  A    between atoms: C_6  and  C_9
REMARK                            x       y       z     vdW  Elec       q    Type
REMARK                         _______ _______ _______ _____ _____    ______ ____
ROOT
ATOM      1  C   UNL     1      -1.412  -0.526   0.013  0.00  0.00    +0.160 A 
ATOM      2  N   UNL     1      -1.957  -1.303  -0.925  0.00  0.00    -0.193 NA
ATOM      3  C   UNL     1      -3.204  -1.577  -0.612  0.00  0.00    +0.258 A 
ATOM      4  O   UNL     1      -3.483  -0.969   0.553  0.00  0.00    -0.333 OA
ATOM      5  N   UNL     1      -2.295  -0.295   0.942  0.00  0.00    -0.062 NA
ENDROOT
BRANCH   3   6
ATOM      6  C   UNL     1      -4.135  -2.408  -1.404  0.00  0.00    +0.040 A 
ATOM      7  C   UNL     1      -3.713  -2.989  -2.601  0.00  0.00    +0.013 A 
ATOM      8  C   UNL     1      -4.587  -3.763  -3.335  0.00  0.00    +0.002 A 
ATOM      9  C   UNL     1      -5.881  -3.965  -2.887  0.00  0.00    +0.014 A 
ATOM     10  C   UNL     1      -6.306  -3.392  -1.702  0.00  0.00    +0.014 A 
ATOM     11  C   UNL     1      -5.439  -2.621  -0.954  0.00  0.00    +0.027 A 
ATOM     12  I   UNL     1      -8.268  -3.704  -1.035  0.00  0.00    -0.044 I 
ENDBRANCH   3   6
BRANCH   1  14
ATOM     13  C   UNL     1      -0.019   1.526   0.010  0.00  0.00    -0.003 C 
ATOM     14  C   UNL     1       0.002  -0.004   0.002  0.00  0.00    -0.012 C 
ATOM     15  C   UNL     1       0.742  -0.511   1.242  0.00  0.00    -0.003 C 
BRANCH  14  16
ATOM     16  N   UNL     1       0.690  -0.478  -1.207  0.00  0.00    +0.386 N 
ATOM     17  H   UNL     1       1.636  -0.129  -1.214  0.00  0.00    -0.089 HD
ATOM     18  H   UNL     1       0.703  -1.487  -1.212  0.00  0.00    -0.089 HD
ATOM     19  H   UNL     1       0.202  -0.144  -2.024  0.00  0.00    -0.089 HD
ENDBRANCH  14  16
ENDBRANCH   1  14
TORSDOF 3
