REMARK  Name = ZINC21022407
REMARK  11 active torsions:
REMARK  status: ('A' for Active; 'I' for Inactive)
REMARK    1  A    between atoms: C_1  and  C_2
REMARK    2  A    between atoms: C_8  and  S_29
REMARK    3  A    between atoms: C_12  and  C_14
REMARK    4  A    between atoms: N_16  and  C_17
REMARK    5  A    between atoms: C_17  and  C_18
REMARK    6  A    between atoms: C_18  and  C_19
REMARK    7  A    between atoms: C_19  and  N_20
REMARK    8  A    between atoms: N_20  and  C_21
REMARK    9  A    between atoms: N_20  and  C_22
REMARK   10  A    between atoms: C_22  and  C_23
REMARK   11  A    between atoms: S_29  and  N_32
REMARK                            x       y       z     vdW  Elec       q    Type
REMARK                         _______ _______ _______ _____ _____    ______ ____
ROOT
ATOM      1  C   UNL     1      -1.044   3.967   0.033  0.00  0.00    +0.109 C 
ATOM      2  C   UNL     1       0.399   4.402   0.022  0.00  0.00    +0.217 C 
ATOM      3  O   UNL     1       0.677   5.582   0.026  0.00  0.00    -0.276 OA
ATOM      4  N   UNL     1       1.381   3.478   0.008  0.00  0.00    -0.259 N 
ATOM      5  C   UNL     1       1.179   2.095   0.002  0.00  0.00    +0.040 A 
ATOM      6  C   UNL     1      -0.017   1.374   0.010  0.00  0.00    +0.026 A 
ATOM      7  C   UNL     1       0.002  -0.004   0.002  0.00  0.00    +0.030 A 
ATOM      8  C   UNL     1       1.206  -0.684  -0.014  0.00  0.00    +0.106 A 
ATOM      9  C   UNL     1       2.394   0.022  -0.021  0.00  0.00    +0.034 A 
ATOM     10  C   UNL     1       2.381   1.404  -0.013  0.00  0.00    -0.022 A 
ATOM     11  C   UNL     1       3.512   2.407  -0.018  0.00  0.00    +0.069 C 
ATOM     12  C   UNL     1       2.815   3.777  -0.004  0.00  0.00    +0.171 C 
ENDROOT
BRANCH  12  13
ATOM     13  C   UNL     1       3.176   4.560  -1.241  0.00  0.00    +0.234 C 
ATOM     14  O   UNL     1       2.428   4.564  -2.195  0.00  0.00    -0.274 OA
ATOM     15  N   UNL     1       4.329   5.255  -1.286  0.00  0.00    -0.314 N 
ATOM     16  H   UNL     1       5.008   5.251  -0.420  0.00  0.00    +0.149 HD
BRANCH  15  17
ATOM     17  C   UNL     1       4.680   6.016  -2.488  0.00  0.00    +0.102 C 
BRANCH  17  18
ATOM     18  C   UNL     1       6.028   6.708  -2.278  0.00  0.00    +0.000 C 
BRANCH  18  19
ATOM     19  C   UNL     1       6.394   7.502  -3.533  0.00  0.00    -0.077 C 
BRANCH  19  20
ATOM     20  N   UNL     1       7.689   8.166  -3.332  0.00  0.00    +0.381 N 
ATOM     21  C   UNL     1       8.773   7.182  -3.214  0.00  0.00    -0.096 C 
ATOM     22  H   UNL     1       7.638   8.728  -2.388  0.00  0.00    -0.082 HD
BRANCH  20  23
ATOM     23  C   UNL     1       7.963   9.123  -4.413  0.00  0.00    -0.043 C 
BRANCH  23  24
ATOM     24  C   UNL     1       9.167   9.956  -4.052  0.00  0.00    -0.064 A 
ATOM     25  C   UNL     1       9.004  11.143  -3.363  0.00  0.00    +0.002 A 
ATOM     26  C   UNL     1      10.108  11.905  -3.029  0.00  0.00    +0.000 A 
ATOM     27  C   UNL     1      11.374  11.484  -3.392  0.00  0.00    +0.000 A 
ATOM     28  C   UNL     1      11.536  10.300  -4.086  0.00  0.00    +0.000 A 
ATOM     29  C   UNL     1      10.432   9.536  -4.417  0.00  0.00    +0.002 A 
ENDBRANCH  23  24
ENDBRANCH  20  23
ENDBRANCH  19  20
ENDBRANCH  18  19
ENDBRANCH  17  18
ENDBRANCH  15  17
ENDBRANCH  12  13
BRANCH   8  30
ATOM     30  S   UNL     1       1.226  -2.446  -0.025  0.00  0.00    +0.061 S 
ATOM     31  O   UNL     1       2.481  -2.841   0.512  0.00  0.00    -0.153 OA
ATOM     32  O   UNL     1      -0.009  -2.869   0.536  0.00  0.00    -0.153 OA
BRANCH  30  33
ATOM     33  N   UNL     1       1.216  -2.926  -1.609  0.00  0.00    -0.177 NA
ATOM     34  C   UNL     1       0.017  -3.194  -2.416  0.00  0.00    +0.109 C 
ATOM     35  C   UNL     1       0.495  -3.634  -3.816  0.00  0.00    +0.018 C 
ATOM     36  C   UNL     1       1.936  -4.142  -3.545  0.00  0.00    +0.018 C 
ATOM     37  C   UNL     1       2.409  -3.161  -2.443  0.00  0.00    +0.109 C 
ENDBRANCH  30  33
ENDBRANCH   8  30
TORSDOF 9
