REMARK  Name = ZINC12479918
REMARK  14 active torsions:
REMARK  status: ('A' for Active; 'I' for Inactive)
REMARK    1  A    between atoms: C_1  and  C_2
REMARK    2  A    between atoms: C_5  and  C_35
REMARK    3  A    between atoms: C_6  and  N_8
REMARK    4  A    between atoms: N_8  and  C_9
REMARK    5  A    between atoms: C_9  and  C_11
REMARK    6  A    between atoms: C_9  and  C_16
REMARK    7  A    between atoms: N_18  and  C_19
REMARK    8  A    between atoms: C_19  and  C_20
REMARK    9  A    between atoms: C_20  and  C_21
REMARK   10  A    between atoms: C_21  and  C_22
REMARK   11  A    between atoms: C_21  and  C_23
REMARK   12  A    between atoms: C_24  and  C_26
REMARK   13  A    between atoms: C_27  and  N_34
REMARK   14  A    between atoms: C_28  and  C_31
REMARK                            x       y       z     vdW  Elec       q    Type
REMARK                         _______ _______ _______ _____ _____    ______ ____
ROOT
ATOM      1  N   UNL     1      -1.119   2.006  -0.908  0.00  0.00    -0.248 N 
ATOM      2  C   UNL     1      -2.097   2.733  -0.330  0.00  0.00    +0.262 C 
ATOM      3  O   UNL     1      -2.009   3.048   0.843  0.00  0.00    -0.269 OA
ENDROOT
BRANCH   1   9
ATOM      4  C   UNL     1      -0.194   2.994  -5.634  0.00  0.00    +0.044 C 
ATOM      5  C   UNL     1      -0.780   2.105  -4.567  0.00  0.00    -0.049 A 
ATOM      6  C   UNL     1      -1.418   0.930  -4.920  0.00  0.00    +0.004 A 
ATOM      7  C   UNL     1      -1.957   0.112  -3.945  0.00  0.00    +0.005 A 
ATOM      8  C   UNL     1      -1.855   0.463  -2.613  0.00  0.00    -0.029 A 
ATOM      9  C   UNL     1      -1.220   1.645  -2.255  0.00  0.00    +0.041 A 
ATOM     10  C   UNL     1      -0.680   2.465  -3.237  0.00  0.00    +0.027 A 
ATOM     11  C   UNL     1      -2.438  -0.432  -1.550  0.00  0.00    +0.045 C 
ENDBRANCH   1   9
BRANCH   2  12
ATOM     12  C   UNL     1      -3.263   3.144  -1.113  0.00  0.00    +0.116 A 
ATOM     13  C   UNL     1      -4.376   3.890  -0.719  0.00  0.00    +0.076 A 
ATOM     14  C   UNL     1      -5.287   4.080  -1.758  0.00  0.00    +0.155 A 
ATOM     15  N   UNL     1      -5.029   3.569  -2.941  0.00  0.00    -0.203 NA
ATOM     16  S   UNL     1      -3.640   2.834  -2.826  0.00  0.00    +0.019 S 
BRANCH  14  17
ATOM     17  C   UNL     1      -6.527   4.845  -1.530  0.00  0.00    +0.262 C 
ATOM     18  O   UNL     1      -6.759   5.314  -0.433  0.00  0.00    -0.269 OA
ATOM     19  N   UNL     1      -7.403   5.024  -2.539  0.00  0.00    -0.324 N 
ATOM     20  H   UNL     1      -7.217   4.649  -3.414  0.00  0.00    +0.145 HD
ATOM     21  H   UNL     1      -8.218   5.527  -2.390  0.00  0.00    +0.145 HD
ENDBRANCH  14  17
BRANCH  13  22
ATOM     22  N   UNL     1      -4.555   4.388   0.565  0.00  0.00    -0.355 N 
ATOM     23  H   UNL     1      -3.885   4.223   1.247  0.00  0.00    +0.142 HD
ATOM     24  H   UNL     1      -5.350   4.900   0.780  0.00  0.00    +0.142 HD
ENDBRANCH  13  22
ENDBRANCH   2  12
BRANCH   1  25
ATOM     25  C   UNL     1       0.048   1.595  -0.124  0.00  0.00    +0.233 C 
BRANCH  25  26
ATOM     26  C   UNL     1       0.234   0.104  -0.245  0.00  0.00    +0.135 A 
ATOM     27  C   UNL     1       0.405  -0.752   0.778  0.00  0.00    +0.047 A 
ATOM     28  C   UNL     1       0.536  -2.042   0.214  0.00  0.00    +0.041 A 
ATOM     29  C   UNL     1       0.446  -1.895  -1.120  0.00  0.00    +0.195 A 
ATOM     30  O   UNL     1       0.263  -0.593  -1.392  0.00  0.00    -0.465 OA
ENDBRANCH  25  26
BRANCH  25  31
ATOM     31  C   UNL     1       1.275   2.298  -0.644  0.00  0.00    +0.242 C 
ATOM     32  O   UNL     1       1.191   3.034  -1.605  0.00  0.00    -0.273 OA
ATOM     33  N   UNL     1       2.466   2.110  -0.041  0.00  0.00    -0.313 N 
ATOM     34  H   UNL     1       2.533   1.522   0.727  0.00  0.00    +0.149 HD
BRANCH  33  35
ATOM     35  C   UNL     1       3.659   2.793  -0.547  0.00  0.00    +0.104 C 
BRANCH  35  36
ATOM     36  C   UNL     1       4.868   2.410   0.309  0.00  0.00    +0.022 C 
BRANCH  36  37
ATOM     37  C   UNL     1       6.114   3.124  -0.218  0.00  0.00    -0.016 C 
ATOM     38  C   UNL     1       7.296   2.840   0.710  0.00  0.00    +0.007 C 
ATOM     39  C   UNL     1       6.436   2.615  -1.625  0.00  0.00    +0.007 C 
ENDBRANCH  36  37
ENDBRANCH  35  36
ENDBRANCH  33  35
ENDBRANCH  25  31
ENDBRANCH   1  25
TORSDOF 10
