REMARK  Name = ZINC39849876
REMARK  6 active torsions:
REMARK  status: ('A' for Active; 'I' for Inactive)
REMARK    1  A    between atoms: C_1  and  C_2
REMARK    2  A    between atoms: C_2  and  C_4
REMARK    3  A    between atoms: C_2  and  N_10
REMARK    4  A    between atoms: N_18  and  C_21
REMARK    5  A    between atoms: C_21  and  C_22
REMARK    6  A    between atoms: N_24  and  C_25
REMARK                            x       y       z     vdW  Elec       q    Type
REMARK                         _______ _______ _______ _____ _____    ______ ____
ROOT
ATOM      1  N   UNL     1      -1.368  -0.467   0.036  0.00  0.00    -0.253 N 
ATOM      2  C   UNL     1      -1.752  -1.294  -0.953  0.00  0.00    +0.266 A 
ATOM      3  O   UNL     1      -0.964  -1.628  -1.818  0.00  0.00    -0.267 OA
ATOM      4  C   UNL     1      -3.144  -1.794  -0.976  0.00  0.00    +0.074 A 
ATOM      5  C   UNL     1      -3.775  -2.690  -1.944  0.00  0.00    -0.023 A 
ATOM      6  C   UNL     1      -5.071  -2.968  -1.698  0.00  0.00    -0.004 A 
ATOM      7  S   UNL     1      -5.450  -2.068  -0.223  0.00  0.00    -0.075 S 
ATOM      8  C   UNL     1      -3.966  -1.354   0.059  0.00  0.00    +0.097 A 
ATOM      9  N   UNL     1      -3.492  -0.508   1.029  0.00  0.00    -0.278 N 
ATOM     10  C   UNL     1      -2.213  -0.087   1.007  0.00  0.00    +0.334 A 
ATOM     11  O   UNL     1      -1.817   0.658   1.883  0.00  0.00    -0.246 OA
ATOM     12  C   UNL     1      -5.974  -3.846  -2.508  0.00  0.00    +0.043 C 
ATOM     13  C   UNL     1      -5.313  -4.087  -3.874  0.00  0.00    +0.005 C 
ATOM     14  C   UNL     1      -3.851  -4.486  -3.653  0.00  0.00    +0.005 C 
ATOM     15  C   UNL     1      -3.053  -3.282  -3.147  0.00  0.00    +0.037 C 
ENDROOT
BRANCH   1  17
ATOM     16  C   UNL     1       0.978  -1.159   0.038  0.00  0.00    +0.036 C 
ATOM     17  C   UNL     1       0.011   0.027   0.057  0.00  0.00    +0.122 C 
BRANCH  17  18
ATOM     18  C   UNL     1       0.254   0.892  -1.153  0.00  0.00    -0.025 A 
ATOM     19  C   UNL     1      -0.787   1.615  -1.705  0.00  0.00    +0.005 A 
ATOM     20  C   UNL     1      -0.565   2.409  -2.815  0.00  0.00    +0.000 A 
ATOM     21  C   UNL     1       0.698   2.479  -3.373  0.00  0.00    +0.000 A 
ATOM     22  C   UNL     1       1.739   1.756  -2.821  0.00  0.00    +0.000 A 
ATOM     23  C   UNL     1       1.518   0.966  -1.708  0.00  0.00    +0.005 A 
ENDBRANCH  17  18
ENDBRANCH   1  17
BRANCH   9  24
ATOM     24  C   UNL     1      -4.383  -0.064   2.104  0.00  0.00    +0.223 C 
BRANCH  24  25
ATOM     25  C   UNL     1      -4.300  -1.031   3.257  0.00  0.00    +0.237 C 
ATOM     26  O   UNL     1      -3.568  -1.995   3.188  0.00  0.00    -0.274 OA
ATOM     27  N   UNL     1      -5.039  -0.823   4.365  0.00  0.00    -0.283 N 
ATOM     28  H   UNL     1      -5.686  -0.100   4.388  0.00  0.00    +0.155 HD
BRANCH  27  29
ATOM     29  C   UNL     1      -4.874  -1.648   5.479  0.00  0.00    +0.041 A 
ATOM     30  C   UNL     1      -3.683  -2.311   5.683  0.00  0.00    +0.024 A 
ATOM     31  C   UNL     1      -3.509  -3.136   6.790  0.00  0.00    +0.002 A 
ATOM     32  C   UNL     1      -4.506  -3.311   7.701  0.00  0.00    +0.008 A 
ATOM     33  C   UNL     1      -5.735  -2.652   7.530  0.00  0.00    -0.016 A 
ATOM     34  C   UNL     1      -5.923  -1.806   6.410  0.00  0.00    +0.003 A 
ATOM     35  C   UNL     1      -7.150  -1.145   6.243  0.00  0.00    +0.010 A 
ATOM     36  C   UNL     1      -8.141  -1.321   7.161  0.00  0.00    +0.001 A 
ATOM     37  C   UNL     1      -7.955  -2.148   8.266  0.00  0.00    +0.001 A 
ATOM     38  C   UNL     1      -6.782  -2.813   8.454  0.00  0.00    +0.008 A 
ENDBRANCH  27  29
ENDBRANCH  24  25
ENDBRANCH   9  24
TORSDOF 5
