REMARK  Name = ZINC13232196
REMARK  13 active torsions:
REMARK  status: ('A' for Active; 'I' for Inactive)
REMARK    1  A    between atoms: C_1  and  C_2
REMARK    2  A    between atoms: C_2  and  C_3
REMARK    3  A    between atoms: C_3  and  C_4
REMARK    4  A    between atoms: C_7  and  S_12
REMARK    5  A    between atoms: N_8  and  C_9
REMARK    6  A    between atoms: C_9  and  C_10
REMARK    7  A    between atoms: S_12  and  C_13
REMARK    8  A    between atoms: C_13  and  C_14
REMARK    9  A    between atoms: N_16  and  C_17
REMARK   10  A    between atoms: C_19  and  S_25
REMARK   11  A    between atoms: C_21  and  C_24
REMARK   12  A    between atoms: C_22  and  C_23
REMARK   13  A    between atoms: S_25  and  N_28
REMARK                            x       y       z     vdW  Elec       q    Type
REMARK                         _______ _______ _______ _____ _____    ______ ____
ROOT
ATOM      1  C   UNL     1      -3.768  -0.635   3.093  0.00  0.00    +0.227 C 
ATOM      2  O   UNL     1      -3.146  -0.973   2.108  0.00  0.00    -0.275 OA
ATOM      3  N   UNL     1      -3.492   0.539   3.695  0.00  0.00    -0.285 N 
ATOM      4  H   UNL     1      -3.944   0.780   4.519  0.00  0.00    +0.155 HD
ENDROOT
BRANCH   3   5
ATOM      5  C   UNL     1      -2.553   1.410   3.131  0.00  0.00    +0.038 A 
ATOM      6  C   UNL     1      -1.440   0.903   2.473  0.00  0.00    +0.052 A 
ATOM      7  C   UNL     1      -0.516   1.766   1.918  0.00  0.00    +0.107 A 
ATOM      8  C   UNL     1      -0.694   3.133   2.021  0.00  0.00    +0.032 A 
ATOM      9  C   UNL     1      -1.803   3.641   2.672  0.00  0.00    -0.044 A 
ATOM     10  C   UNL     1      -2.732   2.784   3.229  0.00  0.00    -0.026 A 
ATOM     11  C   UNL     1      -3.938   3.338   3.943  0.00  0.00    +0.046 C 
ATOM     12  C   UNL     1      -1.997   5.132   2.778  0.00  0.00    +0.044 C 
BRANCH   7  13
ATOM     13  S   UNL     1       0.896   1.123   1.082  0.00  0.00    +0.056 S 
ATOM     14  O   UNL     1       1.116  -0.182   1.601  0.00  0.00    -0.153 OA
ATOM     15  O   UNL     1       1.890   2.138   1.126  0.00  0.00    -0.153 OA
BRANCH  13  16
ATOM     16  N   UNL     1       0.480   0.936  -0.510  0.00  0.00    -0.204 NA
ATOM     17  H   UNL     1      -0.412   1.172  -0.809  0.00  0.00    +0.144 HD
ATOM     18  H   UNL     1       1.129   0.590  -1.143  0.00  0.00    +0.144 HD
ENDBRANCH  13  16
ENDBRANCH   7  13
ENDBRANCH   3   5
BRANCH   1  19
ATOM     19  C   UNL     1      -4.851  -1.527   3.642  0.00  0.00    +0.173 C 
BRANCH  19  20
ATOM     20  S   UNL     1      -4.981  -3.017   2.623  0.00  0.00    -0.077 S 
BRANCH  20  24
ATOM     21  C   UNL     1      -7.789  -5.307   4.067  0.00  0.00    +0.135 A 
ATOM     22  N   UNL     1      -7.806  -4.291   4.883  0.00  0.00    -0.134 NA
ATOM     23  N   UNL     1      -6.918  -3.430   4.535  0.00  0.00    -0.122 NA
ATOM     24  C   UNL     1      -6.282  -3.853   3.467  0.00  0.00    +0.193 A 
ATOM     25  N   UNL     1      -6.821  -5.062   3.133  0.00  0.00    -0.295 N 
BRANCH  21  26
ATOM     26  C   UNL     1      -8.676  -6.524   4.137  0.00  0.00    +0.076 C 
BRANCH  26  28
ATOM     27  C   UNL     1     -10.846  -7.511   3.390  0.00  0.00    +0.004 C 
ATOM     28  C   UNL     1      -9.945  -6.277   3.320  0.00  0.00    +0.004 C 
ENDBRANCH  26  28
ENDBRANCH  21  26
BRANCH  25  29
ATOM     29  C   UNL     1      -6.441  -5.920   2.008  0.00  0.00    +0.250 C 
BRANCH  29  30
ATOM     30  C   UNL     1      -5.355  -6.869   2.445  0.00  0.00    +0.375 C 
ATOM     31  O   UNL     1      -4.942  -6.833   3.580  0.00  0.00    -0.244 OA
ATOM     32  O   UNL     1      -4.847  -7.755   1.573  0.00  0.00    -0.244 OA
ENDBRANCH  29  30
ENDBRANCH  25  29
ENDBRANCH  20  24
ENDBRANCH  19  20
ENDBRANCH   1  19
TORSDOF 10
