REMARK  Name = ZINC39777192
REMARK  3 active torsions:
REMARK  status: ('A' for Active; 'I' for Inactive)
REMARK    1  A    between atoms: C_1  and  C_2
REMARK    2  A    between atoms: C_7  and  C_13
REMARK    3  A    between atoms: C_16  and  C_19
REMARK                            x       y       z     vdW  Elec       q    Type
REMARK                         _______ _______ _______ _____ _____    ______ ____
ROOT
ATOM      1  C   UNL     1       0.094  -6.332   1.198  0.00  0.00    +0.128 C 
ATOM      2  C   UNL     1      -1.340  -6.892   1.292  0.00  0.00    +0.085 C 
ATOM      3  C   UNL     1      -1.487  -7.718   0.034  0.00  0.00    +0.081 C 
ATOM      4  N   UNL     1      -0.414  -7.665  -0.643  0.00  0.00    -0.192 NA
ATOM      5  N   UNL     1       0.595  -6.886  -0.070  0.00  0.00    -0.261 N 
ATOM      6  H   UNL     1       1.477  -6.735  -0.444  0.00  0.00    +0.169 HD
ENDROOT
BRANCH   1  13
ATOM      7  C   UNL     1      -0.018   1.503   0.010  0.00  0.00    +0.044 C 
ATOM      8  C   UNL     1       0.002  -0.004   0.002  0.00  0.00    -0.048 A 
ATOM      9  C   UNL     1       0.005  -0.683  -1.215  0.00  0.00    +0.004 A 
ATOM     10  C   UNL     1       0.023  -2.044  -1.256  0.00  0.00    +0.010 A 
ATOM     11  C   UNL     1       0.039  -2.774  -0.056  0.00  0.00    +0.001 A 
ATOM     12  C   UNL     1       0.058  -4.182  -0.055  0.00  0.00    +0.018 A 
ATOM     13  C   UNL     1       0.073  -4.825   1.148  0.00  0.00    +0.012 A 
ATOM     14  C   UNL     1       0.069  -4.088   2.332  0.00  0.00    +0.135 A 
ATOM     15  N   UNL     1       0.051  -2.776   2.327  0.00  0.00    -0.235 NA
ATOM     16  C   UNL     1       0.036  -2.086   1.182  0.00  0.00    +0.073 A 
ATOM     17  C   UNL     1       0.022  -0.680   1.183  0.00  0.00    +0.031 A 
ATOM     18 CL   UNL     1       0.088  -4.927   3.852  0.00  0.00    -0.062 Cl
ENDBRANCH   1  13
BRANCH   3  19
ATOM     19  C   UNL     1      -2.722  -8.488  -0.358  0.00  0.00    +0.222 C 
ATOM     20  N   UNL     1      -3.403  -8.993   0.840  0.00  0.00    -0.359 N 
ATOM     21  C   UNL     1      -3.426 -10.292   0.759  0.00  0.00    +0.060 A 
ATOM     22  C   UNL     1      -3.961 -11.339   1.640  0.00  0.00    +0.027 A 
ATOM     23  C   UNL     1      -3.835 -12.634   1.287  0.00  0.00    +0.002 A 
ATOM     24  C   UNL     1      -3.205 -13.037   0.096  0.00  0.00    +0.002 A 
ATOM     25  C   UNL     1      -2.680 -12.159  -0.782  0.00  0.00    +0.027 A 
ATOM     26  C   UNL     1      -2.759 -10.719  -0.502  0.00  0.00    +0.060 A 
ATOM     27  N   UNL     1      -2.350  -9.667  -1.151  0.00  0.00    -0.359 N 
ATOM     28  H   UNL     1      -3.769  -8.457   1.561  0.00  0.00    +0.162 HD
ATOM     29  H   UNL     1      -1.885  -9.663  -2.002  0.00  0.00    +0.162 HD
ENDBRANCH   3  19
TORSDOF 2
