REMARK  Name = ZINC13565130
REMARK  10 active torsions:
REMARK  status: ('A' for Active; 'I' for Inactive)
REMARK    1  A    between atoms: C_1  and  C_2
REMARK    2  A    between atoms: C_2  and  N_3
REMARK    3  A    between atoms: C_4  and  C_11
REMARK    4  A    between atoms: C_7  and  S_8
REMARK    5  A    between atoms: S_8  and  C_9
REMARK    6  A    between atoms: C_9  and  C_10
REMARK    7  A    between atoms: C_17  and  C_18
REMARK    8  A    between atoms: C_17  and  N_56
REMARK    9  A    between atoms: N_20  and  C_21
REMARK   10  A    between atoms: C_24  and  C_28
REMARK                            x       y       z     vdW  Elec       q    Type
REMARK                         _______ _______ _______ _____ _____    ______ ____
ROOT
ATOM      1  C   UNL     1       0.029   1.213  -0.078  0.00  0.00    +0.040 C 
ATOM      2  C   UNL     1      -0.707   1.677   1.182  0.00  0.00    +0.007 C 
ATOM      3  C   UNL     1       0.004   1.113   2.416  0.00  0.00    -0.018 C 
ATOM      4  C   UNL     1       1.464   1.574   2.412  0.00  0.00    -0.078 C 
ATOM      5  C   UNL     1       1.488   1.671  -0.009  0.00  0.00    -0.067 C 
ATOM      6  N   UNL     1       2.122   1.075   1.186  0.00  0.00    +0.386 N 
ATOM      7  H   UNL     1       2.017   0.054   1.144  0.00  0.00    -0.081 HD
ENDROOT
BRANCH   1   9
ATOM      8  N   UNL     1      -1.194   1.122  -2.332  0.00  0.00    -0.306 N 
ATOM      9  C   UNL     1      -0.629   1.812  -1.294  0.00  0.00    +0.135 A 
ATOM     10  N   UNL     1      -0.771   3.081  -1.550  0.00  0.00    -0.133 NA
ATOM     11  N   UNL     1      -1.374   3.241  -2.674  0.00  0.00    -0.122 NA
ATOM     12  C   UNL     1      -1.660   2.071  -3.196  0.00  0.00    +0.192 A 
BRANCH   8  14
ATOM     13  C   UNL     1      -2.579  -0.835  -1.850  0.00  0.00    +0.027 C 
ATOM     14  C   UNL     1      -1.281  -0.333  -2.484  0.00  0.00    +0.122 C 
ENDBRANCH   8  14
BRANCH  12  15
ATOM     15  S   UNL     1      -2.489   1.780  -4.724  0.00  0.00    -0.086 S 
BRANCH  15  16
ATOM     16  C   UNL     1      -2.774   3.486  -5.257  0.00  0.00    +0.074 C 
ATOM     17  C   UNL     1      -3.503   3.485  -6.602  0.00  0.00    +0.016 C 
ENDBRANCH  15  16
ENDBRANCH  12  15
ENDBRANCH   1   9
BRANCH   6  18
ATOM     18  C   UNL     1       3.561   1.410   1.214  0.00  0.00    +0.019 C 
BRANCH  18  19
ATOM     19  C   UNL     1       4.247   0.692   0.080  0.00  0.00    +0.201 C 
ATOM     20  O   UNL     1       3.624  -0.087  -0.610  0.00  0.00    -0.278 OA
ATOM     21  N   UNL     1       5.553   0.917  -0.167  0.00  0.00    -0.286 N 
ATOM     22  H   UNL     1       6.070   1.478   0.431  0.00  0.00    +0.155 HD
BRANCH  21  23
ATOM     23  C   UNL     1       6.162   0.339  -1.287  0.00  0.00    +0.047 A 
ATOM     24  C   UNL     1       5.685  -0.861  -1.798  0.00  0.00    +0.024 A 
ATOM     25  C   UNL     1       6.289  -1.428  -2.903  0.00  0.00    +0.005 A 
ATOM     26  C   UNL     1       7.367  -0.802  -3.502  0.00  0.00    -0.049 A 
ATOM     27  C   UNL     1       7.845   0.393  -2.996  0.00  0.00    +0.020 A 
ATOM     28  C   UNL     1       7.242   0.968  -1.894  0.00  0.00    +0.039 A 
ATOM     29 BR   UNL     1       7.891   2.607  -1.207  0.00  0.00    -0.048 Br
ATOM     30  C   UNL     1       8.023  -1.424  -4.708  0.00  0.00    +0.044 C 
ENDBRANCH  21  23
ENDBRANCH  18  19
ENDBRANCH   6  18
TORSDOF 7
