REMARK  Name = ZINC64649134
REMARK  5 active torsions:
REMARK  status: ('A' for Active; 'I' for Inactive)
REMARK    1  A    between atoms: C_1  and  C_2
REMARK    2  A    between atoms: N_5  and  C_8
REMARK    3  A    between atoms: C_11  and  C_14
REMARK    4  A    between atoms: C_17  and  C_21
REMARK    5  A    between atoms: C_29  and  C_31
REMARK                            x       y       z     vdW  Elec       q    Type
REMARK                         _______ _______ _______ _____ _____    ______ ____
ROOT
ATOM      1  C   UNL     1      -0.562  -8.219   1.746  0.00  0.00    +0.180 C 
ATOM      2  N   UNL     1      -0.587  -8.606   3.173  0.00  0.00    -0.262 NA
ATOM      3  C   UNL     1       0.665  -9.357   3.420  0.00  0.00    +0.298 C 
ATOM      4  O   UNL     1       1.050  -9.867   2.123  0.00  0.00    -0.270 OA
ATOM      5  N   UNL     1       0.704  -8.761   1.200  0.00  0.00    -0.177 NA
ATOM      6  H   UNL     1      -0.643  -7.793   3.768  0.00  0.00    +0.127 HD
ATOM      7  H   UNL     1       1.426  -8.057   1.194  0.00  0.00    +0.156 HD
ENDROOT
BRANCH   3   8
ATOM      8  C   UNL     1       0.416 -10.491   4.380  0.00  0.00    +0.262 C 
ATOM      9  O   UNL     1       0.454 -11.638   3.987  0.00  0.00    -0.271 OA
ATOM     10  N   UNL     1       0.152 -10.231   5.676  0.00  0.00    -0.295 N 
ATOM     11  C   UNL     1       0.097  -8.846   6.165  0.00  0.00    +0.127 C 
ATOM     12  C   UNL     1      -1.259  -8.620   6.844  0.00  0.00    +0.127 C 
ATOM     13  N   UNL     1      -1.498  -9.716   7.793  0.00  0.00    -0.295 N 
ATOM     14  C   UNL     1      -1.443 -11.101   7.304  0.00  0.00    +0.127 C 
ATOM     15  C   UNL     1      -0.092 -11.327   6.624  0.00  0.00    +0.127 C 
ATOM     16  C   UNL     1      -1.762  -9.456   9.089  0.00  0.00    +0.247 C 
ATOM     17  O   UNL     1      -1.710  -8.313   9.503  0.00  0.00    -0.270 OA
BRANCH  16  18
ATOM     18  C   UNL     1      -2.115 -10.555  10.004  0.00  0.00    +0.042 C 
ATOM     19  C   UNL     1      -1.167 -11.393  10.601  0.00  0.00    +0.013 C 
ATOM     20  C   UNL     1      -1.582 -12.427  11.463  0.00  0.00    -0.001 C 
ATOM     21  C   UNL     1      -2.834 -12.892  11.547  0.00  0.00    +0.004 C 
ATOM     22  C   UNL     1      -3.900 -12.325  10.651  0.00  0.00    +0.159 C 
ATOM     23  C   UNL     1      -3.494 -10.875  10.382  0.00  0.00    -0.006 C 
ATOM     24  C   UNL     1      -4.588 -10.145  10.597  0.00  0.00    +0.026 C 
ATOM     25  C   UNL     1      -5.579 -10.953  11.203  0.00  0.00    +0.106 C 
ATOM     26  N   UNL     1      -5.217 -12.229  11.268  0.00  0.00    -0.279 NA
ENDBRANCH  16  18
ENDBRANCH   3   8
BRANCH   1  30
ATOM     27  C   UNL     1      -0.626  -3.964   1.371  0.00  0.00    +0.013 A 
ATOM     28  C   UNL     1       0.026  -4.731   0.424  0.00  0.00    +0.022 A 
ATOM     29  C   UNL     1       0.047  -6.108   0.546  0.00  0.00    +0.008 A 
ATOM     30  C   UNL     1      -0.584  -6.718   1.614  0.00  0.00    -0.014 A 
ATOM     31  C   UNL     1      -1.236  -5.950   2.562  0.00  0.00    +0.008 A 
ATOM     32  C   UNL     1      -1.253  -4.573   2.442  0.00  0.00    +0.022 A 
BRANCH  27  37
ATOM     33  C   UNL     1      -0.087   1.448  -0.095  0.00  0.00    +0.007 C 
ATOM     34  C   UNL     1       0.008  -0.079  -0.074  0.00  0.00    -0.011 C 
ATOM     35  C   UNL     1      -1.400  -0.679  -0.115  0.00  0.00    +0.020 C 
ATOM     36  C   UNL     1      -1.302  -2.203  -0.013  0.00  0.00    +0.085 C 
ATOM     37  N   UNL     1      -0.648  -2.571   1.248  0.00  0.00    -0.393 NA
ATOM     38  C   UNL     1       0.728  -2.059   1.264  0.00  0.00    +0.085 C 
ATOM     39  C   UNL     1       0.708  -0.530   1.211  0.00  0.00    +0.020 C 
ATOM     40  H   UNL     1      -1.162  -2.175   2.021  0.00  0.00    +0.126 HD
ENDBRANCH  27  37
ENDBRANCH   1  30
TORSDOF 4
