REMARK  Name = ZINC13498866
REMARK  15 active torsions:
REMARK  status: ('A' for Active; 'I' for Inactive)
REMARK    1  A    between atoms: C_1  and  C_2
REMARK    2  A    between atoms: C_2  and  C_3
REMARK    3  A    between atoms: C_3  and  C_4
REMARK    4  A    between atoms: C_3  and  C_5
REMARK    5  A    between atoms: C_3  and  N_6
REMARK    6  A    between atoms: C_7  and  C_11
REMARK    7  A    between atoms: C_11  and  C_13
REMARK    8  A    between atoms: C_11  and  N_74
REMARK    9  A    between atoms: C_13  and  C_14
REMARK   10  A    between atoms: C_13  and  C_15
REMARK   11  A    between atoms: C_16  and  C_17
REMARK   12  A    between atoms: C_16  and  N_74
REMARK   13  A    between atoms: C_21  and  C_30
REMARK   14  A    between atoms: C_22  and  C_29
REMARK   15  A    between atoms: C_31  and  N_74
REMARK                            x       y       z     vdW  Elec       q    Type
REMARK                         _______ _______ _______ _____ _____    ______ ____
ROOT
ATOM      1  N   UNL     1      -5.285   4.367  -1.193  0.00  0.00    +0.391 N 
ATOM      2  H   UNL     1      -5.151   3.360  -1.343  0.00  0.00    -0.080 HD
ENDROOT
BRANCH   1   3
ATOM      3  C   UNL     1      -4.606   5.109  -2.277  0.00  0.00    -0.067 C 
ATOM      4  C   UNL     1      -5.056   4.545  -3.641  0.00  0.00    -0.015 C 
ATOM      5  C   UNL     1      -3.772   4.581  -4.508  0.00  0.00    -0.002 C 
ATOM      6  C   UNL     1      -2.666   4.188  -3.497  0.00  0.00    -0.002 C 
ATOM      7  C   UNL     1      -3.087   4.882  -2.186  0.00  0.00    -0.015 C 
ENDBRANCH   1   3
BRANCH   1   8
ATOM      8  C   UNL     1      -6.732   4.667  -1.204  0.00  0.00    +0.006 C 
BRANCH   8  10
ATOM      9  N   UNL     1      -7.986   5.004  -3.399  0.00  0.00    -0.225 N 
ATOM     10  C   UNL     1      -7.310   4.234  -2.526  0.00  0.00    +0.139 A 
ATOM     11  N   UNL     1      -7.258   3.032  -3.047  0.00  0.00    -0.115 NA
ATOM     12  N   UNL     1      -7.866   3.064  -4.183  0.00  0.00    -0.023 NA
ATOM     13  N   UNL     1      -8.304   4.255  -4.400  0.00  0.00    -0.043 NA
BRANCH   9  14
ATOM     14  C   UNL     1      -8.299   6.427  -3.243  0.00  0.00    +0.061 C 
ATOM     15  C   UNL     1      -9.121   6.631  -1.969  0.00  0.00    +0.036 C 
ATOM     16  C   UNL     1      -6.999   7.227  -3.145  0.00  0.00    +0.036 C 
BRANCH  14  18
ATOM     17  C   UNL     1      -9.431   8.394  -4.289  0.00  0.00    +0.006 C 
ATOM     18  C   UNL     1      -9.104   6.908  -4.452  0.00  0.00    +0.026 C 
ENDBRANCH  14  18
ENDBRANCH   9  14
ENDBRANCH   8  10
BRANCH   8  19
ATOM     19  C   UNL     1      -7.409   3.892  -0.072  0.00  0.00    -0.024 C 
ATOM     20  C   UNL     1      -8.914   4.167  -0.095  0.00  0.00    +0.006 C 
ATOM     21  C   UNL     1      -7.162   2.394  -0.262  0.00  0.00    +0.006 C 
ENDBRANCH   8  19
ENDBRANCH   1   8
BRANCH   1  22
ATOM     22  C   UNL     1      -4.702   4.738   0.114  0.00  0.00    -0.036 C 
BRANCH  22  23
ATOM     23  C   UNL     1      -5.063   6.157   0.469  0.00  0.00    +0.001 A 
ATOM     24  C   UNL     1      -6.148   6.404   1.244  0.00  0.00    +0.017 A 
ATOM     25  C   UNL     1      -6.472   7.794   1.571  0.00  0.00    -0.001 A 
ATOM     26  C   UNL     1      -7.579   8.112   2.365  0.00  0.00    +0.013 A 
ATOM     27  C   UNL     1      -7.854   9.418   2.653  0.00  0.00    -0.047 A 
ATOM     28  C   UNL     1      -7.044  10.435   2.164  0.00  0.00    -0.046 A 
ATOM     29  C   UNL     1      -5.949  10.146   1.380  0.00  0.00    +0.030 A 
ATOM     30  C   UNL     1      -5.652   8.822   1.069  0.00  0.00    +0.049 A 
ATOM     31  N   UNL     1      -4.559   8.504   0.291  0.00  0.00    -0.322 N 
ATOM     32  H   UNL     1      -3.993   9.213  -0.050  0.00  0.00    +0.169 HD
ATOM     33  C   UNL     1      -4.270   7.224  -0.004  0.00  0.00    +0.251 A 
ATOM     34  O   UNL     1      -3.299   6.980  -0.699  0.00  0.00    -0.268 OA
ATOM     35  C   UNL     1      -7.367  11.869   2.494  0.00  0.00    +0.044 C 
ATOM     36  C   UNL     1      -9.047   9.760   3.508  0.00  0.00    +0.044 C 
ENDBRANCH  22  23
ENDBRANCH   1  22
TORSDOF 8
