REMARK  Name = ZINC39681945
REMARK  6 active torsions:
REMARK  status: ('A' for Active; 'I' for Inactive)
REMARK    1  A    between atoms: C_1  and  C_2
REMARK    2  A    between atoms: C_2  and  C_3
REMARK    3  A    between atoms: C_3  and  C_5
REMARK    4  A    between atoms: C_3  and  C_11
REMARK    5  A    between atoms: C_15  and  C_24
REMARK    6  A    between atoms: N_26  and  C_27
REMARK                            x       y       z     vdW  Elec       q    Type
REMARK                         _______ _______ _______ _____ _____    ______ ____
ROOT
ATOM      1  C   UNL     1       0.657  -2.160  -1.300  0.00  0.00    +0.223 C 
ATOM      2  O   UNL     1       1.654  -2.848  -1.365  0.00  0.00    -0.275 OA
ATOM      3  N   UNL     1      -0.562  -2.730  -1.386  0.00  0.00    -0.300 N 
ATOM      4  C   UNL     1      -1.883  -2.060  -1.334  0.00  0.00    +0.121 C 
ATOM      5  C   UNL     1      -2.738  -2.801  -2.386  0.00  0.00    +0.100 C 
ATOM      6  C   UNL     1      -2.078  -4.184  -2.524  0.00  0.00    -0.004 C 
ATOM      7  C   UNL     1      -0.883  -4.167  -1.560  0.00  0.00    +0.115 C 
ATOM      8  C   UNL     1      -1.591  -4.396  -3.954  0.00  0.00    -0.010 C 
ATOM      9  C   UNL     1      -0.990  -5.799  -4.081  0.00  0.00    -0.082 C 
ATOM     10  N   UNL     1      -2.006  -6.801  -3.735  0.00  0.00    +0.379 N 
ATOM     11  C   UNL     1      -2.401  -6.648  -2.330  0.00  0.00    -0.082 C 
ATOM     12  C   UNL     1      -3.061  -5.281  -2.129  0.00  0.00    -0.010 C 
ATOM     13  H   UNL     1      -2.814  -6.676  -4.326  0.00  0.00    -0.086 HD
ATOM     14  H   UNL     1      -1.627  -7.725  -3.878  0.00  0.00    -0.086 HD
ENDROOT
BRANCH   5  15
ATOM     15  C   UNL     1      -4.158  -2.942  -1.903  0.00  0.00    +0.218 C 
ATOM     16  O   UNL     1      -4.389  -3.034  -0.716  0.00  0.00    -0.275 OA
ATOM     17  N   UNL     1      -5.173  -2.964  -2.791  0.00  0.00    -0.314 N 
ATOM     18  H   UNL     1      -4.988  -2.890  -3.740  0.00  0.00    +0.149 HD
BRANCH  17  19
ATOM     19  C   UNL     1      -6.554  -3.100  -2.322  0.00  0.00    +0.059 C 
ATOM     20  C   UNL     1      -7.109  -1.722  -1.955  0.00  0.00    -0.056 C 
ATOM     21  N   UNL     1      -8.281  -1.418  -2.779  0.00  0.00    +0.381 N 
ATOM     22  C   UNL     1      -7.918  -1.381  -4.198  0.00  0.00    -0.078 C 
ATOM     23  C   UNL     1      -7.390  -2.748  -4.639  0.00  0.00    -0.014 C 
ATOM     24  C   UNL     1      -7.418  -3.704  -3.436  0.00  0.00    +0.004 C 
ATOM     25  C   UNL     1      -8.863  -3.800  -2.929  0.00  0.00    -0.014 C 
ATOM     26  C   UNL     1      -9.345  -2.397  -2.544  0.00  0.00    -0.078 C 
ATOM     27  H   UNL     1      -8.624  -0.505  -2.521  0.00  0.00    -0.082 HD
ENDBRANCH  17  19
ENDBRANCH   5  15
BRANCH   1  28
ATOM     28  C   UNL     1       0.781  -0.669  -1.122  0.00  0.00    +0.105 C 
BRANCH  28  29
ATOM     29  C   UNL     1       2.238  -0.291  -1.054  0.00  0.00    -0.036 A 
ATOM     30  C   UNL     1       3.044  -0.818  -0.063  0.00  0.00    +0.004 A 
ATOM     31  C   UNL     1       4.381  -0.471  -0.002  0.00  0.00    +0.000 A 
ATOM     32  C   UNL     1       4.912   0.403  -0.931  0.00  0.00    +0.000 A 
ATOM     33  C   UNL     1       4.106   0.930  -1.923  0.00  0.00    +0.000 A 
ATOM     34  C   UNL     1       2.770   0.579  -1.988  0.00  0.00    +0.004 A 
ENDBRANCH  28  29
BRANCH  28  36
ATOM     35  C   UNL     1       0.102   1.275   0.294  0.00  0.00    +0.005 C 
ATOM     36  C   UNL     1       0.085  -0.251   0.175  0.00  0.00    +0.014 C 
ENDBRANCH  28  36
ENDBRANCH   1  28
TORSDOF 5
