REMARK  Name = ZINC38785443
REMARK  10 active torsions:
REMARK  status: ('A' for Active; 'I' for Inactive)
REMARK    1  A    between atoms: C_1  and  C_2
REMARK    2  A    between atoms: C_7  and  N_8
REMARK    3  A    between atoms: C_9  and  C_11
REMARK    4  A    between atoms: C_11  and  C_13
REMARK    5  A    between atoms: C_11  and  S_14
REMARK    6  A    between atoms: S_14  and  C_15
REMARK    7  A    between atoms: C_20  and  C_25
REMARK    8  A    between atoms: C_28  and  C_31
REMARK    9  A    between atoms: C_31  and  C_32
REMARK   10  A    between atoms: C_31  and  C_33
REMARK                            x       y       z     vdW  Elec       q    Type
REMARK                         _______ _______ _______ _____ _____    ______ ____
ROOT
ATOM      1  C   UNL     1       0.407   0.070   7.641  0.00  0.00    +0.182 C 
ATOM      2  N   UNL     1      -0.047   1.302   7.490  0.00  0.00    -0.151 NA
ATOM      3  C   UNL     1      -0.127   2.167   8.501  0.00  0.00    +0.272 C 
ATOM      4  O   UNL     1      -0.551   3.298   8.328  0.00  0.00    -0.268 OA
ATOM      5  C   UNL     1       0.318   1.712   9.852  0.00  0.00    +0.075 C 
ATOM      6  C   UNL     1       0.326   2.419  11.026  0.00  0.00    -0.015 C 
ATOM      7  C   UNL     1       0.833   1.706  12.259  0.00  0.00    +0.112 C 
ATOM      8  S   UNL     1       1.258   0.048  11.590  0.00  0.00    -0.100 S 
ATOM      9  C   UNL     1       0.803   0.322   9.896  0.00  0.00    +0.112 C 
ATOM     10  N   UNL     1       0.818  -0.415   8.812  0.00  0.00    -0.217 NA
ENDROOT
BRANCH   6  11
ATOM     11  C   UNL     1      -0.137   3.808  11.084  0.00  0.00    -0.020 A 
ATOM     12  C   UNL     1       0.554   4.810  10.388  0.00  0.00    +0.008 A 
ATOM     13  C   UNL     1       0.111   6.114  10.448  0.00  0.00    +0.004 A 
ATOM     14  C   UNL     1      -1.012   6.434  11.192  0.00  0.00    -0.045 A 
ATOM     15  C   UNL     1      -1.700   5.451  11.882  0.00  0.00    +0.004 A 
ATOM     16  C   UNL     1      -1.276   4.141  11.830  0.00  0.00    +0.008 A 
BRANCH  14  17
ATOM     17  C   UNL     1      -1.488   7.863  11.251  0.00  0.00    +0.013 C 
ATOM     18  C   UNL     1      -2.912   7.950  10.700  0.00  0.00    +0.012 C 
ATOM     19  C   UNL     1      -1.473   8.346  12.703  0.00  0.00    +0.012 C 
ENDBRANCH  14  17
ENDBRANCH   6  11
BRANCH   1  20
ATOM     20  S   UNL     1       0.466  -0.983   6.229  0.00  0.00    -0.076 S 
BRANCH  20  21
ATOM     21  C   UNL     1      -0.168   0.054   4.882  0.00  0.00    +0.137 C 
ATOM     22  C   UNL     1      -1.635   0.397   5.150  0.00  0.00    +0.029 C 
BRANCH  21  24
ATOM     23  N   UNL     1       0.025  -0.014   2.417  0.00  0.00    -0.284 N 
ATOM     24  C   UNL     1      -0.056  -0.693   3.578  0.00  0.00    +0.230 C 
ATOM     25  O   UNL     1      -0.040  -1.906   3.574  0.00  0.00    -0.274 OA
ATOM     26  H   UNL     1       0.078   0.955   2.424  0.00  0.00    +0.155 HD
BRANCH  23  33
ATOM     27  C   UNL     1      -1.264   1.183   0.181  0.00  0.00    +0.045 C 
ATOM     28  C   UNL     1      -0.584  -0.158   0.084  0.00  0.00    -0.029 A 
ATOM     29  C   UNL     1      -0.569  -0.840  -1.117  0.00  0.00    +0.006 A 
ATOM     30  C   UNL     1       0.054  -2.070  -1.207  0.00  0.00    +0.020 A 
ATOM     31  C   UNL     1       0.667  -2.622  -0.095  0.00  0.00    +0.043 A 
ATOM     32  C   UNL     1       0.655  -1.944   1.109  0.00  0.00    +0.043 A 
ATOM     33  C   UNL     1       0.034  -0.706   1.201  0.00  0.00    +0.038 A 
ATOM     34 CL   UNL     1       1.449  -4.168  -0.213  0.00  0.00    -0.083 Cl
ENDBRANCH  23  33
ENDBRANCH  21  24
ENDBRANCH  20  21
ENDBRANCH   1  20
TORSDOF 6
