REMARK  Name = ZINC34786630
REMARK  7 active torsions:
REMARK  status: ('A' for Active; 'I' for Inactive)
REMARK    1  A    between atoms: C_1  and  C_2
REMARK    2  A    between atoms: C_5  and  N_8
REMARK    3  A    between atoms: N_8  and  N_9
REMARK    4  A    between atoms: N_9  and  N_30
REMARK    5  A    between atoms: C_20  and  C_25
REMARK    6  A    between atoms: C_22  and  C_24
REMARK    7  A    between atoms: N_30  and  C_31
REMARK                            x       y       z     vdW  Elec       q    Type
REMARK                         _______ _______ _______ _____ _____    ______ ____
ROOT
ATOM      1  N   UNL     1       0.369  -4.787   1.215  0.00  0.00    -0.151 N 
ATOM      2  C   UNL     1      -0.752  -5.401   1.742  0.00  0.00    +0.170 A 
ATOM      3  C   UNL     1      -0.750  -5.876   3.083  0.00  0.00    +0.054 A 
ATOM      4  C   UNL     1       0.327  -5.818   4.073  0.00  0.00    -0.025 A 
ATOM      5  C   UNL     1       0.072  -6.345   5.287  0.00  0.00    -0.004 A 
ATOM      6  S   UNL     1      -1.595  -6.943   5.191  0.00  0.00    -0.073 S 
ATOM      7  C   UNL     1      -1.947  -6.483   3.514  0.00  0.00    +0.116 A 
ATOM      8  N   UNL     1      -2.990  -6.598   2.715  0.00  0.00    -0.203 NA
ATOM      9  C   UNL     1      -2.934  -6.138   1.475  0.00  0.00    +0.254 A 
ATOM     10  N   UNL     1      -1.842  -5.550   1.006  0.00  0.00    -0.192 NA
ATOM     11  N   UNL     1      -4.048  -6.271   0.646  0.00  0.00    -0.202 N 
ATOM     12  C   UNL     1      -5.236  -6.838   0.985  0.00  0.00    +0.045 A 
ATOM     13  C   UNL     1      -6.046  -6.767  -0.096  0.00  0.00    +0.048 A 
ATOM     14  C   UNL     1      -5.338  -6.139  -1.127  0.00  0.00    +0.061 A 
ATOM     15  N   UNL     1      -4.145  -5.837  -0.683  0.00  0.00    -0.169 NA
ATOM     16  C   UNL     1      -5.862  -5.854  -2.510  0.00  0.00    +0.067 C 
ATOM     17  C   UNL     1      -5.586  -7.437   2.322  0.00  0.00    +0.066 C 
ATOM     18  C   UNL     1       0.999  -6.411   6.462  0.00  0.00    +0.043 C 
ATOM     19  C   UNL     1       2.425  -6.121   5.971  0.00  0.00    +0.005 C 
ATOM     20  C   UNL     1       2.393  -4.874   5.082  0.00  0.00    +0.005 C 
ATOM     21  C   UNL     1       1.686  -5.194   3.764  0.00  0.00    +0.037 C 
ENDROOT
BRANCH   1  22
ATOM     22  N   UNL     1       1.628  -5.384   1.359  0.00  0.00    -0.246 N 
ATOM     23  H   UNL     1       2.277  -5.006   1.973  0.00  0.00    +0.172 HD
BRANCH  22  28
ATOM     24  C   UNL     1       2.931 -10.015  -1.643  0.00  0.00    +0.044 C 
ATOM     25  C   UNL     1       2.584  -8.785  -0.845  0.00  0.00    -0.050 A 
ATOM     26  C   UNL     1       3.462  -8.315   0.114  0.00  0.00    +0.005 A 
ATOM     27  C   UNL     1       3.148  -7.188   0.847  0.00  0.00    +0.025 A 
ATOM     28  C   UNL     1       1.949  -6.525   0.619  0.00  0.00    +0.046 A 
ATOM     29  C   UNL     1       1.069  -6.999  -0.345  0.00  0.00    +0.025 A 
ATOM     30  C   UNL     1       1.392  -8.124  -1.078  0.00  0.00    +0.005 A 
ENDBRANCH  22  28
ENDBRANCH   1  22
BRANCH   1  31
ATOM     31  N   UNL     1       0.246  -3.567   0.536  0.00  0.00    -0.246 N 
ATOM     32  H   UNL     1       0.273  -3.546  -0.433  0.00  0.00    +0.172 HD
BRANCH  31  33
ATOM     33  C   UNL     1       0.085  -2.381   1.256  0.00  0.00    +0.046 A 
ATOM     34  C   UNL     1      -0.072  -2.420   2.635  0.00  0.00    +0.024 A 
ATOM     35  C   UNL     1      -0.231  -1.245   3.344  0.00  0.00    +0.002 A 
ATOM     36  C   UNL     1      -0.234  -0.031   2.682  0.00  0.00    +0.000 A 
ATOM     37  C   UNL     1      -0.078   0.011   1.308  0.00  0.00    +0.002 A 
ATOM     38  C   UNL     1       0.088  -1.160   0.594  0.00  0.00    +0.024 A 
ENDBRANCH  31  33
ENDBRANCH   1  31
TORSDOF 4
