REMARK  Name = ZINC29936303
REMARK  6 active torsions:
REMARK  status: ('A' for Active; 'I' for Inactive)
REMARK    1  A    between atoms: C_3  and  C_6
REMARK    2  A    between atoms: C_6  and  C_8
REMARK    3  A    between atoms: C_6  and  N_15
REMARK    4  A    between atoms: N_15  and  C_16
REMARK    5  A    between atoms: C_16  and  C_17
REMARK    6  A    between atoms: N_22  and  C_23
REMARK                            x       y       z     vdW  Elec       q    Type
REMARK                         _______ _______ _______ _____ _____    ______ ____
ROOT
ATOM      1  C   UNL     1       4.832  -4.006   0.226  0.00  0.00    +0.203 C 
ATOM      2  O   UNL     1       3.790  -4.627   0.235  0.00  0.00    -0.277 OA
ATOM      3  N   UNL     1       4.814  -2.662   0.133  0.00  0.00    -0.241 N 
ATOM      4  C   UNL     1       3.639  -2.008   0.049  0.00  0.00    +0.310 C 
ATOM      5  O   UNL     1       2.595  -2.630   0.058  0.00  0.00    -0.252 OA
ATOM      6  N   UNL     1       3.622  -0.663  -0.045  0.00  0.00    -0.269 N 
ATOM      7  H   UNL     1       5.759  -2.099   0.124  0.00  0.00    +0.159 HD
ATOM      8  H   UNL     1       4.565  -0.106  -0.141  0.00  0.00    +0.156 HD
ENDROOT
BRANCH   6   9
ATOM      9  C   UNL     1       2.401   0.025  -0.019  0.00  0.00    +0.038 A 
ATOM     10  C   UNL     1       1.346  -0.460   0.741  0.00  0.00    +0.027 A 
ATOM     11  C   UNL     1       0.142   0.218   0.766  0.00  0.00    +0.051 A 
ATOM     12  C   UNL     1      -0.016   1.384   0.032  0.00  0.00    +0.162 A 
ATOM     13  C   UNL     1       1.040   1.873  -0.728  0.00  0.00    +0.164 A 
ATOM     14  C   UNL     1       2.247   1.192  -0.754  0.00  0.00    +0.072 A 
ATOM     15  O   UNL     1       0.906   3.021  -1.448  0.00  0.00    -0.485 OA
ATOM     16  C   UNL     1      -0.429   3.474  -1.696  0.00  0.00    +0.270 C 
ATOM     17  C   UNL     1      -1.215   3.396  -0.380  0.00  0.00    +0.270 C 
ATOM     18  O   UNL     1      -1.212   2.034   0.062  0.00  0.00    -0.485 OA
ENDBRANCH   6   9
BRANCH   1  19
ATOM     19  C   UNL     1       6.146  -4.738   0.320  0.00  0.00    +0.017 C 
BRANCH  19  20
ATOM     20  N   UNL     1       5.896  -6.183   0.412  0.00  0.00    +0.392 N 
ATOM     21  H   UNL     1       5.345  -6.503  -0.485  0.00  0.00    -0.084 HD
ATOM     22  H   UNL     1       5.287  -6.379   1.306  0.00  0.00    -0.084 HD
BRANCH  20  23
ATOM     23  C   UNL     1       7.157  -6.930   0.504  0.00  0.00    -0.003 C 
BRANCH  23  24
ATOM     24  C   UNL     1       6.910  -8.249   1.190  0.00  0.00    -0.056 A 
ATOM     25  C   UNL     1       5.762  -8.968   0.913  0.00  0.00    +0.005 A 
ATOM     26  C   UNL     1       5.537 -10.180   1.537  0.00  0.00    +0.038 A 
ATOM     27  C   UNL     1       6.457 -10.670   2.448  0.00  0.00    +0.123 A 
ATOM     28  C   UNL     1       7.604  -9.947   2.729  0.00  0.00    +0.038 A 
ATOM     29  C   UNL     1       7.830  -8.738   2.100  0.00  0.00    +0.005 A 
ATOM     30  F   UNL     1       6.235 -11.852   3.064  0.00  0.00    -0.205 F 
ENDBRANCH  23  24
BRANCH  23  33
ATOM     31  C   UNL     1       9.245  -7.390  -2.649  0.00  0.00    +0.008 A 
ATOM     32  C   UNL     1       8.979  -7.118  -1.320  0.00  0.00    +0.010 A 
ATOM     33  C   UNL     1       7.698  -7.177  -0.880  0.00  0.00    -0.020 A 
ATOM     34  S   UNL     1       6.817  -7.617  -2.369  0.00  0.00    -0.103 S 
ATOM     35  C   UNL     1       8.216  -7.698  -3.475  0.00  0.00    +0.045 A 
ENDBRANCH  23  33
ENDBRANCH  20  23
ENDBRANCH  19  20
ENDBRANCH   1  19
TORSDOF 6
