REMARK  Name = ZINC66981439
REMARK  7 active torsions:
REMARK  status: ('A' for Active; 'I' for Inactive)
REMARK    1  A    between atoms: C_1  and  C_2
REMARK    2  A    between atoms: C_8  and  C_28
REMARK    3  A    between atoms: C_8  and  C_29
REMARK    4  A    between atoms: C_10  and  N_12
REMARK    5  A    between atoms: N_15  and  C_16
REMARK    6  A    between atoms: C_18  and  N_24
REMARK    7  A    between atoms: C_25  and  C_27
REMARK                            x       y       z     vdW  Elec       q    Type
REMARK                         _______ _______ _______ _____ _____    ______ ____
ROOT
ATOM      1  N   UNL     1      -2.482  -3.318   0.914  0.00  0.00    -0.292 N 
ATOM      2  C   UNL     1      -3.647  -2.740   0.560  0.00  0.00    +0.304 C 
ATOM      3  O   UNL     1      -3.794  -2.309  -0.568  0.00  0.00    -0.252 OA
ATOM      4  N   UNL     1      -4.648  -2.638   1.456  0.00  0.00    -0.267 N 
ATOM      5  H   UNL     1      -2.365  -3.661   1.814  0.00  0.00    +0.151 HD
ATOM      6  H   UNL     1      -4.556  -3.038   2.335  0.00  0.00    +0.156 HD
ENDROOT
BRANCH   1  16
ATOM      7  C   UNL     1       0.025   1.471  -0.060  0.00  0.00    +0.086 C 
ATOM      8  C   UNL     1       0.033  -0.036  -0.067  0.00  0.00    +0.103 A 
ATOM      9  C   UNL     1      -1.056  -0.829  -0.055  0.00  0.00    +0.050 A 
ATOM     10  C   UNL     1      -0.589  -2.155  -0.068  0.00  0.00    +0.014 A 
ATOM     11  C   UNL     1       0.759  -2.102  -0.088  0.00  0.00    +0.111 A 
ATOM     12  O   UNL     1       1.129  -0.816  -0.092  0.00  0.00    -0.464 OA
ATOM     13  C   UNL     1       1.650  -3.321  -0.110  0.00  0.00    +0.081 C 
ATOM     14  C   UNL     1       0.804  -4.532  -0.522  0.00  0.00    -0.026 C 
ATOM     15  C   UNL     1      -0.465  -4.585   0.332  0.00  0.00    +0.034 C 
ATOM     16  C   UNL     1      -1.393  -3.429  -0.060  0.00  0.00    +0.109 C 
ATOM     17  C   UNL     1       1.614  -5.813  -0.314  0.00  0.00    +0.011 C 
ATOM     18  C   UNL     1       0.420  -4.406  -1.998  0.00  0.00    +0.011 C 
ENDBRANCH   1  16
BRANCH   4  19
ATOM     19  C   UNL     1      -5.824  -1.954   1.118  0.00  0.00    +0.072 A 
ATOM     20  C   UNL     1      -6.308  -2.004  -0.182  0.00  0.00    +0.052 A 
ATOM     21  C   UNL     1      -7.472  -1.327  -0.514  0.00  0.00    +0.071 A 
ATOM     22  C   UNL     1      -8.152  -0.599   0.456  0.00  0.00    +0.147 A 
ATOM     23  C   UNL     1      -7.668  -0.549   1.751  0.00  0.00    +0.080 A 
ATOM     24  C   UNL     1      -6.510  -1.229   2.086  0.00  0.00    +0.147 A 
ATOM     25  F   UNL     1      -6.043  -1.184   3.353  0.00  0.00    -0.203 F 
ATOM     26  F   UNL     1      -9.286   0.061   0.134  0.00  0.00    -0.203 F 
BRANCH  21  27
ATOM     27  N   UNL     1      -7.962  -1.376  -1.826  0.00  0.00    -0.283 N 
ATOM     28  C   UNL     1      -7.817  -2.498  -2.557  0.00  0.00    +0.214 C 
ATOM     29  O   UNL     1      -7.193  -3.438  -2.111  0.00  0.00    -0.276 OA
ATOM     30  C   UNL     1      -8.432  -2.587  -3.931  0.00  0.00    +0.109 C 
ATOM     31  H   UNL     1      -8.404  -0.602  -2.207  0.00  0.00    +0.155 HD
ENDBRANCH  21  27
ENDBRANCH   4  19
TORSDOF 3
