REMARK  Name = ZINC09320407
REMARK  4 active torsions:
REMARK  status: ('A' for Active; 'I' for Inactive)
REMARK    1  A    between atoms: C_1  and  C_2
REMARK    2  A    between atoms: C_23  and  O_35
REMARK    3  A    between atoms: N_24  and  C_27
REMARK    4  A    between atoms: C_27  and  C_28
REMARK                            x       y       z     vdW  Elec       q    Type
REMARK                         _______ _______ _______ _____ _____    ______ ____
ROOT
ATOM      1  C   UNL     1       8.774   0.125  -6.502  0.00  0.00    +0.044 C 
ATOM      2  C   UNL     1       7.908  -0.935  -5.870  0.00  0.00    -0.050 A 
ATOM      3  C   UNL     1       8.502  -2.059  -5.301  0.00  0.00    +0.005 A 
ATOM      4  C   UNL     1       7.749  -3.034  -4.722  0.00  0.00    +0.026 A 
ATOM      5  C   UNL     1       6.349  -2.909  -4.693  0.00  0.00    +0.048 A 
ATOM      6  C   UNL     1       5.748  -1.767  -5.276  0.00  0.00    -0.001 A 
ATOM      7  C   UNL     1       6.555  -0.781  -5.863  0.00  0.00    +0.013 A 
ATOM      8  C   UNL     1       4.345  -1.653  -5.251  0.00  0.00    +0.017 A 
ATOM      9  C   UNL     1       3.615  -2.646  -4.662  0.00  0.00    -0.007 A 
ATOM     10  C   UNL     1       4.262  -3.747  -4.092  0.00  0.00    +0.103 A 
ATOM     11  N   UNL     1       3.576  -4.772  -3.461  0.00  0.00    -0.312 N 
ATOM     12  C   UNL     1       4.249  -6.061  -3.668  0.00  0.00    +0.107 C 
ATOM     13  C   UNL     1       3.604  -7.123  -2.774  0.00  0.00    +0.019 C 
ATOM     14  C   UNL     1       2.116  -7.237  -3.117  0.00  0.00    +0.003 C 
ATOM     15  C   UNL     1       1.452  -5.869  -2.936  0.00  0.00    +0.024 C 
ATOM     16  C   UNL     1       2.162  -4.842  -3.822  0.00  0.00    +0.099 C 
ATOM     17  C   UNL     1       1.520  -3.465  -3.615  0.00  0.00    +0.148 C 
ATOM     18  C   UNL     1       2.114  -2.509  -4.653  0.00  0.00    +0.066 C 
ATOM     19  C   UNL     1       0.035  -3.568  -3.812  0.00  0.00    +0.257 C 
ATOM     20  O   UNL     1      -0.389  -3.960  -4.881  0.00  0.00    -0.272 OA
ATOM     21  N   UNL     1      -0.828  -3.244  -2.861  0.00  0.00    -0.130 NA
ATOM     22  C   UNL     1      -0.449  -2.818  -1.676  0.00  0.00    +0.281 C 
ATOM     23  N   UNL     1       0.868  -2.671  -1.355  0.00  0.00    -0.223 N 
ATOM     24  C   UNL     1       1.839  -2.968  -2.233  0.00  0.00    +0.240 C 
ATOM     25  O   UNL     1       2.998  -2.830  -1.905  0.00  0.00    -0.274 OA
ATOM     26  N   UNL     1       5.621  -3.912  -4.095  0.00  0.00    -0.343 N 
ATOM     27  H   UNL     1       6.069  -4.734  -3.676  0.00  0.00    +0.167 HD
ENDROOT
BRANCH  22  28
ATOM     28  O   UNL     1      -1.384  -2.513  -0.759  0.00  0.00    -0.483 OA
ATOM     29  H   UNL     1      -2.308  -2.629  -1.019  0.00  0.00    +0.295 HD
ENDBRANCH  22  28
BRANCH  23  30
ATOM     30  C   UNL     1       1.231  -2.186  -0.022  0.00  0.00    +0.154 C 
BRANCH  30  31
ATOM     31  C   UNL     1       1.229  -0.679  -0.019  0.00  0.00    -0.011 A 
ATOM     32  C   UNL     1       1.030   0.015  -1.198  0.00  0.00    +0.006 A 
ATOM     33  C   UNL     1       1.029   1.397  -1.195  0.00  0.00    +0.000 A 
ATOM     34  C   UNL     1       1.225   2.087  -0.012  0.00  0.00    +0.001 A 
ATOM     35  C   UNL     1       1.424   1.395   1.167  0.00  0.00    +0.020 A 
ATOM     36  C   UNL     1       1.426   0.011   1.164  0.00  0.00    +0.046 A 
ATOM     37 CL   UNL     1       1.676  -0.860   2.646  0.00  0.00    -0.083 Cl
ENDBRANCH  30  31
ENDBRANCH  23  30
TORSDOF 3
