REMARK  Name = ZINC34835607
REMARK  15 active torsions:
REMARK  status: ('A' for Active; 'I' for Inactive)
REMARK    1  A    between atoms: C_1  and  C_2
REMARK    2  A    between atoms: C_2  and  C_3
REMARK    3  A    between atoms: C_3  and  C_4
REMARK    4  A    between atoms: C_4  and  C_5
REMARK    5  A    between atoms: C_5  and  C_7
REMARK    6  A    between atoms: C_5  and  C_9
REMARK    7  A    between atoms: C_7  and  C_8
REMARK    8  A    between atoms: N_11  and  C_12
REMARK    9  A    between atoms: N_11  and  C_34
REMARK   10  A    between atoms: C_12  and  C_13
REMARK   11  A    between atoms: C_14  and  C_33
REMARK   12  A    between atoms: N_16  and  C_26
REMARK   13  A    between atoms: C_17  and  N_18
REMARK   14  A    between atoms: N_21  and  C_24
REMARK   15  A    between atoms: C_24  and  C_25
REMARK                            x       y       z     vdW  Elec       q    Type
REMARK                         _______ _______ _______ _____ _____    ______ ____
ROOT
ATOM      1  C   UNL     1      -4.274  -6.927   0.554  0.00  0.00    +0.032 A 
ATOM      2  C   UNL     1      -3.553  -6.748   1.738  0.00  0.00    +0.067 A 
ATOM      3  N   UNL     1      -4.253  -7.239   2.729  0.00  0.00    -0.170 NA
ATOM      4  N   UNL     1      -5.451  -7.751   2.214  0.00  0.00    -0.218 N 
ATOM      5  C   UNL     1      -5.447  -7.544   0.869  0.00  0.00    +0.130 A 
ATOM      6  C   UNL     1      -2.197  -6.101   1.855  0.00  0.00    +0.068 C 
ENDROOT
BRANCH   5   7
ATOM      7  N   UNL     1      -6.455  -7.899  -0.023  0.00  0.00    -0.318 N 
ATOM      8  C   UNL     1      -6.382  -9.155  -0.785  0.00  0.00    +0.088 C 
ATOM      9  C   UNL     1      -7.709  -9.903  -0.616  0.00  0.00    -0.060 C 
ATOM     10  N   UNL     1      -8.819  -9.023  -1.002  0.00  0.00    +0.382 N 
ATOM     11  C   UNL     1      -8.891  -7.878  -0.086  0.00  0.00    -0.060 C 
ATOM     12  C   UNL     1      -7.626  -7.032  -0.224  0.00  0.00    +0.088 C 
ATOM     13  H   UNL     1      -8.671  -8.690  -1.943  0.00  0.00    -0.082 HD
BRANCH  10  14
ATOM     14  C   UNL     1     -10.080  -9.774  -0.945  0.00  0.00    -0.082 C 
ATOM     15  C   UNL     1     -11.220  -8.897  -1.466  0.00  0.00    -0.017 C 
ENDBRANCH  10  14
ENDBRANCH   5   7
BRANCH   4  16
ATOM     16  C   UNL     1      -6.473  -8.363   2.952  0.00  0.00    +0.070 A 
ATOM     17  C   UNL     1      -7.787  -7.936   2.807  0.00  0.00    +0.028 A 
ATOM     18  C   UNL     1      -8.793  -8.540   3.534  0.00  0.00    +0.005 A 
ATOM     19  C   UNL     1      -8.495  -9.569   4.408  0.00  0.00    +0.038 A 
ATOM     20  C   UNL     1      -7.186  -9.997   4.557  0.00  0.00    +0.125 A 
ATOM     21  C   UNL     1      -6.175  -9.399   3.825  0.00  0.00    +0.066 A 
ATOM     22  F   UNL     1      -6.897 -11.003   5.412  0.00  0.00    -0.205 F 
ENDBRANCH   4  16
BRANCH   1  23
ATOM     23  C   UNL     1      -3.834  -6.506  -0.824  0.00  0.00    +0.148 C 
BRANCH  23  26
ATOM     24  C   UNL     1      -3.724  -4.076  -0.975  0.00  0.00    +0.219 C 
ATOM     25  O   UNL     1      -4.252  -2.998  -1.145  0.00  0.00    -0.275 OA
ATOM     26  N   UNL     1      -4.432  -5.209  -1.153  0.00  0.00    -0.294 N 
BRANCH  26  27
ATOM     27  C   UNL     1      -5.800  -5.144  -1.673  0.00  0.00    +0.077 C 
ATOM     28  C   UNL     1      -6.235  -3.845  -2.355  0.00  0.00    +0.024 C 
ATOM     29  C   UNL     1      -6.779  -4.203  -0.970  0.00  0.00    +0.024 C 
ENDBRANCH  26  27
BRANCH  24  30
ATOM     30  C   UNL     1      -2.276  -4.150  -0.565  0.00  0.00    +0.075 C 
BRANCH  30  31
ATOM     31  C   UNL     1      -1.446  -4.714  -1.721  0.00  0.00    +0.009 C 
ATOM     32  C   UNL     1      -1.486  -3.740  -2.900  0.00  0.00    +0.004 C 
ENDBRANCH  30  31
BRANCH  30  33
ATOM     33  C   UNL     1      -1.773  -2.748  -0.214  0.00  0.00    +0.013 C 
BRANCH  33  34
ATOM     34  C   UNL     1      -0.337  -2.836   0.307  0.00  0.00    +0.000 C 
BRANCH  34  36
ATOM     35  C   UNL     1       1.641  -1.514   1.069  0.00  0.00    +0.004 C 
ATOM     36  C   UNL     1       0.205  -1.426   0.549  0.00  0.00    -0.003 C 
ENDBRANCH  34  36
ENDBRANCH  33  34
ENDBRANCH  30  33
ENDBRANCH  24  30
ENDBRANCH  23  26
ENDBRANCH   1  23
TORSDOF 11
