REMARK  Name = ZINC26354996
REMARK  4 active torsions:
REMARK  status: ('A' for Active; 'I' for Inactive)
REMARK    1  A    between atoms: C_3  and  N_23
REMARK    2  A    between atoms: C_6  and  N_7
REMARK    3  A    between atoms: C_8  and  C_10
REMARK    4  A    between atoms: C_11  and  C_12
REMARK                            x       y       z     vdW  Elec       q    Type
REMARK                         _______ _______ _______ _____ _____    ______ ____
ROOT
ATOM      1  N   UNL     1      -5.318   3.363  -0.726  0.00  0.00    -0.282 N 
ATOM      2  C   UNL     1      -5.527   4.629  -1.138  0.00  0.00    +0.241 C 
ATOM      3  O   UNL     1      -4.584   5.387  -1.279  0.00  0.00    -0.270 OA
ATOM      4  H   UNL     1      -6.173   2.701  -0.525  0.00  0.00    +0.155 HD
ENDROOT
BRANCH   1  10
ATOM      5  C   UNL     1      -3.019   3.742  -0.088  0.00  0.00    +0.025 A 
ATOM      6  C   UNL     1      -1.732   3.275   0.081  0.00  0.00    +0.025 A 
ATOM      7  C   UNL     1      -1.428   1.953  -0.214  0.00  0.00    +0.035 A 
ATOM      8  C   UNL     1      -2.419   1.101  -0.685  0.00  0.00    +0.025 A 
ATOM      9  C   UNL     1      -3.708   1.567  -0.850  0.00  0.00    +0.025 A 
ATOM     10  C   UNL     1      -4.012   2.889  -0.554  0.00  0.00    +0.034 A 
BRANCH   7  11
ATOM     11  N   UNL     1      -0.121   1.479  -0.042  0.00  0.00    -0.270 N 
ATOM     12  C   UNL     1       0.635   1.940   0.974  0.00  0.00    +0.301 C 
ATOM     13  O   UNL     1       0.212   2.825   1.694  0.00  0.00    -0.253 OA
ATOM     14  N   UNL     1       1.860   1.422   1.193  0.00  0.00    -0.313 N 
ATOM     15  H   UNL     1       0.289   0.730  -0.736  0.00  0.00    +0.156 HD
ATOM     16  H   UNL     1       2.477   1.799   2.022  0.00  0.00    +0.146 HD
ATOM     17  H   UNL     1       2.243   0.622   0.542  0.00  0.00    +0.146 HD
ENDBRANCH   7  11
ENDBRANCH   1  10
BRANCH   2  18
ATOM     18  C   UNL     1      -6.842   5.078  -1.405  0.00  0.00    +0.068 C 
ATOM     19  C   UNL     1      -7.053   6.354  -1.820  0.00  0.00    +0.012 C 
BRANCH  19  20
ATOM     20  C   UNL     1      -8.364   6.801  -2.086  0.00  0.00    -0.010 C 
ATOM     21  C   UNL     1      -8.580   8.080  -2.496  0.00  0.00    +0.018 C 
ATOM     22  C   UNL     1      -9.967   8.496  -2.745  0.00  0.00    +0.018 A 
ATOM     23  C   UNL     1     -10.264   9.647  -3.476  0.00  0.00    +0.031 A 
ATOM     24  C   UNL     1     -11.582  10.000  -3.682  0.00  0.00    +0.042 A 
ATOM     25  C   UNL     1     -12.605   9.218  -3.169  0.00  0.00    +0.023 A 
ATOM     26  C   UNL     1     -12.322   8.076  -2.443  0.00  0.00    +0.048 A 
ATOM     27  C   UNL     1     -11.007   7.706  -2.224  0.00  0.00    +0.128 A 
ATOM     28  O   UNL     1     -10.697   6.592  -1.516  0.00  0.00    -0.487 OA
ATOM     29  C   UNL     1      -9.533   5.867  -1.912  0.00  0.00    +0.264 C 
ATOM     30 CL   UNL     1     -11.961  11.431  -4.590  0.00  0.00    -0.084 Cl
ENDBRANCH  19  20
ENDBRANCH   2  18
TORSDOF 4
