REMARK  Name = ZINC35851740
REMARK  5 active torsions:
REMARK  status: ('A' for Active; 'I' for Inactive)
REMARK    1  A    between atoms: C_1  and  C_2
REMARK    2  A    between atoms: C_9  and  C_28
REMARK    3  A    between atoms: C_11  and  C_19
REMARK    4  A    between atoms: C_23  and  N_25
REMARK    5  A    between atoms: C_28  and  C_30
REMARK                            x       y       z     vdW  Elec       q    Type
REMARK                         _______ _______ _______ _____ _____    ______ ____
ROOT
ATOM      1  C   UNL     1       0.169   1.397  -0.055  0.00  0.00    +0.044 C 
ATOM      2  C   UNL     1       0.275  -0.104   0.017  0.00  0.00    -0.050 A 
ATOM      3  C   UNL     1       0.385  -0.847  -1.145  0.00  0.00    +0.005 A 
ATOM      4  C   UNL     1       0.482  -2.222  -1.085  0.00  0.00    +0.024 A 
ATOM      5  C   UNL     1       0.470  -2.873   0.146  0.00  0.00    +0.039 A 
ATOM      6  C   UNL     1       0.360  -2.115   1.308  0.00  0.00    +0.004 A 
ATOM      7  C   UNL     1       0.268  -0.742   1.244  0.00  0.00    +0.011 A 
ATOM      8  C   UNL     1       0.380  -3.098   2.445  0.00  0.00    +0.137 C 
ATOM      9  C   UNL     1      -0.897  -3.007   3.288  0.00  0.00    +0.103 C 
ATOM     10  C   UNL     1      -0.533  -2.022   4.420  0.00  0.00    +0.050 C 
ATOM     11  C   UNL     1       0.996  -1.923   4.395  0.00  0.00    +0.077 C 
ATOM     12  N   UNL     1       1.503  -2.835   3.362  0.00  0.00    -0.271 NA
ATOM     13  C   UNL     1       1.957  -4.144   3.925  0.00  0.00    +0.155 C 
ATOM     14  S   UNL     1       2.701  -3.579   5.518  0.00  0.00    -0.144 S 
ATOM     15  C   UNL     1       1.586  -2.153   5.796  0.00  0.00    +0.090 C 
ATOM     16  C   UNL     1       0.510  -4.447   1.791  0.00  0.00    +0.243 C 
ATOM     17  O   UNL     1       0.564  -5.521   2.352  0.00  0.00    -0.273 OA
ATOM     18  N   UNL     1       0.554  -4.231   0.462  0.00  0.00    -0.283 N 
ATOM     19  H   UNL     1       0.633  -4.936  -0.199  0.00  0.00    +0.155 HD
ENDROOT
BRANCH  10  20
ATOM     20  C   UNL     1      -1.149  -0.672   4.157  0.00  0.00    -0.040 A 
ATOM     21  C   UNL     1      -2.384  -0.585   3.541  0.00  0.00    +0.004 A 
ATOM     22  C   UNL     1      -2.950   0.653   3.300  0.00  0.00    +0.002 A 
ATOM     23  C   UNL     1      -2.281   1.804   3.674  0.00  0.00    +0.033 A 
ATOM     24  C   UNL     1      -1.047   1.716   4.291  0.00  0.00    +0.126 A 
ATOM     25  C   UNL     1      -0.483   0.478   4.536  0.00  0.00    +0.036 A 
BRANCH  24  26
ATOM     26  N   UNL     1      -0.331   2.948   4.692  0.00  0.00    +0.056 N 
ATOM     27  O   UNL     1      -0.825   4.031   4.480  0.00  0.00    -0.126 OA
ATOM     28  O   UNL     1       0.748   2.871   5.231  0.00  0.00    -0.126 OA
ENDBRANCH  24  26
ENDBRANCH  10  20
BRANCH   9  29
ATOM     29  C   UNL     1      -1.252  -4.357   3.854  0.00  0.00    +0.169 C 
ATOM     30  O   UNL     1      -0.820  -4.695   4.935  0.00  0.00    -0.292 OA
BRANCH  29  31
ATOM     31  C   UNL     1      -2.125  -5.267   3.094  0.00  0.00    +0.018 A 
ATOM     32  C   UNL     1      -2.621  -4.884   1.843  0.00  0.00    +0.011 A 
ATOM     33  C   UNL     1      -3.437  -5.742   1.137  0.00  0.00    +0.001 A 
ATOM     34  C   UNL     1      -3.766  -6.979   1.662  0.00  0.00    +0.000 A 
ATOM     35  C   UNL     1      -3.279  -7.366   2.899  0.00  0.00    +0.001 A 
ATOM     36  C   UNL     1      -2.457  -6.521   3.615  0.00  0.00    +0.011 A 
ENDBRANCH  29  31
ENDBRANCH   9  29
TORSDOF 4
