REMARK  Name = ZINC09666107
REMARK  7 active torsions:
REMARK  status: ('A' for Active; 'I' for Inactive)
REMARK    1  A    between atoms: C_6  and  C_7
REMARK    2  A    between atoms: C_7  and  C_9
REMARK    3  A    between atoms: C_7  and  N_28
REMARK    4  A    between atoms: C_9  and  C_10
REMARK    5  A    between atoms: C_10  and  O_12
REMARK    6  A    between atoms: O_12  and  C_13
REMARK    7  A    between atoms: C_13  and  C_14
REMARK                            x       y       z     vdW  Elec       q    Type
REMARK                         _______ _______ _______ _____ _____    ______ ____
ROOT
ATOM      1  C   UNL     1       1.684   1.796   0.242  0.00  0.00    +0.310 C 
ATOM      2  O   UNL     1       2.487   0.901   0.122  0.00  0.00    -0.251 OA
ENDROOT
BRANCH   1   3
ATOM      3  C   UNL     1       0.208   1.496   0.201  0.00  0.00    +0.147 C 
BRANCH   3   4
ATOM      4  C   UNL     1      -0.001  -0.007  -0.000  0.00  0.00    +0.115 C 
BRANCH   4  10
ATOM      5  C   UNL     1      -2.318   0.499   0.801  0.00  0.00    +0.007 A 
ATOM      6  C   UNL     1      -3.667   0.210   0.872  0.00  0.00    +0.020 A 
ATOM      7  C   UNL     1      -4.170  -0.909   0.233  0.00  0.00    +0.041 A 
ATOM      8  C   UNL     1      -3.322  -1.736  -0.482  0.00  0.00    +0.020 A 
ATOM      9  C   UNL     1      -1.973  -1.443  -0.558  0.00  0.00    +0.007 A 
ATOM     10  C   UNL     1      -1.472  -0.325   0.082  0.00  0.00    -0.027 A 
ATOM     11 CL   UNL     1      -5.864  -1.276   0.329  0.00  0.00    -0.084 Cl
ENDBRANCH   4  10
BRANCH   4  12
ATOM     12  N   UNL     1       0.511  -0.399  -1.315  0.00  0.00    -0.292 N 
ATOM     13  C   UNL     1      -0.055   0.097  -2.434  0.00  0.00    +0.298 C 
ATOM     14  O   UNL     1      -0.927   0.940  -2.352  0.00  0.00    -0.253 OA
ATOM     15  N   UNL     1       0.346  -0.343  -3.643  0.00  0.00    -0.313 N 
ATOM     16  H   UNL     1       1.257  -1.015  -1.382  0.00  0.00    +0.151 HD
ATOM     17  H   UNL     1       1.042  -1.016  -3.709  0.00  0.00    +0.146 HD
ATOM     18  H   UNL     1      -0.061   0.014  -4.448  0.00  0.00    +0.146 HD
ENDBRANCH   4  12
ENDBRANCH   3   4
ENDBRANCH   1   3
BRANCH   1  19
ATOM     19  O   UNL     1       2.107   3.059   0.412  0.00  0.00    -0.460 OA
BRANCH  19  20
ATOM     20  C   UNL     1       3.543   3.275   0.441  0.00  0.00    +0.268 C 
BRANCH  20  21
ATOM     21  C   UNL     1       3.826   4.742   0.638  0.00  0.00    +0.007 A 
ATOM     22  C   UNL     1       2.814   5.638   0.757  0.00  0.00    +0.099 A 
ATOM     23  C   UNL     1       3.107   7.006   0.941  0.00  0.00    +0.338 A 
ATOM     24  O   UNL     1       2.189   7.800   1.046  0.00  0.00    -0.245 OA
ATOM     25  O   UNL     1       4.370   7.455   1.002  0.00  0.00    -0.422 OA
ATOM     26  C   UNL     1       5.423   6.617   0.890  0.00  0.00    +0.140 A 
ATOM     27  C   UNL     1       5.204   5.239   0.711  0.00  0.00    +0.024 A 
ATOM     28  C   UNL     1       6.292   4.372   0.588  0.00  0.00    +0.015 A 
ATOM     29  C   UNL     1       7.577   4.869   0.656  0.00  0.00    -0.043 A 
ATOM     30  C   UNL     1       7.792   6.227   0.840  0.00  0.00    -0.041 A 
ATOM     31  C   UNL     1       6.723   7.096   0.957  0.00  0.00    +0.051 A 
ATOM     32  C   UNL     1       9.281   6.505   0.880  0.00  0.00    +0.036 C 
ATOM     33  C   UNL     1       9.942   5.136   1.141  0.00  0.00    +0.009 C 
ATOM     34  C   UNL     1       8.906   4.150   0.560  0.00  0.00    +0.036 C 
ENDBRANCH  20  21
ENDBRANCH  19  20
ENDBRANCH   1  19
TORSDOF 7
