REMARK  Name = ZINC36303434
REMARK  17 active torsions:
REMARK  status: ('A' for Active; 'I' for Inactive)
REMARK    1  A    between atoms: C_1  and  C_2
REMARK    2  A    between atoms: C_2  and  C_3
REMARK    3  A    between atoms: C_4  and  C_22
REMARK    4  A    between atoms: C_5  and  O_15
REMARK    5  A    between atoms: N_6  and  C_8
REMARK    6  A    between atoms: O_15  and  C_16
REMARK    7  A    between atoms: C_22  and  N_23
REMARK    8  A    between atoms: N_23  and  C_24
REMARK    9  A    between atoms: N_23  and  C_37
REMARK   10  A    between atoms: C_24  and  C_25
REMARK   11  A    between atoms: C_25  and  C_27
REMARK   12  A    between atoms: C_25  and  O_36
REMARK   13  A    between atoms: C_27  and  O_28
REMARK   14  A    between atoms: O_28  and  C_29
REMARK   15  A    between atoms: C_29  and  C_30
REMARK   16  A    between atoms: C_37  and  C_38
REMARK   17  A    between atoms: C_37  and  C_39
REMARK                            x       y       z     vdW  Elec       q    Type
REMARK                         _______ _______ _______ _____ _____    ______ ____
ROOT
ATOM      1  C   UNL     1       0.431   1.518  -0.404  0.00  0.00    +0.068 A 
ATOM      2  C   UNL     1      -0.161   0.621  -1.298  0.00  0.00    +0.021 A 
ATOM      3  C   UNL     1       0.768  -0.315  -1.629  0.00  0.00    +0.225 A 
ATOM      4  N   UNL     1       1.911  -0.010  -0.958  0.00  0.00    -0.200 N 
ATOM      5  N   UNL     1       1.670   1.145  -0.205  0.00  0.00    -0.168 NA
ENDROOT
BRANCH   4   6
ATOM      6  C   UNL     1       3.118  -0.723  -1.016  0.00  0.00    +0.069 A 
ATOM      7  C   UNL     1       3.107  -2.111  -0.990  0.00  0.00    +0.031 A 
ATOM      8  C   UNL     1       4.296  -2.811  -1.046  0.00  0.00    +0.040 A 
ATOM      9  C   UNL     1       5.499  -2.129  -1.129  0.00  0.00    +0.124 A 
ATOM     10  C   UNL     1       5.511  -0.745  -1.154  0.00  0.00    +0.040 A 
ATOM     11  C   UNL     1       4.324  -0.041  -1.105  0.00  0.00    +0.031 A 
ATOM     12  F   UNL     1       6.661  -2.816  -1.183  0.00  0.00    -0.205 F 
ENDBRANCH   4   6
BRANCH   1  14
ATOM     13  C   UNL     1      -0.043   3.936  -0.680  0.00  0.00    +0.010 C 
ATOM     14  C   UNL     1      -0.240   2.714   0.219  0.00  0.00    +0.054 C 
ENDBRANCH   1  14
BRANCH   3  15
ATOM     15  O   UNL     1       0.587  -1.362  -2.473  0.00  0.00    -0.438 OA
BRANCH  15  16
ATOM     16  C   UNL     1       0.050  -2.504  -1.968  0.00  0.00    +0.130 A 
ATOM     17  C   UNL     1      -0.226  -2.601  -0.612  0.00  0.00    +0.046 A 
ATOM     18  C   UNL     1      -0.772  -3.763  -0.101  0.00  0.00    +0.004 A 
ATOM     19  C   UNL     1      -1.044  -4.827  -0.940  0.00  0.00    +0.000 A 
ATOM     20  C   UNL     1      -0.770  -4.733  -2.292  0.00  0.00    +0.004 A 
ATOM     21  C   UNL     1      -0.230  -3.571  -2.809  0.00  0.00    +0.046 A 
ENDBRANCH  15  16
ENDBRANCH   3  15
BRANCH   2  22
ATOM     22  C   UNL     1      -1.579   0.681  -1.806  0.00  0.00    -0.035 C 
BRANCH  22  23
ATOM     23  N   UNL     1      -1.764   1.904  -2.598  0.00  0.00    +0.386 N 
ATOM     24  H   UNL     1      -1.450   2.701  -2.064  0.00  0.00    -0.081 HD
BRANCH  23  25
ATOM     25  C   UNL     1      -0.984   1.808  -3.838  0.00  0.00    -0.074 C 
ATOM     26  C   UNL     1       0.509   1.844  -3.505  0.00  0.00    -0.014 C 
ATOM     27  C   UNL     1      -1.315   0.494  -4.548  0.00  0.00    -0.014 C 
ENDBRANCH  23  25
BRANCH  23  28
ATOM     28  C   UNL     1      -3.187   2.064  -2.926  0.00  0.00    -0.044 C 
BRANCH  28  29
ATOM     29  C   UNL     1      -3.409   3.430  -3.579  0.00  0.00    +0.124 C 
BRANCH  29  30
ATOM     30  O   UNL     1      -2.783   3.452  -4.863  0.00  0.00    -0.391 OA
ATOM     31  H   UNL     1      -3.174   2.839  -5.501  0.00  0.00    +0.210 HD
ENDBRANCH  29  30
BRANCH  29  32
ATOM     32  C   UNL     1      -4.910   3.681  -3.739  0.00  0.00    +0.189 C 
BRANCH  32  33
ATOM     33  O   UNL     1      -5.122   5.002  -4.240  0.00  0.00    -0.373 OA
BRANCH  33  34
ATOM     34  C   UNL     1      -6.498   5.340  -4.427  0.00  0.00    +0.195 C 
BRANCH  34  35
ATOM     35  C   UNL     1      -6.602   6.747  -4.956  0.00  0.00    -0.022 A 
ATOM     36  C   UNL     1      -6.694   7.810  -4.078  0.00  0.00    +0.006 A 
ATOM     37  C   UNL     1      -6.791   9.101  -4.563  0.00  0.00    +0.000 A 
ATOM     38  C   UNL     1      -6.794   9.329  -5.926  0.00  0.00    +0.000 A 
ATOM     39  C   UNL     1      -6.701   8.265  -6.805  0.00  0.00    +0.000 A 
ATOM     40  C   UNL     1      -6.601   6.975  -6.319  0.00  0.00    +0.006 A 
ENDBRANCH  34  35
ENDBRANCH  33  34
ENDBRANCH  32  33
ENDBRANCH  29  32
ENDBRANCH  28  29
ENDBRANCH  23  28
ENDBRANCH  22  23
ENDBRANCH   2  22
TORSDOF 14
