REMARK  Name = ZINC13215894
REMARK  6 active torsions:
REMARK  status: ('A' for Active; 'I' for Inactive)
REMARK    1  A    between atoms: C_1  and  C_2
REMARK    2  A    between atoms: C_5  and  C_35
REMARK    3  A    between atoms: C_7  and  N_8
REMARK    4  A    between atoms: C_9  and  C_27
REMARK    5  A    between atoms: C_11  and  C_16
REMARK    6  A    between atoms: C_16  and  C_18
REMARK                            x       y       z     vdW  Elec       q    Type
REMARK                         _______ _______ _______ _____ _____    ______ ____
ROOT
ATOM      1  N   UNL     1      -0.075  -0.248   2.593  0.00  0.00    -0.253 N 
ATOM      2  C   UNL     1      -1.218   0.321   3.317  0.00  0.00    +0.152 C 
ATOM      3  C   UNL     1      -0.638   1.249   4.358  0.00  0.00    +0.077 C 
ATOM      4  C   UNL     1       0.708   1.197   4.221  0.00  0.00    +0.250 C 
ATOM      5  C   UNL     1       1.049   0.263   3.129  0.00  0.00    +0.292 C 
ATOM      6  O   UNL     1       2.178  -0.004   2.765  0.00  0.00    -0.266 OA
ATOM      7  O   UNL     1       1.600   1.888   4.968  0.00  0.00    -0.282 OA
ENDROOT
BRANCH   2   8
ATOM      8  C   UNL     1      -2.008  -0.777   3.982  0.00  0.00    +0.013 A 
ATOM      9  C   UNL     1      -3.384  -0.811   3.857  0.00  0.00    +0.011 A 
ATOM     10  C   UNL     1      -4.110  -1.817   4.466  0.00  0.00    +0.039 A 
ATOM     11  C   UNL     1      -3.459  -2.792   5.203  0.00  0.00    +0.126 A 
ATOM     12  C   UNL     1      -2.081  -2.759   5.329  0.00  0.00    +0.077 A 
ATOM     13  C   UNL     1      -1.355  -1.754   4.713  0.00  0.00    +0.131 A 
ATOM     14  F   UNL     1      -0.009  -1.724   4.831  0.00  0.00    -0.205 F 
ATOM     15  F   UNL     1      -4.169  -3.775   5.799  0.00  0.00    -0.205 F 
ENDBRANCH   2   8
BRANCH   1  22
ATOM     16  C   UNL     1      -0.462   0.765  -0.033  0.00  0.00    +0.045 C 
ATOM     17  C   UNL     1      -0.330  -0.711   0.237  0.00  0.00    -0.029 A 
ATOM     18  C   UNL     1      -0.391  -1.611  -0.810  0.00  0.00    +0.006 A 
ATOM     19  C   UNL     1      -0.271  -2.965  -0.572  0.00  0.00    +0.015 A 
ATOM     20  C   UNL     1      -0.086  -3.430   0.733  0.00  0.00    +0.065 A 
ATOM     21  C   UNL     1      -0.024  -2.521   1.790  0.00  0.00    +0.039 A 
ATOM     22  C   UNL     1      -0.141  -1.163   1.538  0.00  0.00    +0.041 A 
BRANCH  20  23
ATOM     23  C   UNL     1       0.043  -4.877   0.991  0.00  0.00    +0.387 C 
ATOM     24  O   UNL     1      -0.012  -5.671   0.063  0.00  0.00    -0.241 OA
ATOM     25  O   UNL     1       0.204  -5.282   2.134  0.00  0.00    -0.241 OA
ENDBRANCH  20  23
ENDBRANCH   1  22
BRANCH   3  26
ATOM     26  C   UNL     1      -1.387   2.052   5.329  0.00  0.00    +0.195 C 
ATOM     27  O   UNL     1      -1.297   1.809   6.518  0.00  0.00    -0.287 OA
BRANCH  26  28
ATOM     28  C   UNL     1      -2.251   3.155   4.864  0.00  0.00    +0.026 A 
ATOM     29  C   UNL     1      -2.270   3.509   3.512  0.00  0.00    +0.015 A 
ATOM     30  C   UNL     1      -3.077   4.538   3.080  0.00  0.00    +0.050 A 
ATOM     31  C   UNL     1      -3.874   5.228   3.985  0.00  0.00    +0.166 A 
ATOM     32  C   UNL     1      -3.860   4.879   5.337  0.00  0.00    +0.167 A 
ATOM     33  C   UNL     1      -3.057   3.845   5.775  0.00  0.00    +0.061 A 
ATOM     34  O   UNL     1      -4.721   5.701   6.007  0.00  0.00    -0.453 OA
ATOM     35  C   UNL     1      -4.951   6.816   5.126  0.00  0.00    +0.466 C 
ATOM     36  O   UNL     1      -4.743   6.264   3.812  0.00  0.00    -0.453 OA
ENDBRANCH  26  28
ENDBRANCH   3  26
TORSDOF 5
