REMARK  Name = ZINC36493961
REMARK  15 active torsions:
REMARK  status: ('A' for Active; 'I' for Inactive)
REMARK    1  A    between atoms: C_1  and  C_2
REMARK    2  A    between atoms: C_2  and  C_3
REMARK    3  A    between atoms: C_3  and  C_4
REMARK    4  A    between atoms: C_4  and  N_5
REMARK    5  A    between atoms: C_6  and  C_8
REMARK    6  A    between atoms: C_8  and  C_10
REMARK    7  A    between atoms: C_8  and  N_19
REMARK    8  A    between atoms: C_13  and  N_16
REMARK    9  A    between atoms: N_16  and  C_17
REMARK   10  A    between atoms: N_16  and  C_18
REMARK   11  A    between atoms: N_19  and  C_20
REMARK   12  A    between atoms: C_20  and  C_21
REMARK   13  A    between atoms: C_26  and  C_28
REMARK   14  A    between atoms: C_28  and  C_36
REMARK   15  A    between atoms: C_29  and  C_30
REMARK                            x       y       z     vdW  Elec       q    Type
REMARK                         _______ _______ _______ _____ _____    ______ ____
ROOT
ATOM      1  N   UNL     1      -4.908  -5.806   0.517  0.00  0.00    -0.275 N 
ATOM      2  C   UNL     1      -5.363  -6.216   1.717  0.00  0.00    +0.248 C 
ATOM      3  O   UNL     1      -5.415  -5.434   2.647  0.00  0.00    -0.270 OA
ENDROOT
BRANCH   2   4
ATOM      4  C   UNL     1      -5.797  -7.610   1.903  0.00  0.00    +0.045 C 
ATOM      5  C   UNL     1      -6.979  -8.030   1.377  0.00  0.00    +0.021 C 
BRANCH   5   6
ATOM      6  C   UNL     1      -7.863  -7.072   0.699  0.00  0.00    -0.024 A 
ATOM      7  C   UNL     1      -8.609  -7.471  -0.416  0.00  0.00    +0.008 A 
ATOM      8  C   UNL     1      -9.437  -6.566  -1.046  0.00  0.00    +0.001 A 
ATOM      9  C   UNL     1      -9.531  -5.266  -0.579  0.00  0.00    +0.000 A 
ATOM     10  C   UNL     1      -8.796  -4.864   0.523  0.00  0.00    +0.001 A 
ATOM     11  C   UNL     1      -7.968  -5.758   1.168  0.00  0.00    +0.008 A 
ENDBRANCH   5   6
BRANCH   4  12
ATOM     12  C   UNL     1      -4.947  -8.555   2.663  0.00  0.00    -0.013 A 
ATOM     13  C   UNL     1      -4.656  -8.311   4.005  0.00  0.00    +0.008 A 
ATOM     14  C   UNL     1      -3.864  -9.195   4.708  0.00  0.00    +0.001 A 
ATOM     15  C   UNL     1      -3.359 -10.322   4.084  0.00  0.00    +0.000 A 
ATOM     16  C   UNL     1      -3.644 -10.569   2.753  0.00  0.00    +0.001 A 
ATOM     17  C   UNL     1      -4.440  -9.696   2.041  0.00  0.00    +0.008 A 
ENDBRANCH   4  12
ENDBRANCH   2   4
BRANCH   1  18
ATOM     18  C   UNL     1      -4.475  -4.419   0.332  0.00  0.00    +0.193 C 
BRANCH  18  19
ATOM     19  C   UNL     1      -5.379  -3.738  -0.663  0.00  0.00    -0.018 A 
ATOM     20  C   UNL     1      -5.253  -4.017  -2.012  0.00  0.00    +0.008 A 
ATOM     21  C   UNL     1      -6.080  -3.395  -2.927  0.00  0.00    +0.023 A 
ATOM     22  C   UNL     1      -7.038  -2.488  -2.491  0.00  0.00    +0.029 A 
ATOM     23  C   UNL     1      -7.161  -2.211  -1.135  0.00  0.00    +0.023 A 
ATOM     24  C   UNL     1      -6.335  -2.841  -0.225  0.00  0.00    +0.008 A 
BRANCH  22  25
ATOM     25  N   UNL     1      -7.876  -1.857  -3.413  0.00  0.00    -0.336 N 
ATOM     26  C   UNL     1      -7.663  -2.054  -4.850  0.00  0.00    +0.129 C 
ATOM     27  C   UNL     1      -8.966  -0.998  -2.945  0.00  0.00    +0.129 C 
ENDBRANCH  22  25
ENDBRANCH  18  19
BRANCH  18  29
ATOM     28  N   UNL     1      -2.666  -3.439  -1.041  0.00  0.00    -0.313 N 
ATOM     29  C   UNL     1      -3.058  -4.399  -0.181  0.00  0.00    +0.238 C 
ATOM     30  O   UNL     1      -2.271  -5.248   0.181  0.00  0.00    -0.273 OA
ATOM     31  H   UNL     1      -3.295  -2.760  -1.330  0.00  0.00    +0.149 HD
BRANCH  28  32
ATOM     32  C   UNL     1      -1.288  -3.420  -1.540  0.00  0.00    +0.104 C 
BRANCH  32  33
ATOM     33  C   UNL     1      -1.107  -2.237  -2.493  0.00  0.00    +0.018 C 
BRANCH  33  35
ATOM     34  C   UNL     1       0.513  -1.034  -3.967  0.00  0.00    +0.004 C 
ATOM     35  C   UNL     1       0.332  -2.217  -3.014  0.00  0.00    -0.002 C 
ENDBRANCH  33  35
ENDBRANCH  32  33
ENDBRANCH  28  32
ENDBRANCH  18  29
ENDBRANCH   1  18
BRANCH   1  36
ATOM     36  C   UNL     1      -4.848  -6.747  -0.604  0.00  0.00    +0.183 C 
BRANCH  36  37
ATOM     37  C   UNL     1      -3.418  -7.167  -0.831  0.00  0.00    +0.122 A 
ATOM     38  C   UNL     1      -2.788  -8.181  -0.211  0.00  0.00    +0.046 A 
ATOM     39  C   UNL     1      -1.471  -8.219  -0.723  0.00  0.00    +0.041 A 
ATOM     40  C   UNL     1      -1.375  -7.226  -1.625  0.00  0.00    +0.195 A 
ATOM     41  O   UNL     1      -2.559  -6.596  -1.690  0.00  0.00    -0.466 OA
ENDBRANCH  36  37
ENDBRANCH   1  36
TORSDOF 12
