REMARK  Name = ZINC20436207
REMARK  5 active torsions:
REMARK  status: ('A' for Active; 'I' for Inactive)
REMARK    1  A    between atoms: C_4  and  C_7
REMARK    2  A    between atoms: N_9  and  C_19
REMARK    3  A    between atoms: N_12  and  C_13
REMARK    4  A    between atoms: C_19  and  N_20
REMARK    5  A    between atoms: C_23  and  C_26
REMARK                            x       y       z     vdW  Elec       q    Type
REMARK                         _______ _______ _______ _____ _____    ______ ____
ROOT
ATOM      1  C   UNL     1      -2.636   5.875  -0.044  0.00  0.00    +0.163 A 
ATOM      2  N   UNL     1      -2.208   7.054  -0.399  0.00  0.00    -0.152 NA
ATOM      3  N   UNL     1      -0.833   7.116  -0.130  0.00  0.00    -0.257 N 
ATOM      4  C   UNL     1      -0.470   5.931   0.402  0.00  0.00    +0.177 A 
ATOM      5  S   UNL     1       1.105   5.489   0.907  0.00  0.00    -0.011 S 
ATOM      6  N   UNL     1      -1.572   5.156   0.464  0.00  0.00    -0.300 N 
ENDROOT
BRANCH   1  10
ATOM      7  C   UNL     1      -6.635   4.481  -0.387  0.00  0.00    +0.000 A 
ATOM      8  C   UNL     1      -6.391   5.822  -0.148  0.00  0.00    +0.001 A 
ATOM      9  C   UNL     1      -5.094   6.281  -0.036  0.00  0.00    +0.011 A 
ATOM     10  C   UNL     1      -4.028   5.389  -0.164  0.00  0.00    +0.019 A 
ATOM     11  C   UNL     1      -4.281   4.040  -0.410  0.00  0.00    +0.011 A 
ATOM     12  C   UNL     1      -5.582   3.592  -0.515  0.00  0.00    +0.001 A 
ENDBRANCH   1  10
BRANCH   6  13
ATOM     13  C   UNL     1      -1.629   3.785   0.977  0.00  0.00    +0.091 C 
ATOM     14  C   UNL     1      -0.796   2.869   0.079  0.00  0.00    +0.025 C 
ATOM     15  C   UNL     1      -0.857   1.437   0.615  0.00  0.00    +0.002 C 
ATOM     16  C   UNL     1      -0.297   1.401   2.038  0.00  0.00    +0.000 C 
ATOM     17  C   UNL     1      -1.130   2.318   2.937  0.00  0.00    +0.002 C 
ATOM     18  C   UNL     1      -1.069   3.750   2.401  0.00  0.00    +0.025 C 
ENDBRANCH   6  13
BRANCH   3  19
ATOM     19  C   UNL     1       0.048   8.259  -0.380  0.00  0.00    +0.072 C 
BRANCH  19  20
ATOM     20  N   UNL     1       0.612   8.155  -1.733  0.00  0.00    +0.393 N 
ATOM     21  C   UNL     1      -0.424   8.383  -2.757  0.00  0.00    -0.076 C 
ATOM     22  C   UNL     1       0.058   9.550  -3.643  0.00  0.00    -0.012 C 
ATOM     23  C   UNL     1       1.594   9.544  -3.424  0.00  0.00    +0.001 C 
ATOM     24  C   UNL     1       1.696   9.141  -1.932  0.00  0.00    -0.068 C 
ATOM     25  H   UNL     1       1.012   7.135  -1.832  0.00  0.00    -0.079 HD
BRANCH  23  26
ATOM     26  C   UNL     1       2.177  10.915  -3.654  0.00  0.00    -0.046 A 
ATOM     27  C   UNL     1       1.731  11.990  -2.908  0.00  0.00    +0.004 A 
ATOM     28  C   UNL     1       2.269  13.246  -3.115  0.00  0.00    +0.000 A 
ATOM     29  C   UNL     1       3.247  13.429  -4.075  0.00  0.00    +0.000 A 
ATOM     30  C   UNL     1       3.689  12.355  -4.825  0.00  0.00    +0.000 A 
ATOM     31  C   UNL     1       3.154  11.098  -4.614  0.00  0.00    +0.004 A 
ENDBRANCH  23  26
ENDBRANCH  19  20
ENDBRANCH   3  19
TORSDOF 5
