REMARK  Name = ZINC14879706
REMARK  11 active torsions:
REMARK  status: ('A' for Active; 'I' for Inactive)
REMARK    1  A    between atoms: C_1  and  C_2
REMARK    2  A    between atoms: C_2  and  C_3
REMARK    3  A    between atoms: C_2  and  C_4
REMARK    4  A    between atoms: C_2  and  C_5
REMARK    5  A    between atoms: C_5  and  N_68
REMARK    6  A    between atoms: C_17  and  N_23
REMARK    7  A    between atoms: C_19  and  O_21
REMARK    8  A    between atoms: O_21  and  C_22
REMARK    9  A    between atoms: C_24  and  C_26
REMARK   10  A    between atoms: C_26  and  O_27
REMARK   11  A    between atoms: O_27  and  C_28
REMARK                            x       y       z     vdW  Elec       q    Type
REMARK                         _______ _______ _______ _____ _____    ______ ____
ROOT
ATOM      1  C   UNL     1      -1.295  -0.202   2.019  0.00  0.00    -0.078 C 
ATOM      2  C   UNL     1      -2.748  -0.146   1.539  0.00  0.00    -0.005 C 
ATOM      3  C   UNL     1      -2.995   1.182   0.828  0.00  0.00    +0.021 C 
ATOM      4  C   UNL     1      -2.653   2.349   1.750  0.00  0.00    -0.005 C 
ATOM      5  C   UNL     1      -1.203   2.212   2.223  0.00  0.00    -0.078 C 
ATOM      6  C   UNL     1      -4.432   1.275   0.372  0.00  0.00    -0.034 A 
ATOM      7  C   UNL     1      -5.609   0.956   1.030  0.00  0.00    +0.004 A 
ATOM      8  C   UNL     1      -6.826   1.127   0.400  0.00  0.00    +0.000 A 
ATOM      9  C   UNL     1      -6.872   1.618  -0.891  0.00  0.00    +0.000 A 
ATOM     10  C   UNL     1      -5.700   1.936  -1.549  0.00  0.00    +0.006 A 
ATOM     11  C   UNL     1      -4.478   1.767  -0.920  0.00  0.00    -0.021 A 
ATOM     12  C   UNL     1      -3.073   2.038  -1.415  0.00  0.00    +0.133 C 
ATOM     13  C   UNL     1      -2.148   1.258  -0.455  0.00  0.00    +0.153 C 
ATOM     14  N   UNL     1      -1.053   0.928   2.941  0.00  0.00    +0.380 N 
ATOM     15  H   UNL     1      -1.741   0.890   3.702  0.00  0.00    -0.082 HD
ENDROOT
BRANCH  12  16
ATOM     16  N   UNL     1      -2.780   3.472  -1.351  0.00  0.00    -0.303 N 
ATOM     17  C   UNL     1      -3.067   4.266  -2.401  0.00  0.00    +0.251 C 
ATOM     18  O   UNL     1      -3.569   3.794  -3.399  0.00  0.00    -0.272 OA
ATOM     19  H   UNL     1      -2.378   3.849  -0.552  0.00  0.00    +0.149 HD
BRANCH  17  20
ATOM     20  C   UNL     1      -2.765   5.741  -2.334  0.00  0.00    +0.324 C 
BRANCH  20  21
ATOM     21  O   UNL     1      -3.158   6.363  -3.560  0.00  0.00    -0.483 OA
BRANCH  21  22
ATOM     22  C   UNL     1      -2.952   7.702  -3.665  0.00  0.00    +0.121 A 
ATOM     23  C   UNL     1      -2.390   8.405  -2.609  0.00  0.00    +0.045 A 
ATOM     24  C   UNL     1      -2.176   9.765  -2.721  0.00  0.00    +0.004 A 
ATOM     25  C   UNL     1      -2.534  10.429  -3.880  0.00  0.00    +0.000 A 
ATOM     26  C   UNL     1      -3.100   9.732  -4.932  0.00  0.00    +0.004 A 
ATOM     27  C   UNL     1      -3.310   8.371  -4.827  0.00  0.00    +0.045 A 
ENDBRANCH  21  22
ENDBRANCH  20  21
ENDBRANCH  17  20
ENDBRANCH  12  16
BRANCH  13  28
ATOM     28  O   UNL     1      -1.871  -0.050  -0.960  0.00  0.00    -0.377 OA
ATOM     29  C   UNL     1      -0.631  -0.151  -1.663  0.00  0.00    +0.194 C 
ENDBRANCH  13  28
BRANCH  14  30
ATOM     30  C   UNL     1       0.305   0.828   3.516  0.00  0.00    -0.073 C 
BRANCH  30  32
ATOM     31  C   UNL     1       1.119   2.981   2.545  0.00  0.00    +0.009 C 
ATOM     32  C   UNL     1       1.332   1.466   2.579  0.00  0.00    -0.052 C 
ATOM     33  C   UNL     1       2.743   1.161   3.086  0.00  0.00    +0.009 C 
ATOM     34  C   UNL     1       1.162   0.895   1.170  0.00  0.00    +0.009 C 
ENDBRANCH  30  32
ENDBRANCH  14  30
TORSDOF 7
