REMARK  Name = ZINC59385873
REMARK  9 active torsions:
REMARK  status: ('A' for Active; 'I' for Inactive)
REMARK    1  A    between atoms: C_1  and  C_2
REMARK    2  A    between atoms: C_3  and  C_18
REMARK    3  A    between atoms: C_4  and  C_10
REMARK    4  A    between atoms: C_15  and  O_16
REMARK    5  A    between atoms: O_16  and  C_17
REMARK    6  A    between atoms: N_20  and  N_21
REMARK    7  A    between atoms: C_22  and  C_23
REMARK    8  A    between atoms: C_26  and  O_30
REMARK    9  A    between atoms: C_28  and  O_29
REMARK                            x       y       z     vdW  Elec       q    Type
REMARK                         _______ _______ _______ _____ _____    ______ ____
ROOT
ATOM      1  C   UNL     1       0.419   1.350   0.269  0.00  0.00    +0.061 C 
ATOM      2  C   UNL     1       0.261  -0.140   0.100  0.00  0.00    +0.019 C 
ATOM      3  C   UNL     1      -0.975  -0.681   0.113  0.00  0.00    +0.057 C 
ATOM      4  C   UNL     1      -1.090  -2.182  -0.061  0.00  0.00    +0.145 C 
ATOM      5  N   UNL     1       0.166  -2.932  -0.232  0.00  0.00    -0.288 N 
ATOM      6  C   UNL     1       1.327  -2.248  -0.223  0.00  0.00    +0.304 C 
ATOM      7  O   UNL     1       2.370  -2.858  -0.363  0.00  0.00    -0.252 OA
ATOM      8  N   UNL     1       1.371  -0.919  -0.070  0.00  0.00    -0.273 N 
ATOM      9  H   UNL     1       0.157  -3.895  -0.347  0.00  0.00    +0.151 HD
ATOM     10  H   UNL     1       2.238  -0.485  -0.077  0.00  0.00    +0.156 HD
ENDROOT
BRANCH   4  11
ATOM     11  C   UNL     1      -1.955  -2.445  -1.267  0.00  0.00    +0.019 A 
ATOM     12  C   UNL     1      -2.162  -1.448  -2.200  0.00  0.00    +0.009 A 
ATOM     13  C   UNL     1      -2.956  -1.688  -3.306  0.00  0.00    +0.001 A 
ATOM     14  C   UNL     1      -3.543  -2.928  -3.482  0.00  0.00    +0.004 A 
ATOM     15  C   UNL     1      -3.339  -3.928  -2.552  0.00  0.00    +0.046 A 
ATOM     16  C   UNL     1      -2.538  -3.691  -1.444  0.00  0.00    +0.125 A 
BRANCH  16  17
ATOM     17  O   UNL     1      -2.331  -4.676  -0.530  0.00  0.00    -0.495 OA
ATOM     18  C   UNL     1      -2.870  -5.964  -0.832  0.00  0.00    +0.277 C 
ENDBRANCH  16  17
ENDBRANCH   4  11
BRANCH   3  19
ATOM     19  C   UNL     1      -2.127   0.126   0.284  0.00  0.00    +0.263 C 
ATOM     20  O   UNL     1      -2.008   1.321   0.489  0.00  0.00    -0.269 OA
ATOM     21  N   UNL     1      -3.354  -0.428   0.221  0.00  0.00    -0.203 N 
ATOM     22  H   UNL     1      -3.448  -1.390   0.139  0.00  0.00    +0.178 HD
BRANCH  21  23
ATOM     23  N   UNL     1      -4.493   0.386   0.273  0.00  0.00    -0.187 NA
ATOM     24  C   UNL     1      -5.674  -0.153   0.310  0.00  0.00    +0.142 C 
BRANCH  24  25
ATOM     25  C   UNL     1      -6.874   0.700   0.253  0.00  0.00    +0.036 A 
ATOM     26  C   UNL     1      -8.146   0.123   0.298  0.00  0.00    +0.016 A 
ATOM     27  C   UNL     1      -9.267   0.924   0.245  0.00  0.00    +0.046 A 
ATOM     28  C   UNL     1      -9.136   2.304   0.145  0.00  0.00    +0.120 A 
ATOM     29  C   UNL     1      -7.877   2.886   0.100  0.00  0.00    +0.091 A 
ATOM     30  C   UNL     1      -6.745   2.092   0.159  0.00  0.00    +0.129 A 
BRANCH  30  31
ATOM     31  O   UNL     1      -5.512   2.661   0.119  0.00  0.00    -0.506 OA
ATOM     32  H   UNL     1      -5.155   2.766  -0.773  0.00  0.00    +0.292 HD
ENDBRANCH  30  31
BRANCH  28  33
ATOM     33  O   UNL     1     -10.245   3.087   0.093  0.00  0.00    -0.507 OA
ATOM     34  H   UNL     1     -10.563   3.376   0.959  0.00  0.00    +0.292 HD
ENDBRANCH  28  33
ENDBRANCH  24  25
ENDBRANCH  21  23
ENDBRANCH   3  19
TORSDOF 7
