REMARK  Name = ZINC07674411
REMARK  3 active torsions:
REMARK  status: ('A' for Active; 'I' for Inactive)
REMARK    1  A    between atoms: C_3  and  C_6
REMARK    2  A    between atoms: C_15  and  C_17
REMARK    3  A    between atoms: C_17  and  N_49
REMARK                            x       y       z     vdW  Elec       q    Type
REMARK                         _______ _______ _______ _____ _____    ______ ____
ROOT
ATOM      1  C   UNL     1      -2.223   9.630  -1.417  0.00  0.00    +0.039 A 
ATOM      2  C   UNL     1      -1.593  10.049  -0.290  0.00  0.00    +0.059 A 
ATOM      3  S   UNL     1      -0.861   8.556   0.352  0.00  0.00    -0.076 S 
ATOM      4  C   UNL     1      -1.410   7.416  -0.891  0.00  0.00    +0.116 A 
ATOM      5  C   UNL     1      -2.149   8.218  -1.777  0.00  0.00    +0.083 A 
ATOM      6  C   UNL     1      -2.721   7.538  -2.898  0.00  0.00    +0.260 A 
ATOM      7  O   UNL     1      -3.380   8.149  -3.722  0.00  0.00    -0.267 OA
ATOM      8  N   UNL     1      -2.515   6.215  -3.034  0.00  0.00    -0.312 N 
ATOM      9  H   UNL     1      -2.906   5.736  -3.820  0.00  0.00    +0.170 HD
ATOM     10  C   UNL     1      -1.789   5.517  -2.123  0.00  0.00    +0.094 A 
ATOM     11  N   UNL     1      -1.255   6.109  -1.089  0.00  0.00    -0.229 NA
ENDROOT
BRANCH   1  14
ATOM     12  C   UNL     1      -4.353  12.176  -2.965  0.00  0.00    +0.042 A 
ATOM     13  C   UNL     1      -3.906  11.470  -1.829  0.00  0.00    +0.050 A 
ATOM     14  C   UNL     1      -2.970  10.584  -2.262  0.00  0.00    +0.136 A 
ATOM     15  O   UNL     1      -2.846  10.723  -3.596  0.00  0.00    -0.463 OA
ATOM     16  C   UNL     1      -3.682  11.686  -4.024  0.00  0.00    +0.196 A 
ENDBRANCH   1  14
BRANCH  10  17
ATOM     17  C   UNL     1      -1.590   4.035  -2.313  0.00  0.00    -0.003 C 
BRANCH  17  27
ATOM     18  C   UNL     1       0.591   4.051  -1.262  0.00  0.00    -0.078 C 
ATOM     19  C   UNL     1       1.371   3.593  -0.028  0.00  0.00    -0.015 C 
ATOM     20  C   UNL     1       1.415   2.061  -0.000  0.00  0.00    -0.011 C 
ATOM     21  C   UNL     1       2.139   1.559  -1.252  0.00  0.00    +0.004 C 
ATOM     22  C   UNL     1       2.161   0.029  -1.251  0.00  0.00    +0.000 C 
ATOM     23  C   UNL     1       0.726  -0.501  -1.251  0.00  0.00    +0.000 C 
ATOM     24  C   UNL     1       0.002  -0.004   0.002  0.00  0.00    +0.002 C 
ATOM     25  C   UNL     1      -0.019   1.524   0.010  0.00  0.00    -0.025 C 
ATOM     26  C   UNL     1      -0.760   2.038  -1.225  0.00  0.00    -0.075 C 
ATOM     27  N   UNL     1      -0.786   3.516  -1.187  0.00  0.00    +0.385 N 
ATOM     28  H   UNL     1      -1.214   3.819  -0.304  0.00  0.00    -0.081 HD
ENDBRANCH  17  27
ENDBRANCH  10  17
TORSDOF 3
