REMARK  Name = ZINC38902028
REMARK  9 active torsions:
REMARK  status: ('A' for Active; 'I' for Inactive)
REMARK    1  A    between atoms: C_1  and  C_2
REMARK    2  A    between atoms: C_2  and  C_3
REMARK    3  A    between atoms: C_2  and  C_4
REMARK    4  A    between atoms: C_2  and  C_5
REMARK    5  A    between atoms: C_8  and  C_11
REMARK    6  A    between atoms: C_13  and  C_16
REMARK    7  A    between atoms: C_16  and  N_17
REMARK    8  A    between atoms: C_21  and  C_24
REMARK    9  A    between atoms: N_26  and  C_27
REMARK                            x       y       z     vdW  Elec       q    Type
REMARK                         _______ _______ _______ _____ _____    ______ ____
ROOT
ATOM      1  C   UNL     1       5.603  -2.105  -6.898  0.00  0.00    +0.022 C 
ENDROOT
BRANCH   1   2
ATOM      2  N   UNL     1       6.448  -3.218  -6.445  0.00  0.00    +0.386 N 
ATOM      3  C   UNL     1       6.741  -3.058  -5.016  0.00  0.00    -0.078 C 
ATOM      4  C   UNL     1       7.553  -4.257  -4.520  0.00  0.00    -0.018 C 
ATOM      5  C   UNL     1       8.865  -4.337  -5.306  0.00  0.00    +0.009 C 
ATOM      6  C   UNL     1       8.548  -4.429  -6.801  0.00  0.00    +0.058 C 
ATOM      7  C   UNL     1       7.700  -3.224  -7.212  0.00  0.00    -0.065 C 
ATOM      8  H   UNL     1       5.961  -4.090  -6.591  0.00  0.00    -0.081 HD
BRANCH   6   9
ATOM      9  C   UNL     1       9.834  -4.432  -7.588  0.00  0.00    +0.215 C 
ATOM     10  O   UNL     1      10.049  -3.559  -8.402  0.00  0.00    -0.276 OA
ATOM     11  N   UNL     1      10.744  -5.406  -7.388  0.00  0.00    -0.312 N 
ATOM     12  H   UNL     1      10.572  -6.105  -6.738  0.00  0.00    +0.149 HD
BRANCH  11  13
ATOM     13  C   UNL     1      11.993  -5.409  -8.153  0.00  0.00    +0.073 C 
ATOM     14  C   UNL     1      11.796  -6.166  -9.483  0.00  0.00    +0.022 C 
ATOM     15  C   UNL     1      13.136  -6.914  -9.696  0.00  0.00    +0.002 C 
ATOM     16  C   UNL     1      13.514  -7.353  -8.260  0.00  0.00    +0.002 C 
ATOM     17  C   UNL     1      13.085  -6.164  -7.376  0.00  0.00    +0.022 C 
ENDBRANCH  11  13
ENDBRANCH   6   9
ENDBRANCH   1   2
BRANCH   1  20
ATOM     18  C   UNL     1       2.698  -1.862  -4.737  0.00  0.00    +0.202 A 
ATOM     19  N   UNL     1       3.975  -1.598  -5.067  0.00  0.00    -0.193 NA
ATOM     20  C   UNL     1       4.270  -2.170  -6.200  0.00  0.00    +0.211 A 
ATOM     21  O   UNL     1       3.187  -2.825  -6.639  0.00  0.00    -0.340 OA
ATOM     22  N   UNL     1       2.172  -2.617  -5.669  0.00  0.00    -0.056 NA
BRANCH  18  26
ATOM     23  C   UNL     1       0.707  -0.490  -1.238  0.00  0.00    -0.042 A 
ATOM     24  C   UNL     1       0.033  -1.285  -2.147  0.00  0.00    +0.005 A 
ATOM     25  C   UNL     1       0.674  -1.733  -3.285  0.00  0.00    +0.012 A 
ATOM     26  C   UNL     1       2.003  -1.383  -3.516  0.00  0.00    +0.022 A 
ATOM     27  C   UNL     1       2.678  -0.582  -2.596  0.00  0.00    +0.012 A 
ATOM     28  C   UNL     1       2.025  -0.135  -1.465  0.00  0.00    +0.005 A 
BRANCH  23  30
ATOM     29  C   UNL     1      -0.019   1.526   0.010  0.00  0.00    +0.015 C 
ATOM     30  C   UNL     1       0.002  -0.004   0.002  0.00  0.00    -0.013 C 
ATOM     31  C   UNL     1       0.742  -0.511   1.242  0.00  0.00    +0.015 C 
ATOM     32  C   UNL     1      -1.433  -0.534   0.013  0.00  0.00    +0.015 C 
ENDBRANCH  23  30
ENDBRANCH  18  26
ENDBRANCH   1  20
TORSDOF 6
