REMARK  Name = ZINC40348207
REMARK  9 active torsions:
REMARK  status: ('A' for Active; 'I' for Inactive)
REMARK    1  A    between atoms: C_1  and  C_2
REMARK    2  A    between atoms: C_2  and  C_4
REMARK    3  A    between atoms: C_2  and  N_18
REMARK    4  A    between atoms: C_4  and  N_5
REMARK    5  A    between atoms: N_5  and  S_6
REMARK    6  A    between atoms: S_6  and  C_9
REMARK    7  A    between atoms: C_11  and  N_17
REMARK    8  A    between atoms: N_18  and  C_19
REMARK    9  A    between atoms: N_18  and  C_20
REMARK                            x       y       z     vdW  Elec       q    Type
REMARK                         _______ _______ _______ _____ _____    ______ ____
ROOT
ATOM      1  S   UNL     1       1.847  -2.430   2.819  0.00  0.00    +0.060 S 
ATOM      2  O   UNL     1       1.583  -3.821   2.944  0.00  0.00    -0.153 OA
ATOM      3  O   UNL     1       3.133  -1.926   2.485  0.00  0.00    -0.153 OA
ENDROOT
BRANCH   1   4
ATOM      4  C   UNL     1       1.400  -1.692   4.355  0.00  0.00    +0.125 A 
ATOM      5  C   UNL     1       0.930  -2.480   5.388  0.00  0.00    +0.055 A 
ATOM      6  C   UNL     1       0.579  -1.899   6.598  0.00  0.00    +0.062 A 
ATOM      7  C   UNL     1       0.701  -0.524   6.768  0.00  0.00    +0.145 A 
ATOM      8  C   UNL     1       1.171   0.259   5.731  0.00  0.00    +0.062 A 
ATOM      9  C   UNL     1       1.526  -0.325   4.527  0.00  0.00    +0.070 A 
ATOM     10 CL   UNL     1       2.123   0.660   3.228  0.00  0.00    -0.081 Cl
ATOM     11  F   UNL     1       0.359   0.045   7.945  0.00  0.00    -0.204 F 
BRANCH   6  12
ATOM     12  N   UNL     1       0.102  -2.695   7.646  0.00  0.00    -0.356 N 
ATOM     13  H   UNL     1       0.017  -3.654   7.526  0.00  0.00    +0.142 HD
ATOM     14  H   UNL     1      -0.143  -2.288   8.492  0.00  0.00    +0.142 HD
ENDBRANCH   6  12
ENDBRANCH   1   4
BRANCH   1  15
ATOM     15  N   UNL     1       0.799  -1.851   1.674  0.00  0.00    -0.191 NA
ATOM     16  H   UNL     1       0.182  -2.454   1.231  0.00  0.00    +0.148 HD
BRANCH  15  17
ATOM     17  C   UNL     1       0.804  -0.426   1.331  0.00  0.00    +0.090 C 
BRANCH  17  19
ATOM     18  C   UNL     1      -0.030   1.282  -0.291  0.00  0.00    -0.012 C 
ATOM     19  C   UNL     1       0.033  -0.214   0.026  0.00  0.00    -0.057 C 
BRANCH  19  20
ATOM     20  N   UNL     1      -1.330  -0.742   0.172  0.00  0.00    +0.379 N 
ATOM     21  C   UNL     1      -2.055   0.045   1.178  0.00  0.00    -0.096 C 
ATOM     22  C   UNL     1      -2.030  -0.652  -1.117  0.00  0.00    -0.096 C 
ATOM     23  H   UNL     1      -1.288  -1.706   0.465  0.00  0.00    -0.082 HD
ENDBRANCH  19  20
ENDBRANCH  17  19
ENDBRANCH  15  17
ENDBRANCH   1  15
TORSDOF 6
