REMARK  Name = ZINC41251185
REMARK  8 active torsions:
REMARK  status: ('A' for Active; 'I' for Inactive)
REMARK    1  A    between atoms: C_1  and  C_2
REMARK    2  A    between atoms: C_2  and  C_4
REMARK    3  A    between atoms: C_2  and  N_11
REMARK    4  A    between atoms: C_12  and  C_14
REMARK    5  A    between atoms: N_17  and  C_20
REMARK    6  A    between atoms: C_20  and  C_21
REMARK    7  A    between atoms: C_23  and  C_26
REMARK    8  A    between atoms: C_29  and  C_32
REMARK                            x       y       z     vdW  Elec       q    Type
REMARK                         _______ _______ _______ _____ _____    ______ ____
ROOT
ATOM      1  C   UNL     1      -3.465  -1.164  -1.134  0.00  0.00    +0.071 C 
ATOM      2  C   UNL     1      -3.485  -2.576  -0.540  0.00  0.00    -0.006 C 
ATOM      3  C   UNL     1      -4.910  -3.130  -0.606  0.00  0.00    -0.077 C 
ATOM      4  N   UNL     1      -5.357  -3.179  -2.003  0.00  0.00    +0.386 N 
ATOM      5  C   UNL     1      -5.408  -1.820  -2.557  0.00  0.00    -0.077 C 
ATOM      6  C   UNL     1      -4.002  -1.216  -2.567  0.00  0.00    -0.006 C 
ATOM      7  H   UNL     1      -4.711  -3.736  -2.542  0.00  0.00    -0.081 HD
ENDROOT
BRANCH   1   9
ATOM      8  N   UNL     1      -1.372  -0.511   0.012  0.00  0.00    -0.309 N 
ATOM      9  C   UNL     1      -2.051  -0.643  -1.145  0.00  0.00    +0.216 C 
ATOM     10  O   UNL     1      -1.524  -0.341  -2.194  0.00  0.00    -0.276 OA
ATOM     11  H   UNL     1      -1.794  -0.752   0.852  0.00  0.00    +0.149 HD
BRANCH   8  13
ATOM     12  C   UNL     1      -0.019   1.526   0.010  0.00  0.00    +0.033 C 
ATOM     13  C   UNL     1       0.002  -0.004   0.002  0.00  0.00    +0.100 C 
BRANCH  13  14
ATOM     14  C   UNL     1       0.731  -0.503   1.223  0.00  0.00    -0.027 A 
ATOM     15  C   UNL     1       0.080  -0.558   2.441  0.00  0.00    +0.008 A 
ATOM     16  C   UNL     1       0.748  -1.016   3.562  0.00  0.00    +0.038 A 
ATOM     17  C   UNL     1       2.068  -1.420   3.463  0.00  0.00    +0.123 A 
ATOM     18  C   UNL     1       2.719  -1.365   2.242  0.00  0.00    +0.038 A 
ATOM     19  C   UNL     1       2.048  -0.911   1.122  0.00  0.00    +0.008 A 
ATOM     20  F   UNL     1       2.722  -1.868   4.558  0.00  0.00    -0.205 F 
ENDBRANCH  13  14
ENDBRANCH   8  13
ENDBRANCH   1   9
BRANCH   4  21
ATOM     21  C   UNL     1      -6.694  -3.783  -2.067  0.00  0.00    +0.022 C 
BRANCH  21  22
ATOM     22  C   UNL     1      -7.102  -3.946  -3.509  0.00  0.00    +0.211 A 
ATOM     23  N   UNL     1      -6.877  -4.994  -4.250  0.00  0.00    -0.193 NA
ATOM     24  C   UNL     1      -7.378  -4.801  -5.483  0.00  0.00    +0.202 A 
ATOM     25  N   UNL     1      -7.930  -3.614  -5.531  0.00  0.00    -0.056 NA
ATOM     26  O   UNL     1      -7.763  -3.042  -4.242  0.00  0.00    -0.340 OA
BRANCH  24  27
ATOM     27  C   UNL     1      -7.314  -5.772  -6.605  0.00  0.00    +0.022 A 
ATOM     28  C   UNL     1      -6.700  -7.009  -6.424  0.00  0.00    +0.012 A 
ATOM     29  C   UNL     1      -6.643  -7.908  -7.470  0.00  0.00    +0.013 A 
ATOM     30  C   UNL     1      -7.194  -7.582  -8.696  0.00  0.00    +0.055 A 
ATOM     31  C   UNL     1      -7.805  -6.354  -8.881  0.00  0.00    +0.013 A 
ATOM     32  C   UNL     1      -7.873  -5.451  -7.840  0.00  0.00    +0.012 A 
BRANCH  30  33
ATOM     33  C   UNL     1      -7.129  -8.566  -9.835  0.00  0.00    +0.417 C 
ATOM     34  F   UNL     1      -8.261  -9.388  -9.807  0.00  0.00    -0.166 F 
ATOM     35  F   UNL     1      -7.086  -7.873 -11.049  0.00  0.00    -0.166 F 
ATOM     36  F   UNL     1      -5.979  -9.353  -9.706  0.00  0.00    -0.166 F 
ENDBRANCH  30  33
ENDBRANCH  24  27
ENDBRANCH  21  22
ENDBRANCH   4  21
TORSDOF 7
