REMARK  Name = ZINC02192448
REMARK  7 active torsions:
REMARK  status: ('A' for Active; 'I' for Inactive)
REMARK    1  A    between atoms: C_1  and  N_2
REMARK    2  A    between atoms: N_2  and  C_3
REMARK    3  A    between atoms: C_6  and  O_9
REMARK    4  A    between atoms: O_9  and  C_10
REMARK    5  A    between atoms: C_14  and  C_16
REMARK    6  A    between atoms: C_21  and  C_32
REMARK    7  A    between atoms: C_24  and  C_27
REMARK                            x       y       z     vdW  Elec       q    Type
REMARK                         _______ _______ _______ _____ _____    ______ ____
ROOT
ATOM      1  C   UNL     1      -0.194   0.298  -2.384  0.00  0.00    +0.168 A 
ATOM      2  C   UNL     1      -0.267  -0.185  -3.710  0.00  0.00    +0.112 A 
ATOM      3  C   UNL     1      -0.272   0.883  -4.533  0.00  0.00    +0.137 A 
ATOM      4  N   UNL     1      -0.206   2.012  -3.765  0.00  0.00    -0.237 N 
ATOM      5  N   UNL     1      -0.162   1.619  -2.428  0.00  0.00    -0.163 NA
ATOM      6  C   UNL     1      -0.194   3.370  -4.316  0.00  0.00    +0.215 C 
ATOM      7  C   UNL     1      -0.743   3.330  -5.747  0.00  0.00    +0.066 C 
ATOM      8  C   UNL     1      -0.030   2.235  -6.548  0.00  0.00    +0.140 C 
ATOM      9  N   UNL     1      -0.330   0.929  -5.930  0.00  0.00    -0.318 N 
ATOM     10 CL   UNL     1      -0.339  -1.851  -4.192  0.00  0.00    -0.078 Cl
ATOM     11  H   UNL     1      -0.554   0.148  -6.460  0.00  0.00    +0.148 HD
ENDROOT
BRANCH   8  12
ATOM     12  C   UNL     1      -0.521   2.250  -7.973  0.00  0.00    +0.125 A 
ATOM     13  C   UNL     1       0.116   2.804  -9.020  0.00  0.00    +0.046 A 
ATOM     14  C   UNL     1      -0.696   2.587 -10.156  0.00  0.00    +0.041 A 
ATOM     15  C   UNL     1      -1.781   1.912  -9.736  0.00  0.00    +0.195 A 
ATOM     16  O   UNL     1      -1.667   1.706  -8.414  0.00  0.00    -0.466 OA
ENDBRANCH   8  12
BRANCH   1  19
ATOM     17  C   UNL     1      -0.425   1.504   0.158  0.00  0.00    +0.138 C 
ATOM     18  N   UNL     1      -0.207   0.059   0.051  0.00  0.00    -0.269 N 
ATOM     19  C   UNL     1      -0.163  -0.529  -1.161  0.00  0.00    +0.272 C 
ATOM     20  O   UNL     1      -0.099  -1.740  -1.247  0.00  0.00    -0.268 OA
BRANCH  18  21
ATOM     21  C   UNL     1      -0.044  -0.712   1.209  0.00  0.00    +0.037 A 
ATOM     22  C   UNL     1       0.330  -2.045   1.109  0.00  0.00    +0.027 A 
ATOM     23  C   UNL     1       0.491  -2.804   2.252  0.00  0.00    +0.048 A 
ATOM     24  C   UNL     1       0.279  -2.235   3.499  0.00  0.00    +0.130 A 
ATOM     25  C   UNL     1      -0.095  -0.903   3.599  0.00  0.00    +0.048 A 
ATOM     26  C   UNL     1      -0.250  -0.141   2.458  0.00  0.00    +0.027 A 
BRANCH  24  27
ATOM     27  O   UNL     1       0.436  -2.983   4.623  0.00  0.00    -0.406 OA
BRANCH  27  28
ATOM     28  C   UNL     1       0.201  -2.333   5.873  0.00  0.00    +0.575 C 
ATOM     29  F   UNL     1      -1.117  -1.865   5.915  0.00  0.00    -0.133 F 
ATOM     30  F   UNL     1       0.406  -3.241   6.917  0.00  0.00    -0.133 F 
ATOM     31  F   UNL     1       1.083  -1.256   6.012  0.00  0.00    -0.133 F 
ENDBRANCH  27  28
ENDBRANCH  24  27
ENDBRANCH  18  21
ENDBRANCH   1  19
BRANCH   6  32
ATOM     32  C   UNL     1      -1.072   4.280  -3.454  0.00  0.00    +0.412 C 
ATOM     33  F   UNL     1      -0.575   4.304  -2.146  0.00  0.00    -0.168 F 
ATOM     34  F   UNL     1      -1.060   5.576  -3.981  0.00  0.00    -0.168 F 
ATOM     35  F   UNL     1      -2.383   3.792  -3.446  0.00  0.00    -0.168 F 
ENDBRANCH   6  32
TORSDOF 6
