REMARK  Name = ZINC39545129
REMARK  8 active torsions:
REMARK  status: ('A' for Active; 'I' for Inactive)
REMARK    1  A    between atoms: C_1  and  C_2
REMARK    2  A    between atoms: C_2  and  C_3
REMARK    3  A    between atoms: C_2  and  S_4
REMARK    4  A    between atoms: S_4  and  C_7
REMARK    5  A    between atoms: C_9  and  C_21
REMARK    6  A    between atoms: N_23  and  C_24
REMARK    7  A    between atoms: N_23  and  C_30
REMARK    8  A    between atoms: C_35  and  O_36
REMARK                            x       y       z     vdW  Elec       q    Type
REMARK                         _______ _______ _______ _____ _____    ______ ____
ROOT
ATOM      1  C   UNL     1      -1.776  -2.966   1.072  0.00  0.00    +0.102 C 
ATOM      2  C   UNL     1      -1.432  -3.292  -0.363  0.00  0.00    +0.088 C 
ATOM      3  C   UNL     1      -0.891  -4.734  -0.302  0.00  0.00    +0.151 C 
ATOM      4  N   UNL     1      -1.003  -5.097   1.120  0.00  0.00    -0.369 NA
ATOM      5  C   UNL     1      -1.501  -3.996   1.831  0.00  0.00    +0.096 C 
ATOM      6  N   UNL     1      -1.647  -4.056   3.229  0.00  0.00    -0.302 N 
ATOM      7  C   UNL     1      -0.653  -4.793   3.896  0.00  0.00    +0.037 A 
ATOM      8  C   UNL     1      -0.634  -4.828   5.283  0.00  0.00    +0.023 A 
ATOM      9  C   UNL     1       0.338  -5.559   5.938  0.00  0.00    +0.002 A 
ATOM     10  C   UNL     1       1.286  -6.252   5.208  0.00  0.00    +0.000 A 
ATOM     11  C   UNL     1       1.269  -6.214   3.828  0.00  0.00    +0.007 A 
ATOM     12  C   UNL     1       0.302  -5.481   3.161  0.00  0.00    -0.010 A 
ATOM     13  C   UNL     1       0.316  -5.445   1.660  0.00  0.00    +0.124 C 
ATOM     14  H   UNL     1      -2.378  -3.623   3.696  0.00  0.00    +0.153 HD
ATOM     15  H   UNL     1      -1.631  -5.880   1.223  0.00  0.00    +0.129 HD
ENDROOT
BRANCH   1  16
ATOM     16  S   UNL     1      -2.436  -1.433   1.637  0.00  0.00    -0.002 S 
ATOM     17  O   UNL     1      -2.606  -1.606   3.037  0.00  0.00    -0.169 OA
ATOM     18  O   UNL     1      -3.555  -1.189   0.796  0.00  0.00    -0.169 OA
BRANCH  16  20
ATOM     19  C   UNL     1      -1.549   1.143   1.879  0.00  0.00    +0.032 C 
ATOM     20  C   UNL     1      -1.132  -0.215   1.312  0.00  0.00    +0.130 C 
ATOM     21  C   UNL     1       0.168  -0.669   1.978  0.00  0.00    +0.032 C 
ENDBRANCH  16  20
ENDBRANCH   1  16
BRANCH   3  22
ATOM     22  C   UNL     1      -1.733  -5.651  -1.152  0.00  0.00    +0.244 C 
ATOM     23  O   UNL     1      -2.662  -6.253  -0.657  0.00  0.00    -0.273 OA
ATOM     24  N   UNL     1      -1.453  -5.801  -2.461  0.00  0.00    -0.235 N 
BRANCH  24  25
ATOM     25  C   UNL     1      -2.303  -6.558  -3.276  0.00  0.00    +0.041 A 
ATOM     26  C   UNL     1      -3.515  -7.019  -2.779  0.00  0.00    +0.024 A 
ATOM     27  C   UNL     1      -4.351  -7.766  -3.586  0.00  0.00    +0.002 A 
ATOM     28  C   UNL     1      -3.983  -8.054  -4.888  0.00  0.00    +0.000 A 
ATOM     29  C   UNL     1      -2.777  -7.596  -5.386  0.00  0.00    +0.002 A 
ATOM     30  C   UNL     1      -1.939  -6.845  -4.586  0.00  0.00    +0.024 A 
ENDBRANCH  24  25
BRANCH  24  31
ATOM     31  C   UNL     1      -0.310  -5.199  -3.008  0.00  0.00    +0.083 A 
ATOM     32  C   UNL     1       0.919  -5.837  -2.924  0.00  0.00    +0.027 A 
ATOM     33  C   UNL     1       2.043  -5.242  -3.463  0.00  0.00    +0.002 A 
ATOM     34  C   UNL     1       1.947  -4.011  -4.086  0.00  0.00    +0.004 A 
ATOM     35  C   UNL     1       0.726  -3.370  -4.173  0.00  0.00    +0.047 A 
ATOM     36  C   UNL     1      -0.408  -3.962  -3.641  0.00  0.00    +0.138 A 
BRANCH  36  37
ATOM     37  O   UNL     1      -1.611  -3.336  -3.731  0.00  0.00    -0.505 OA
ATOM     38  H   UNL     1      -1.769  -2.685  -3.033  0.00  0.00    +0.292 HD
ENDBRANCH  36  37
ENDBRANCH  24  31
ENDBRANCH   3  22
TORSDOF 6
