REMARK  Name = ZINC12792587
REMARK  4 active torsions:
REMARK  status: ('A' for Active; 'I' for Inactive)
REMARK    1  A    between atoms: C_1  and  C_2
REMARK    2  A    between atoms: C_12  and  C_14
REMARK    3  A    between atoms: N_17  and  S_20
REMARK    4  A    between atoms: S_20  and  C_23
REMARK                            x       y       z     vdW  Elec       q    Type
REMARK                         _______ _______ _______ _____ _____    ______ ____
ROOT
ATOM      1  C   UNL     1      -0.683   7.866   1.242  0.00  0.00    +0.078 C 
ATOM      2  C   UNL     1       0.728   7.276   1.184  0.00  0.00    +0.030 C 
ATOM      3  C   UNL     1       1.744   8.410   1.008  0.00  0.00    +0.110 C 
ATOM      4  N   UNL     1       1.545   9.394   2.080  0.00  0.00    -0.176 NA
ATOM      5  C   UNL     1       0.203   9.957   2.283  0.00  0.00    +0.110 C 
ATOM      6  C   UNL     1      -0.795   8.806   2.445  0.00  0.00    +0.030 C 
ENDROOT
BRANCH   1  17
ATOM      7  C   UNL     1      -3.442   4.758   1.885  0.00  0.00    +0.033 C 
ATOM      8  C   UNL     1      -2.925   4.859   0.449  0.00  0.00    +0.104 C 
ATOM      9  C   UNL     1      -2.312   3.526   0.025  0.00  0.00    -0.017 A 
ATOM     10  C   UNL     1      -2.942   2.298   0.223  0.00  0.00    +0.013 A 
ATOM     11  C   UNL     1      -2.338   1.155  -0.177  0.00  0.00    +0.046 A 
ATOM     12  S   UNL     1      -0.816   1.771  -0.881  0.00  0.00    -0.101 S 
ATOM     13  C   UNL     1      -1.095   3.497  -0.583  0.00  0.00    -0.004 A 
ATOM     14  C   UNL     1      -0.206   4.652  -0.914  0.00  0.00    +0.061 C 
ATOM     15  C   UNL     1      -1.030   5.946  -0.834  0.00  0.00    +0.113 C 
ATOM     16  N   UNL     1      -1.875   5.883   0.368  0.00  0.00    -0.294 N 
ATOM     17  C   UNL     1      -1.687   6.751   1.381  0.00  0.00    +0.219 C 
ATOM     18  O   UNL     1      -2.327   6.635   2.405  0.00  0.00    -0.275 OA
ENDBRANCH   1  17
BRANCH   4  19
ATOM     19  S   UNL     1       2.809   9.860   3.043  0.00  0.00    +0.062 S 
ATOM     20  O   UNL     1       2.254  10.202   4.305  0.00  0.00    -0.153 OA
ATOM     21  O   UNL     1       3.817   8.869   2.897  0.00  0.00    -0.153 OA
BRANCH  19  22
ATOM     22  C   UNL     1       3.463  11.347   2.360  0.00  0.00    +0.125 A 
ATOM     23  C   UNL     1       3.375  12.530   3.070  0.00  0.00    +0.050 A 
ATOM     24  C   UNL     1       3.893  13.696   2.536  0.00  0.00    +0.043 A 
ATOM     25  C   UNL     1       4.489  13.681   1.288  0.00  0.00    +0.021 A 
ATOM     26  C   UNL     1       4.573  12.499   0.576  0.00  0.00    +0.023 A 
ATOM     27  C   UNL     1       4.060  11.331   1.112  0.00  0.00    +0.067 A 
ATOM     28 CL   UNL     1       4.164   9.847   0.219  0.00  0.00    -0.082 Cl
ATOM     29 CL   UNL     1       3.789  15.181   3.430  0.00  0.00    -0.083 Cl
ENDBRANCH  19  22
ENDBRANCH   4  19
TORSDOF 3
