REMARK  Name = ZINC40110679
REMARK  13 active torsions:
REMARK  status: ('A' for Active; 'I' for Inactive)
REMARK    1  A    between atoms: C_1  and  C_2
REMARK    2  A    between atoms: C_2  and  O_3
REMARK    3  A    between atoms: O_3  and  C_4
REMARK    4  A    between atoms: C_9  and  C_10
REMARK    5  A    between atoms: C_12  and  C_21
REMARK    6  A    between atoms: N_16  and  C_17
REMARK    7  A    between atoms: C_17  and  C_18
REMARK    8  A    between atoms: C_18  and  O_19
REMARK    9  A    between atoms: C_21  and  C_23
REMARK   10  A    between atoms: C_26  and  S_29
REMARK   11  A    between atoms: S_29  and  N_32
REMARK   12  A    between atoms: N_32  and  C_33
REMARK   13  A    between atoms: N_32  and  C_34
REMARK                            x       y       z     vdW  Elec       q    Type
REMARK                         _______ _______ _______ _____ _____    ______ ____
ROOT
ATOM      1  C   UNL     1      -3.950  -1.344   0.331  0.00  0.00    +0.148 C 
ATOM      2  C   UNL     1      -4.434  -0.946   1.706  0.00  0.00    +0.076 C 
ATOM      3  C   UNL     1      -5.659  -1.500   1.865  0.00  0.00    +0.249 C 
ATOM      4  C   UNL     1      -6.012  -2.255   0.643  0.00  0.00    +0.288 C 
ATOM      5  O   UNL     1      -7.049  -2.865   0.476  0.00  0.00    -0.266 OA
ATOM      6  N   UNL     1      -5.015  -2.165  -0.257  0.00  0.00    -0.281 N 
ATOM      7  O   UNL     1      -6.436  -1.382   2.966  0.00  0.00    -0.282 OA
ENDROOT
BRANCH   1  13
ATOM      8  C   UNL     1      -1.867  -2.316  -0.671  0.00  0.00    +0.126 A 
ATOM      9  C   UNL     1      -0.694  -3.049  -0.565  0.00  0.00    +0.046 A 
ATOM     10  C   UNL     1      -0.340  -3.612   0.645  0.00  0.00    +0.004 A 
ATOM     11  C   UNL     1      -1.153  -3.445   1.751  0.00  0.00    +0.001 A 
ATOM     12  C   UNL     1      -2.322  -2.715   1.648  0.00  0.00    +0.009 A 
ATOM     13  C   UNL     1      -2.678  -2.145   0.441  0.00  0.00    +0.019 A 
BRANCH   8  14
ATOM     14  O   UNL     1      -2.218  -1.760  -1.861  0.00  0.00    -0.492 OA
BRANCH  14  16
ATOM     15  C   UNL     1      -1.871  -1.264  -4.200  0.00  0.00    +0.048 C 
ATOM     16  C   UNL     1      -1.391  -2.063  -2.987  0.00  0.00    +0.225 C 
ENDBRANCH  14  16
ENDBRANCH   8  14
ENDBRANCH   1  13
BRANCH   2  17
ATOM     17  C   UNL     1      -3.715  -0.120   2.681  0.00  0.00    +0.195 C 
ATOM     18  O   UNL     1      -3.354  -0.603   3.738  0.00  0.00    -0.287 OA
BRANCH  17  19
ATOM     19  C   UNL     1      -3.430   1.299   2.380  0.00  0.00    +0.022 A 
ATOM     20  C   UNL     1      -3.947   1.889   1.225  0.00  0.00    +0.013 A 
ATOM     21  C   UNL     1      -3.678   3.213   0.950  0.00  0.00    +0.029 A 
ATOM     22  C   UNL     1      -2.895   3.957   1.816  0.00  0.00    +0.105 A 
ATOM     23  C   UNL     1      -2.379   3.379   2.962  0.00  0.00    +0.029 A 
ATOM     24  C   UNL     1      -2.646   2.057   3.252  0.00  0.00    +0.013 A 
BRANCH  22  25
ATOM     25  S   UNL     1      -2.554   5.648   1.457  0.00  0.00    +0.060 S 
ATOM     26  O   UNL     1      -1.293   5.941   2.042  0.00  0.00    -0.153 OA
ATOM     27  O   UNL     1      -2.812   5.829   0.071  0.00  0.00    -0.153 OA
BRANCH  25  28
ATOM     28  N   UNL     1      -3.675   6.556   2.269  0.00  0.00    -0.183 NA
ATOM     29  C   UNL     1      -3.398   7.016   3.632  0.00  0.00    +0.131 C 
ATOM     30  C   UNL     1      -4.945   6.901   1.624  0.00  0.00    +0.131 C 
ENDBRANCH  25  28
ENDBRANCH  22  25
ENDBRANCH  17  19
ENDBRANCH   2  17
BRANCH   6  31
ATOM     31  C   UNL     1      -4.995  -2.779  -1.587  0.00  0.00    +0.137 C 
BRANCH  31  32
ATOM     32  C   UNL     1      -4.490  -4.219  -1.477  0.00  0.00    +0.175 C 
BRANCH  32  33
ATOM     33  O   UNL     1      -5.424  -4.995  -0.724  0.00  0.00    -0.393 OA
ATOM     34  H   UNL     1      -5.168  -5.921  -0.614  0.00  0.00    +0.209 HD
ENDBRANCH  32  33
ENDBRANCH  31  32
ENDBRANCH   6  31
TORSDOF 10
