REMARK  Name = ZINC64761647
REMARK  3 active torsions:
REMARK  status: ('A' for Active; 'I' for Inactive)
REMARK    1  A    between atoms: C_3  and  N_9
REMARK    2  A    between atoms: C_15  and  C_18
REMARK    3  A    between atoms: C_24  and  C_27
REMARK                            x       y       z     vdW  Elec       q    Type
REMARK                         _______ _______ _______ _____ _____    ______ ____
ROOT
ATOM      1  N   UNL     1       2.498   3.948   0.059  0.00  0.00    -0.267 N 
ATOM      2  C   UNL     1       2.736   5.273   0.110  0.00  0.00    +0.307 C 
ATOM      3  O   UNL     1       1.816   6.050   0.280  0.00  0.00    -0.252 OA
ATOM      4  N   UNL     1       3.994   5.738  -0.026  0.00  0.00    -0.285 N 
ATOM      5  C   UNL     1       5.100   4.823  -0.340  0.00  0.00    +0.110 C 
ATOM      6  C   UNL     1       6.207   5.012   0.702  0.00  0.00    +0.027 C 
ATOM      7  C   UNL     1       6.607   6.489   0.753  0.00  0.00    +0.022 C 
ATOM      8  C   UNL     1       5.400   7.332   1.172  0.00  0.00    +0.027 C 
ATOM      9  C   UNL     1       4.284   7.170   0.129  0.00  0.00    +0.110 C 
ATOM     10  H   UNL     1       3.236   3.326  -0.042  0.00  0.00    +0.156 HD
ENDROOT
BRANCH   7  11
ATOM     11  C   UNL     1       7.719   6.673   1.753  0.00  0.00    -0.041 A 
ATOM     12  C   UNL     1       7.526   6.327   3.098  0.00  0.00    +0.023 A 
ATOM     13  C   UNL     1       8.523   6.492   3.995  0.00  0.00    +0.113 A 
ATOM     14  N   UNL     1       9.729   6.996   3.610  0.00  0.00    -0.239 N 
ATOM     15  C   UNL     1       9.942   7.340   2.306  0.00  0.00    +0.079 A 
ATOM     16  C   UNL     1       8.925   7.173   1.357  0.00  0.00    +0.032 A 
ATOM     17  C   UNL     1      11.262   7.824   2.220  0.00  0.00    +0.082 A 
ATOM     18  C   UNL     1      11.808   7.748   3.514  0.00  0.00    +0.148 A 
ATOM     19  N   UNL     1      10.904   7.262   4.324  0.00  0.00    -0.174 NA
BRANCH  17  20
ATOM     20  C   UNL     1      11.938   8.311   1.014  0.00  0.00    +0.250 C 
ATOM     21  O   UNL     1      11.341   9.022   0.228  0.00  0.00    -0.270 OA
ATOM     22  N   UNL     1      13.220   7.971   0.777  0.00  0.00    -0.297 N 
ATOM     23  C   UNL     1      13.921   7.027   1.658  0.00  0.00    +0.108 C 
ATOM     24  C   UNL     1      14.506   5.897   0.805  0.00  0.00    +0.019 C 
ATOM     25  C   UNL     1      15.383   6.497  -0.297  0.00  0.00    +0.003 C 
ATOM     26  C   UNL     1      14.530   7.393  -1.199  0.00  0.00    +0.019 C 
ATOM     27  C   UNL     1      13.943   8.534  -0.372  0.00  0.00    +0.108 C 
ENDBRANCH  17  20
ENDBRANCH   7  11
BRANCH   1  30
ATOM     28  C   UNL     1      -1.097   3.774   0.821  0.00  0.00    +0.040 A 
ATOM     29  C   UNL     1       0.198   4.249   0.732  0.00  0.00    +0.029 A 
ATOM     30  C   UNL     1       1.185   3.467   0.150  0.00  0.00    +0.070 A 
ATOM     31  C   UNL     1       0.869   2.206  -0.343  0.00  0.00    +0.147 A 
ATOM     32  C   UNL     1      -0.428   1.735  -0.252  0.00  0.00    +0.078 A 
ATOM     33  C   UNL     1      -1.411   2.519   0.330  0.00  0.00    +0.126 A 
ATOM     34  F   UNL     1      -2.677   2.057   0.419  0.00  0.00    -0.205 F 
ATOM     35  F   UNL     1       1.827   1.442  -0.910  0.00  0.00    -0.203 F 
ENDBRANCH   1  30
TORSDOF 3
