REMARK  Name = ZINC31035797
REMARK  13 active torsions:
REMARK  status: ('A' for Active; 'I' for Inactive)
REMARK    1  A    between atoms: C_1  and  C_2
REMARK    2  A    between atoms: C_5  and  O_33
REMARK    3  A    between atoms: C_6  and  N_8
REMARK    4  A    between atoms: C_9  and  C_11
REMARK    5  A    between atoms: C_11  and  C_13
REMARK    6  A    between atoms: C_11  and  N_19
REMARK    7  A    between atoms: N_19  and  C_20
REMARK    8  A    between atoms: N_19  and  C_21
REMARK    9  A    between atoms: C_21  and  C_22
REMARK   10  A    between atoms: N_24  and  C_25
REMARK   11  A    between atoms: C_30  and  S_31
REMARK   12  A    between atoms: S_31  and  C_32
REMARK   13  A    between atoms: O_33  and  C_34
REMARK                            x       y       z     vdW  Elec       q    Type
REMARK                         _______ _______ _______ _____ _____    ______ ____
ROOT
ATOM      1  C   UNL     1      -0.048   1.090  -0.135  0.00  0.00    +0.051 C 
ENDROOT
BRANCH   1   2
ATOM      2  C   UNL     1      -0.879   1.447  -1.340  0.00  0.00    -0.052 A 
ATOM      3  C   UNL     1      -1.712   2.550  -1.303  0.00  0.00    +0.002 A 
ATOM      4  C   UNL     1      -2.471   2.880  -2.410  0.00  0.00    +0.000 A 
ATOM      5  C   UNL     1      -2.405   2.102  -3.550  0.00  0.00    +0.000 A 
ATOM      6  C   UNL     1      -1.576   0.997  -3.586  0.00  0.00    +0.000 A 
ATOM      7  C   UNL     1      -0.814   0.669  -2.480  0.00  0.00    +0.002 A 
ENDBRANCH   1   2
BRANCH   1   9
ATOM      8  N   UNL     1       2.186   1.749  -0.968  0.00  0.00    -0.284 N 
ATOM      9  C   UNL     1       1.181   1.961  -0.096  0.00  0.00    +0.208 C 
ATOM     10  O   UNL     1       1.265   2.854   0.721  0.00  0.00    -0.277 OA
ATOM     11  H   UNL     1       2.080   0.986  -1.753  0.00  0.00    +0.155 HD
BRANCH   8  17
ATOM     12  C   UNL     1       4.427   5.995   0.092  0.00  0.00    +0.044 C 
ATOM     13  C   UNL     1       4.481   4.560  -0.364  0.00  0.00    -0.048 A 
ATOM     14  C   UNL     1       5.696   3.985  -0.689  0.00  0.00    +0.007 A 
ATOM     15  C   UNL     1       5.752   2.669  -1.107  0.00  0.00    +0.048 A 
ATOM     16  C   UNL     1       4.589   1.921  -1.202  0.00  0.00    +0.141 A 
ATOM     17  C   UNL     1       3.365   2.500  -0.874  0.00  0.00    +0.076 A 
ATOM     18  C   UNL     1       3.316   3.823  -0.461  0.00  0.00    +0.030 A 
BRANCH  16  19
ATOM     19  O   UNL     1       4.643   0.626  -1.613  0.00  0.00    -0.493 OA
ATOM     20  C   UNL     1       5.933   0.100  -1.932  0.00  0.00    +0.277 C 
ENDBRANCH  16  19
ENDBRANCH   8  17
ENDBRANCH   1   9
BRANCH   1  21
ATOM     21  N   UNL     1      -0.838   1.302   1.085  0.00  0.00    +0.394 N 
ATOM     22  C   UNL     1      -0.085   0.890   2.278  0.00  0.00    -0.094 C 
ATOM     23  H   UNL     1      -1.045   2.379   1.171  0.00  0.00    -0.080 HD
BRANCH  21  24
ATOM     24  C   UNL     1      -2.126   0.600   1.007  0.00  0.00    +0.020 C 
BRANCH  24  25
ATOM     25  C   UNL     1      -3.004   1.033   2.153  0.00  0.00    +0.201 C 
ATOM     26  O   UNL     1      -2.597   1.846   2.955  0.00  0.00    -0.278 OA
ATOM     27  N   UNL     1      -4.242   0.516   2.285  0.00  0.00    -0.286 N 
ATOM     28  H   UNL     1      -4.582  -0.279   1.606  0.00  0.00    +0.155 HD
BRANCH  27  29
ATOM     29  C   UNL     1      -5.096   0.992   3.289  0.00  0.00    +0.047 A 
ATOM     30  C   UNL     1      -5.040   2.322   3.678  0.00  0.00    +0.024 A 
ATOM     31  C   UNL     1      -5.887   2.791   4.664  0.00  0.00    +0.002 A 
ATOM     32  C   UNL     1      -6.785   1.935   5.275  0.00  0.00    +0.001 A 
ATOM     33  C   UNL     1      -6.845   0.607   4.899  0.00  0.00    +0.016 A 
ATOM     34  C   UNL     1      -6.002   0.128   3.905  0.00  0.00    +0.029 A 
BRANCH  34  35
ATOM     35  S   UNL     1      -6.075  -1.565   3.424  0.00  0.00    -0.127 S 
ATOM     36  C   UNL     1      -7.372  -2.266   4.481  0.00  0.00    +0.090 C 
ENDBRANCH  34  35
ENDBRANCH  27  29
ENDBRANCH  24  25
ENDBRANCH  21  24
ENDBRANCH   1  21
TORSDOF 9
