REMARK  Name = ZINC09281898
REMARK  2 active torsions:
REMARK  status: ('A' for Active; 'I' for Inactive)
REMARK    1  A    between atoms: C_1  and  C_2
REMARK    2  A    between atoms: C_7  and  N_8
REMARK                            x       y       z     vdW  Elec       q    Type
REMARK                         _______ _______ _______ _____ _____    ______ ____
ROOT
ATOM      1  N   UNL     1       0.844  -0.216   2.850  0.00  0.00    -0.210 N 
ATOM      2  C   UNL     1       1.604   0.765   2.351  0.00  0.00    +0.228 C 
ATOM      3  O   UNL     1       1.506   1.940   2.634  0.00  0.00    -0.275 OA
ATOM      4  C   UNL     1       2.605   0.181   1.379  0.00  0.00    +0.074 C 
ATOM      5  C   UNL     1       2.266   0.649  -0.048  0.00  0.00    -0.054 C 
ATOM      6  C   UNL     1       1.463   1.961  -0.001  0.00  0.00    -0.016 C 
ATOM      7  C   UNL     1      -0.019   1.538   0.011  0.00  0.00    -0.020 C 
ATOM      8  C   UNL     1       0.002  -0.004   0.002  0.00  0.00    -0.076 C 
ATOM      9  C   UNL     1       1.778  -1.645  -0.003  0.00  0.00    +0.053 C 
ATOM     10  C   UNL     1       2.294  -1.341   1.394  0.00  0.00    +0.089 C 
ATOM     11  C   UNL     1       1.137  -1.437   2.385  0.00  0.00    +0.229 C 
ATOM     12  O   UNL     1       0.575  -2.462   2.706  0.00  0.00    -0.275 OA
ATOM     13  C   UNL     1       0.677  -2.670   0.019  0.00  0.00    -0.027 A 
ATOM     14  C   UNL     1      -0.570  -2.707   0.601  0.00  0.00    +0.004 A 
ATOM     15  C   UNL     1      -1.376  -3.819   0.439  0.00  0.00    +0.000 A 
ATOM     16  C   UNL     1      -0.926  -4.892  -0.309  0.00  0.00    +0.002 A 
ATOM     17  C   UNL     1       0.322  -4.859  -0.894  0.00  0.00    +0.023 A 
ATOM     18  C   UNL     1       1.141  -3.743  -0.736  0.00  0.00    +0.036 A 
ATOM     19  N   UNL     1       2.423  -3.474  -1.220  0.00  0.00    -0.286 N 
ATOM     20  C   UNL     1       2.869  -2.264  -0.834  0.00  0.00    +0.212 C 
ATOM     21  O   UNL     1       3.942  -1.767  -1.105  0.00  0.00    -0.277 OA
ATOM     22  H   UNL     1       2.933  -4.089  -1.771  0.00  0.00    +0.155 HD
ATOM     23  N   UNL     1       1.338  -0.349  -0.528  0.00  0.00    +0.395 N 
ATOM     24  H   UNL     1       1.319  -0.369  -1.554  0.00  0.00    -0.079 HD
ENDROOT
BRANCH   1  31
ATOM     25  C   UNL     1       1.501  -0.313   5.617  0.00  0.00    +0.045 C 
ATOM     26  C   UNL     1       0.101  -0.023   5.142  0.00  0.00    -0.029 A 
ATOM     27  C   UNL     1      -0.907   0.205   6.059  0.00  0.00    +0.006 A 
ATOM     28  C   UNL     1      -2.192   0.471   5.624  0.00  0.00    +0.020 A 
ATOM     29  C   UNL     1      -2.473   0.510   4.269  0.00  0.00    +0.043 A 
ATOM     30  C   UNL     1      -1.467   0.288   3.348  0.00  0.00    +0.044 A 
ATOM     31  C   UNL     1      -0.177   0.015   3.782  0.00  0.00    +0.048 A 
ATOM     32 CL   UNL     1      -4.088   0.845   3.728  0.00  0.00    -0.083 Cl
ENDBRANCH   1  31
TORSDOF 1
