REMARK  Name = ZINC35486510
REMARK  11 active torsions:
REMARK  status: ('A' for Active; 'I' for Inactive)
REMARK    1  A    between atoms: C_1  and  C_2
REMARK    2  A    between atoms: C_2  and  N_3
REMARK    3  A    between atoms: N_3  and  C_4
REMARK    4  A    between atoms: N_3  and  C_6
REMARK    5  A    between atoms: C_4  and  C_5
REMARK    6  A    between atoms: C_6  and  C_7
REMARK    7  A    between atoms: C_7  and  N_8
REMARK    8  A    between atoms: C_9  and  C_25
REMARK    9  A    between atoms: C_28  and  C_31
REMARK   10  A    between atoms: C_31  and  C_32
REMARK   11  A    between atoms: C_31  and  C_33
REMARK                            x       y       z     vdW  Elec       q    Type
REMARK                         _______ _______ _______ _____ _____    ______ ____
ROOT
ATOM      1  N   UNL     1       1.352  -4.018  -2.683  0.00  0.00    -0.285 N 
ATOM      2  C   UNL     1       2.206  -5.017  -2.019  0.00  0.00    +0.144 C 
ATOM      3  C   UNL     1       1.678  -6.349  -2.441  0.00  0.00    +0.072 A 
ATOM      4  C   UNL     1       2.118  -7.710  -2.116  0.00  0.00    +0.199 A 
ATOM      5  O   UNL     1       2.946  -7.956  -1.257  0.00  0.00    -0.287 OA
ATOM      6  C   UNL     1       1.458  -8.758  -2.934  0.00  0.00    +0.066 A 
ATOM      7  C   UNL     1       1.909 -10.078  -2.887  0.00  0.00    +0.035 A 
ATOM      8  C   UNL     1       1.288 -11.037  -3.657  0.00  0.00    +0.042 A 
ATOM      9  C   UNL     1       0.220 -10.689  -4.475  0.00  0.00    +0.023 A 
ATOM     10  C   UNL     1      -0.234  -9.391  -4.527  0.00  0.00    +0.048 A 
ATOM     11  C   UNL     1       0.376  -8.402  -3.756  0.00  0.00    +0.140 A 
ATOM     12  O   UNL     1      -0.096  -7.136  -3.820  0.00  0.00    -0.450 OA
ATOM     13  C   UNL     1       0.612  -6.131  -3.268  0.00  0.00    +0.199 A 
ATOM     14  C   UNL     1       0.423  -4.677  -3.405  0.00  0.00    +0.283 C 
ATOM     15  O   UNL     1      -0.443  -4.148  -4.074  0.00  0.00    -0.267 OA
ATOM     16 CL   UNL     1       1.841 -12.682  -3.605  0.00  0.00    -0.084 Cl
ENDROOT
BRANCH   2  17
ATOM     17  C   UNL     1       3.636  -4.857  -2.466  0.00  0.00    -0.022 A 
ATOM     18  C   UNL     1       3.919  -4.572  -3.789  0.00  0.00    +0.006 A 
ATOM     19  C   UNL     1       5.231  -4.425  -4.199  0.00  0.00    +0.004 A 
ATOM     20  C   UNL     1       6.260  -4.564  -3.287  0.00  0.00    -0.045 A 
ATOM     21  C   UNL     1       5.977  -4.849  -1.964  0.00  0.00    +0.004 A 
ATOM     22  C   UNL     1       4.665  -4.991  -1.553  0.00  0.00    +0.006 A 
BRANCH  20  23
ATOM     23  C   UNL     1       7.690  -4.406  -3.735  0.00  0.00    +0.013 C 
ATOM     24  C   UNL     1       8.342  -3.257  -2.962  0.00  0.00    +0.012 C 
ATOM     25  C   UNL     1       8.456  -5.702  -3.463  0.00  0.00    +0.012 C 
ENDBRANCH  20  23
ENDBRANCH   2  17
BRANCH   1  26
ATOM     26  C   UNL     1       1.484  -2.563  -2.572  0.00  0.00    +0.090 C 
BRANCH  26  27
ATOM     27  C   UNL     1       0.646  -2.063  -1.393  0.00  0.00    -0.060 C 
BRANCH  27  28
ATOM     28  N   UNL     1       0.874  -0.624  -1.207  0.00  0.00    +0.380 N 
ATOM     29  H   UNL     1       1.863  -0.451  -1.102  0.00  0.00    -0.082 HD
BRANCH  28  31
ATOM     30  C   UNL     1       0.718   1.591  -2.240  0.00  0.00    -0.017 C 
ATOM     31  C   UNL     1       0.370   0.108  -2.377  0.00  0.00    -0.082 C 
ENDBRANCH  28  31
BRANCH  28  32
ATOM     32  C   UNL     1       0.167  -0.168  -0.002  0.00  0.00    -0.082 C 
ATOM     33  C   UNL     1       0.798  -0.812   1.234  0.00  0.00    -0.017 C 
ENDBRANCH  28  32
ENDBRANCH  27  28
ENDBRANCH  26  27
ENDBRANCH   1  26
TORSDOF 7
