REMARK  Name = ZINC39697725
REMARK  8 active torsions:
REMARK  status: ('A' for Active; 'I' for Inactive)
REMARK    1  A    between atoms: C_1  and  C_2
REMARK    2  A    between atoms: C_2  and  C_3
REMARK    3  A    between atoms: C_10  and  C_15
REMARK    4  A    between atoms: C_15  and  N_16
REMARK    5  A    between atoms: N_16  and  C_17
REMARK    6  A    between atoms: C_17  and  C_18
REMARK    7  A    between atoms: N_29  and  C_30
REMARK    8  A    between atoms: C_30  and  C_31
REMARK                            x       y       z     vdW  Elec       q    Type
REMARK                         _______ _______ _______ _____ _____    ______ ____
ROOT
ATOM      1  N   UNL     1       0.906  -3.711   7.609  0.00  0.00    -0.280 N 
ATOM      2  C   UNL     1       2.047  -4.426   7.671  0.00  0.00    +0.303 C 
ATOM      3  O   UNL     1       2.610  -4.761   6.646  0.00  0.00    -0.253 OA
ATOM      4  N   UNL     1       2.563  -4.770   8.867  0.00  0.00    -0.295 N 
ATOM      5  H   UNL     1       2.114  -4.502   9.684  0.00  0.00    +0.151 HD
ENDROOT
BRANCH   1   6
ATOM      6  C   UNL     1       0.344  -3.338   6.309  0.00  0.00    +0.126 C 
BRANCH   6  14
ATOM      7  C   UNL     1       0.731  -0.503   1.223  0.00  0.00    -0.047 A 
ATOM      8  C   UNL     1       2.110  -0.706   1.160  0.00  0.00    +0.005 A 
ATOM      9  C   UNL     1       2.834  -1.154   2.219  0.00  0.00    +0.024 A 
ATOM     10  C   UNL     1       2.206  -1.435   3.446  0.00  0.00    +0.040 A 
ATOM     11  N   UNL     1       2.927  -1.873   4.478  0.00  0.00    -0.284 N 
ATOM     12  C   UNL     1       2.401  -2.156   5.658  0.00  0.00    +0.226 C 
ATOM     13  O   UNL     1       3.110  -2.553   6.563  0.00  0.00    -0.275 OA
ATOM     14  C   UNL     1       0.914  -1.985   5.877  0.00  0.00    +0.116 C 
ATOM     15  C   UNL     1       0.090  -1.487   4.706  0.00  0.00    -0.003 C 
ATOM     16  C   UNL     1       0.750  -1.230   3.541  0.00  0.00    -0.007 A 
ATOM     17  C   UNL     1       0.033  -0.741   2.363  0.00  0.00    +0.013 A 
ATOM     18  H   UNL     1       3.882  -1.990   4.358  0.00  0.00    +0.155 HD
BRANCH   7  20
ATOM     19  C   UNL     1      -0.019   1.526   0.010  0.00  0.00    +0.009 C 
ATOM     20  C   UNL     1       0.002  -0.004   0.002  0.00  0.00    +0.032 C 
ENDBRANCH   7  20
ENDBRANCH   6  14
ENDBRANCH   1   6
BRANCH   1  21
ATOM     21  C   UNL     1       0.227  -3.307   8.843  0.00  0.00    +0.144 C 
BRANCH  21  22
ATOM     22  C   UNL     1      -0.759  -4.373   9.246  0.00  0.00    -0.026 A 
ATOM     23  C   UNL     1      -2.060  -4.321   8.780  0.00  0.00    +0.009 A 
ATOM     24  C   UNL     1      -2.968  -5.296   9.146  0.00  0.00    +0.050 A 
ATOM     25  C   UNL     1      -2.576  -6.330   9.982  0.00  0.00    +0.166 A 
ATOM     26  C   UNL     1      -1.266  -6.382  10.452  0.00  0.00    +0.167 A 
ATOM     27  C   UNL     1      -0.360  -5.404  10.076  0.00  0.00    +0.054 A 
ATOM     28  O   UNL     1      -1.132  -7.482  11.248  0.00  0.00    -0.453 OA
ATOM     29  C   UNL     1      -2.475  -7.875  11.591  0.00  0.00    +0.466 C 
ATOM     30  O   UNL     1      -3.263  -7.397  10.485  0.00  0.00    -0.453 OA
ENDBRANCH  21  22
ENDBRANCH   1  21
BRANCH   4  31
ATOM     31  C   UNL     1       3.803  -5.547   8.934  0.00  0.00    +0.141 C 
BRANCH  31  32
ATOM     32  C   UNL     1       4.163  -5.796  10.376  0.00  0.00    -0.030 A 
ATOM     33  C   UNL     1       4.958  -4.893  11.056  0.00  0.00    +0.005 A 
ATOM     34  C   UNL     1       5.288  -5.122  12.379  0.00  0.00    +0.000 A 
ATOM     35  C   UNL     1       4.822  -6.254  13.021  0.00  0.00    +0.000 A 
ATOM     36  C   UNL     1       4.026  -7.157  12.341  0.00  0.00    +0.000 A 
ATOM     37  C   UNL     1       3.693  -6.926  11.020  0.00  0.00    +0.005 A 
ENDBRANCH  31  32
ENDBRANCH   4  31
TORSDOF 7
