REMARK  Name = ZINC16450147
REMARK  6 active torsions:
REMARK  status: ('A' for Active; 'I' for Inactive)
REMARK    1  A    between atoms: C_5  and  C_7
REMARK    2  A    between atoms: C_7  and  C_8
REMARK    3  A    between atoms: C_10  and  C_11
REMARK    4  A    between atoms: N_12  and  C_13
REMARK    5  A    between atoms: C_18  and  N_19
REMARK    6  A    between atoms: C_25  and  O_26
REMARK                            x       y       z     vdW  Elec       q    Type
REMARK                         _______ _______ _______ _____ _____    ______ ____
ROOT
ATOM      1  C   UNL     1       1.411  -2.391   1.487  0.00  0.00    -0.041 A 
ATOM      2  C   UNL     1       2.642  -2.803   1.950  0.00  0.00    +0.017 A 
ATOM      3  C   UNL     1       2.784  -3.216   3.278  0.00  0.00    +0.036 A 
ATOM      4  C   UNL     1       1.669  -3.209   4.130  0.00  0.00    +0.139 A 
ATOM      5  C   UNL     1       0.439  -2.791   3.647  0.00  0.00    +0.060 A 
ATOM      6  C   UNL     1       0.314  -2.379   2.333  0.00  0.00    +0.023 A 
ATOM      7 BR   UNL     1      -1.069  -2.778   4.788  0.00  0.00    -0.046 Br
ENDROOT
BRANCH   3   8
ATOM      8  C   UNL     1       4.095  -3.656   3.779  0.00  0.00    +0.123 C 
ATOM      9  N   UNL     1       4.224  -4.041   5.018  0.00  0.00    -0.253 NA
BRANCH   9  10
ATOM     10  C   UNL     1       5.462  -4.348   5.514  0.00  0.00    +0.083 A 
ATOM     11  C   UNL     1       6.537  -3.482   5.304  0.00  0.00    +0.029 A 
ATOM     12  C   UNL     1       7.781  -3.797   5.807  0.00  0.00    +0.002 A 
ATOM     13  C   UNL     1       7.967  -4.970   6.518  0.00  0.00    +0.002 A 
ATOM     14  C   UNL     1       6.907  -5.833   6.729  0.00  0.00    +0.024 A 
ATOM     15  C   UNL     1       5.655  -5.527   6.238  0.00  0.00    +0.039 A 
BRANCH  15  16
ATOM     16  N   UNL     1       4.583  -6.397   6.458  0.00  0.00    -0.392 NA
ATOM     17  C   UNL     1       4.359  -6.539   7.902  0.00  0.00    +0.085 C 
ATOM     18  C   UNL     1       3.137  -7.426   8.147  0.00  0.00    +0.017 C 
ATOM     19  C   UNL     1       3.382  -8.806   7.529  0.00  0.00    +0.003 C 
ATOM     20  C   UNL     1       3.688  -8.639   6.038  0.00  0.00    +0.017 C 
ATOM     21  C   UNL     1       4.890  -7.707   5.871  0.00  0.00    +0.085 C 
ATOM     22  H   UNL     1       3.752  -6.022   6.026  0.00  0.00    +0.126 HD
ENDBRANCH  15  16
ENDBRANCH   9  10
ENDBRANCH   3   8
BRANCH   4  23
ATOM     23  O   UNL     1       1.795  -3.607   5.421  0.00  0.00    -0.505 OA
ATOM     24  H   UNL     1       2.019  -2.893   6.034  0.00  0.00    +0.292 HD
ENDBRANCH   4  23
BRANCH   1  25
ATOM     25  C   UNL     1       1.258  -1.945   0.056  0.00  0.00    +0.071 C 
BRANCH  25  30
ATOM     26  C   UNL     1       0.696   1.785  -0.084  0.00  0.00    +0.000 A 
ATOM     27  C   UNL     1       1.989   2.256  -0.214  0.00  0.00    +0.001 A 
ATOM     28  C   UNL     1       3.047   1.367  -0.258  0.00  0.00    +0.020 A 
ATOM     29  C   UNL     1       2.811   0.006  -0.170  0.00  0.00    +0.044 A 
ATOM     30  C   UNL     1       1.516  -0.464  -0.039  0.00  0.00    -0.025 A 
ATOM     31  C   UNL     1       0.459   0.426   0.003  0.00  0.00    +0.005 A 
ATOM     32 CL   UNL     1       4.138  -1.111  -0.224  0.00  0.00    -0.083 Cl
ENDBRANCH  25  30
ENDBRANCH   1  25
TORSDOF 6
