REMARK  Name = ZINC09067136
REMARK  10 active torsions:
REMARK  status: ('A' for Active; 'I' for Inactive)
REMARK    1  A    between atoms: C_1  and  C_2
REMARK    2  A    between atoms: C_2  and  C_3
REMARK    3  A    between atoms: C_3  and  C_4
REMARK    4  A    between atoms: C_4  and  C_5
REMARK    5  A    between atoms: C_5  and  C_27
REMARK    6  A    between atoms: N_8  and  C_12
REMARK    7  A    between atoms: C_12  and  C_13
REMARK    8  A    between atoms: N_18  and  C_19
REMARK    9  A    between atoms: C_22  and  C_26
REMARK   10  A    between atoms: C_24  and  C_25
REMARK                            x       y       z     vdW  Elec       q    Type
REMARK                         _______ _______ _______ _____ _____    ______ ____
ROOT
ATOM      1  C   UNL     1      -0.734   3.534   1.306  0.00  0.00    +0.138 C 
ATOM      2  C   UNL     1       0.676   4.084   1.221  0.00  0.00    +0.251 C 
ATOM      3  O   UNL     1       1.579   3.909   2.011  0.00  0.00    -0.272 OA
ATOM      4  N   UNL     1       0.718   4.807   0.085  0.00  0.00    -0.215 N 
ATOM      5  C   UNL     1      -0.457   4.791  -0.554  0.00  0.00    +0.310 C 
ATOM      6  O   UNL     1      -0.665   5.372  -1.601  0.00  0.00    -0.252 OA
ATOM      7  N   UNL     1      -1.387   4.061   0.095  0.00  0.00    -0.281 N 
ATOM      8  H   UNL     1      -2.305   3.911  -0.180  0.00  0.00    +0.152 HD
ENDROOT
BRANCH   1   9
ATOM      9  C   UNL     1      -1.426   4.040   2.545  0.00  0.00    -0.015 A 
ATOM     10  C   UNL     1      -1.392   3.293   3.708  0.00  0.00    +0.009 A 
ATOM     11  C   UNL     1      -2.023   3.758   4.847  0.00  0.00    +0.039 A 
ATOM     12  C   UNL     1      -2.698   4.966   4.819  0.00  0.00    +0.123 A 
ATOM     13  C   UNL     1      -2.736   5.711   3.652  0.00  0.00    +0.039 A 
ATOM     14  C   UNL     1      -2.100   5.247   2.516  0.00  0.00    +0.009 A 
ATOM     15  F   UNL     1      -3.319   5.419   5.930  0.00  0.00    -0.205 F 
ENDBRANCH   1   9
BRANCH   1  16
ATOM     16  C   UNL     1      -0.717   2.005   1.286  0.00  0.00    +0.040 C 
BRANCH  16  17
ATOM     17  C   UNL     1      -0.010   1.518   0.019  0.00  0.00    +0.003 C 
BRANCH  17  19
ATOM     18  C   UNL     1       0.715  -0.497  -1.267  0.00  0.00    +0.004 C 
ATOM     19  C   UNL     1       0.007  -0.011  -0.000  0.00  0.00    -0.003 C 
ENDBRANCH  17  19
ENDBRANCH  16  17
ENDBRANCH   1  16
BRANCH   4  20
ATOM     20  C   UNL     1       1.904   5.524  -0.392  0.00  0.00    +0.214 C 
BRANCH  20  21
ATOM     21  C   UNL     1       2.719   4.614  -1.276  0.00  0.00    +0.238 C 
ATOM     22  O   UNL     1       2.345   3.480  -1.486  0.00  0.00    -0.274 OA
ATOM     23  N   UNL     1       3.862   5.062  -1.831  0.00  0.00    -0.239 N 
ATOM     24  C   UNL     1       4.590   4.249  -2.622  0.00  0.00    +0.310 C 
ATOM     25  O   UNL     1       4.216   3.112  -2.833  0.00  0.00    -0.252 OA
ATOM     26  N   UNL     1       5.733   4.696  -3.178  0.00  0.00    -0.269 N 
ATOM     27  H   UNL     1       4.160   5.969  -1.663  0.00  0.00    +0.159 HD
ATOM     28  H   UNL     1       5.990   5.626  -3.077  0.00  0.00    +0.156 HD
BRANCH  26  29
ATOM     29  C   UNL     1       6.550   3.819  -3.901  0.00  0.00    +0.038 A 
ATOM     30  C   UNL     1       6.505   2.455  -3.644  0.00  0.00    +0.024 A 
ATOM     31  C   UNL     1       7.309   1.592  -4.363  0.00  0.00    +0.005 A 
ATOM     32  C   UNL     1       8.165   2.086  -5.330  0.00  0.00    -0.050 A 
ATOM     33  C   UNL     1       8.215   3.444  -5.585  0.00  0.00    +0.008 A 
ATOM     34  C   UNL     1       7.410   4.312  -4.873  0.00  0.00    -0.029 A 
ATOM     35  C   UNL     1       7.466   5.792  -5.151  0.00  0.00    +0.045 C 
ATOM     36  C   UNL     1       9.044   1.142  -6.109  0.00  0.00    +0.044 C 
ENDBRANCH  26  29
ENDBRANCH  20  21
ENDBRANCH   4  20
TORSDOF 7
