REMARK  Name = ZINC12643544
REMARK  3 active torsions:
REMARK  status: ('A' for Active; 'I' for Inactive)
REMARK    1  A    between atoms: C_8  and  S_13
REMARK    2  A    between atoms: C_10  and  O_12
REMARK    3  A    between atoms: S_13  and  C_14
REMARK                            x       y       z     vdW  Elec       q    Type
REMARK                         _______ _______ _______ _____ _____    ______ ____
ROOT
ATOM      1  C   UNL     1       2.968  -5.106   0.147  0.00  0.00    +0.198 A 
ATOM      2  N   UNL     1       2.002  -5.123   1.034  0.00  0.00    -0.120 NA
ATOM      3  N   UNL     1       1.637  -6.457   1.252  0.00  0.00    -0.110 NA
ATOM      4  C   UNL     1       2.393  -7.215   0.491  0.00  0.00    +0.235 A 
ATOM      5  N   UNL     1       3.231  -6.399  -0.216  0.00  0.00    -0.255 N 
ATOM      6  C   UNL     1       4.033  -7.198  -1.034  0.00  0.00    +0.075 A 
ATOM      7  C   UNL     1       5.040  -6.901  -1.941  0.00  0.00    +0.028 A 
ATOM      8  C   UNL     1       5.675  -7.920  -2.623  0.00  0.00    +0.002 A 
ATOM      9  C   UNL     1       5.311  -9.238  -2.407  0.00  0.00    +0.002 A 
ATOM     10  C   UNL     1       4.310  -9.544  -1.507  0.00  0.00    +0.028 A 
ATOM     11  C   UNL     1       3.666  -8.526  -0.816  0.00  0.00    +0.066 A 
ATOM     12  N   UNL     1       2.652  -8.528   0.137  0.00  0.00    -0.322 N 
ATOM     13  H   UNL     1       2.199  -9.312   0.485  0.00  0.00    +0.169 HD
ENDROOT
BRANCH   1  14
ATOM     14  S   UNL     1       3.779  -3.670  -0.473  0.00  0.00    -0.079 S 
BRANCH  14  22
ATOM     15  C   UNL     1      -0.017   1.377   0.010  0.00  0.00    +0.000 A 
ATOM     16  C   UNL     1       1.172   2.083   0.002  0.00  0.00    +0.000 A 
ATOM     17  C   UNL     1       2.376   1.406  -0.013  0.00  0.00    +0.006 A 
ATOM     18  C   UNL     1       2.396   0.021  -0.021  0.00  0.00    -0.015 A 
ATOM     19  C   UNL     1       1.208  -0.685  -0.014  0.00  0.00    -0.041 A 
ATOM     20  C   UNL     1       0.002  -0.004   0.002  0.00  0.00    +0.004 A 
ATOM     21  C   UNL     1       1.496  -2.171  -0.025  0.00  0.00    +0.053 C 
ATOM     22  C   UNL     1       2.974  -2.299   0.400  0.00  0.00    +0.092 C 
ATOM     23  C   UNL     1       3.564  -0.942  -0.038  0.00  0.00    +0.158 C 
BRANCH  23  24
ATOM     24  O   UNL     1       4.107  -1.040  -1.357  0.00  0.00    -0.386 OA
ATOM     25  H   UNL     1       4.454  -0.206  -1.702  0.00  0.00    +0.210 HD
ENDBRANCH  23  24
ENDBRANCH  14  22
ENDBRANCH   1  14
TORSDOF 3
