REMARK  Name = ZINC51118146
REMARK  7 active torsions:
REMARK  status: ('A' for Active; 'I' for Inactive)
REMARK    1  A    between atoms: C_1  and  C_2
REMARK    2  A    between atoms: C_4  and  C_21
REMARK    3  A    between atoms: C_6  and  N_8
REMARK    4  A    between atoms: N_8  and  C_9
REMARK    5  A    between atoms: C_10  and  C_12
REMARK    6  A    between atoms: C_14  and  N_19
REMARK    7  A    between atoms: N_19  and  N_20
REMARK                            x       y       z     vdW  Elec       q    Type
REMARK                         _______ _______ _______ _____ _____    ______ ____
ROOT
ATOM      1  N   UNL     1      -0.440  -2.726   2.416  0.00  0.00    -0.270 N 
ATOM      2  C   UNL     1      -1.063  -4.043   2.571  0.00  0.00    +0.138 C 
ATOM      3  C   UNL     1      -0.046  -2.035   3.504  0.00  0.00    +0.251 C 
ATOM      4  O   UNL     1       0.363  -0.897   3.386  0.00  0.00    -0.270 OA
ENDROOT
BRANCH   1  10
ATOM      5  C   UNL     1       1.431   0.797  -0.457  0.00  0.00    +0.044 C 
ATOM      6  C   UNL     1       0.647  -0.478  -0.282  0.00  0.00    -0.048 A 
ATOM      7  C   UNL     1       0.109  -1.115  -1.385  0.00  0.00    +0.006 A 
ATOM      8  C   UNL     1      -0.610  -2.286  -1.230  0.00  0.00    -0.048 A 
ATOM      9  C   UNL     1      -0.794  -2.823   0.030  0.00  0.00    +0.027 A 
ATOM     10  C   UNL     1      -0.256  -2.186   1.140  0.00  0.00    +0.037 A 
ATOM     11  C   UNL     1       0.471  -1.013   0.979  0.00  0.00    +0.027 A 
ATOM     12  C   UNL     1      -1.195  -2.977  -2.435  0.00  0.00    +0.044 C 
ENDBRANCH   1  10
BRANCH   3  13
ATOM     13  C   UNL     1      -0.111  -2.663   4.844  0.00  0.00    +0.043 A 
ATOM     14  C   UNL     1      -0.130  -1.883   6.001  0.00  0.00    +0.057 A 
ATOM     15  C   UNL     1      -0.192  -2.514   7.238  0.00  0.00    +0.134 A 
ATOM     16  N   UNL     1      -0.231  -3.835   7.323  0.00  0.00    -0.220 NA
ATOM     17  C   UNL     1      -0.214  -4.604   6.250  0.00  0.00    +0.132 A 
ATOM     18  C   UNL     1      -0.159  -4.055   4.983  0.00  0.00    +0.053 A 
ATOM     19 CL   UNL     1      -0.267  -6.329   6.434  0.00  0.00    -0.062 Cl
BRANCH  15  20
ATOM     20  N   UNL     1      -0.212  -1.750   8.400  0.00  0.00    -0.267 N 
ATOM     21  H   UNL     1      -0.184  -0.782   8.344  0.00  0.00    +0.167 HD
BRANCH  20  22
ATOM     22  N   UNL     1      -0.273  -2.363   9.619  0.00  0.00    -0.255 NA
ATOM     23  H   UNL     1       0.487  -3.016   9.734  0.00  0.00    +0.140 HD
ATOM     24  H   UNL     1      -0.281  -1.683  10.365  0.00  0.00    +0.140 HD
ENDBRANCH  20  22
ENDBRANCH  15  20
ENDBRANCH   3  13
TORSDOF 4
