REMARK  Name = ZINC08926999
REMARK  10 active torsions:
REMARK  status: ('A' for Active; 'I' for Inactive)
REMARK    1  A    between atoms: C_1  and  C_2
REMARK    2  A    between atoms: C_2  and  C_3
REMARK    3  A    between atoms: C_3  and  C_4
REMARK    4  A    between atoms: C_9  and  C_25
REMARK    5  A    between atoms: C_10  and  C_14
REMARK    6  A    between atoms: N_16  and  C_17
REMARK    7  A    between atoms: C_22  and  C_23
REMARK    8  A    between atoms: N_27  and  C_28
REMARK    9  A    between atoms: C_30  and  C_35
REMARK   10  A    between atoms: C_32  and  C_34
REMARK                            x       y       z     vdW  Elec       q    Type
REMARK                         _______ _______ _______ _____ _____    ______ ____
ROOT
ATOM      1  C   UNL     1      -7.155  -2.870   1.590  0.00  0.00    +0.049 A 
ATOM      2  C   UNL     1      -6.161  -3.804   1.692  0.00  0.00    +0.094 A 
ATOM      3  C   UNL     1      -4.926  -3.573   1.084  0.00  0.00    +0.260 A 
ATOM      4  O   UNL     1      -4.036  -4.404   1.173  0.00  0.00    -0.267 OA
ATOM      5  N   UNL     1      -4.715  -2.416   0.387  0.00  0.00    -0.249 N 
ATOM      6  C   UNL     1      -3.558  -2.051  -0.261  0.00  0.00    +0.133 A 
ATOM      7  C   UNL     1      -3.490  -0.856  -0.921  0.00  0.00    +0.106 A 
ATOM      8  S   UNL     1      -5.118  -0.185  -0.626  0.00  0.00    -0.044 S 
ATOM      9  C   UNL     1      -5.763  -1.537   0.335  0.00  0.00    +0.182 A 
ATOM     10  N   UNL     1      -6.922  -1.752   0.906  0.00  0.00    -0.227 NA
ENDROOT
BRANCH   7  11
ATOM     11  C   UNL     1      -2.364  -0.271  -1.674  0.00  0.00    +0.257 C 
ATOM     12  O   UNL     1      -1.345  -0.914  -1.841  0.00  0.00    -0.269 OA
ATOM     13  N   UNL     1      -2.465   0.975  -2.178  0.00  0.00    -0.281 N 
ATOM     14  H   UNL     1      -3.239   1.521  -1.969  0.00  0.00    +0.155 HD
BRANCH  13  15
ATOM     15  C   UNL     1      -1.454   1.480  -3.001  0.00  0.00    +0.037 A 
ATOM     16  C   UNL     1      -0.563   0.614  -3.622  0.00  0.00    +0.025 A 
ATOM     17  C   UNL     1       0.431   1.115  -4.439  0.00  0.00    +0.022 A 
ATOM     18  C   UNL     1       0.543   2.481  -4.635  0.00  0.00    +0.041 A 
ATOM     19  C   UNL     1      -0.339   3.347  -4.013  0.00  0.00    +0.025 A 
ATOM     20  C   UNL     1      -1.335   2.850  -3.195  0.00  0.00    -0.028 A 
ATOM     21  C   UNL     1      -2.295   3.795  -2.518  0.00  0.00    +0.046 C 
ATOM     22 CL   UNL     1       1.794   3.108  -5.663  0.00  0.00    -0.084 Cl
ENDBRANCH  13  15
ENDBRANCH   7  11
BRANCH   6  23
ATOM     23  C   UNL     1      -2.392  -2.949  -0.245  0.00  0.00    +0.266 C 
ATOM     24  O   UNL     1      -1.608  -2.911   0.684  0.00  0.00    -0.268 OA
ATOM     25  N   UNL     1      -2.193  -3.813  -1.260  0.00  0.00    -0.280 N 
ATOM     26  H   UNL     1      -2.755  -3.772  -2.049  0.00  0.00    +0.155 HD
BRANCH  25  27
ATOM     27  C   UNL     1      -1.176  -4.769  -1.175  0.00  0.00    +0.034 A 
ATOM     28  C   UNL     1      -0.804  -5.282   0.062  0.00  0.00    +0.026 A 
ATOM     29  C   UNL     1       0.197  -6.230   0.141  0.00  0.00    -0.048 A 
ATOM     30  C   UNL     1       0.837  -6.660  -1.006  0.00  0.00    +0.006 A 
ATOM     31  C   UNL     1       0.474  -6.147  -2.238  0.00  0.00    -0.048 A 
ATOM     32  C   UNL     1      -0.531  -5.203  -2.325  0.00  0.00    +0.026 A 
ATOM     33  C   UNL     1       1.174  -6.619  -3.486  0.00  0.00    +0.044 C 
ATOM     34  C   UNL     1       0.596  -6.792   1.482  0.00  0.00    +0.044 C 
ENDBRANCH  25  27
ENDBRANCH   6  23
BRANCH   1  35
ATOM     35  C   UNL     1      -8.494  -3.103   2.241  0.00  0.00    +0.055 C 
BRANCH  35  37
ATOM     36  C   UNL     1      -9.874  -2.672   4.279  0.00  0.00    +0.004 C 
ATOM     37  C   UNL     1      -8.514  -2.436   3.618  0.00  0.00    +0.003 C 
ENDBRANCH  35  37
ENDBRANCH   1  35
TORSDOF 6
