REMARK  Name = ZINC36504533
REMARK  17 active torsions:
REMARK  status: ('A' for Active; 'I' for Inactive)
REMARK    1  A    between atoms: C_1  and  C_2
REMARK    2  A    between atoms: C_2  and  C_3
REMARK    3  A    between atoms: C_2  and  C_4
REMARK    4  A    between atoms: C_2  and  C_5
REMARK    5  A    between atoms: C_5  and  C_6
REMARK    6  A    between atoms: C_6  and  C_7
REMARK    7  A    between atoms: C_6  and  C_8
REMARK    8  A    between atoms: C_6  and  N_9
REMARK    9  A    between atoms: C_10  and  C_12
REMARK   10  A    between atoms: C_12  and  C_14
REMARK   11  A    between atoms: C_12  and  N_23
REMARK   12  A    between atoms: C_15  and  O_22
REMARK   13  A    between atoms: C_17  and  O_21
REMARK   14  A    between atoms: C_19  and  O_20
REMARK   15  A    between atoms: N_23  and  C_24
REMARK   16  A    between atoms: C_24  and  C_25
REMARK   17  A    between atoms: C_30  and  C_32
REMARK                            x       y       z     vdW  Elec       q    Type
REMARK                         _______ _______ _______ _____ _____    ______ ____
ROOT
ATOM      1  C   UNL     1       5.243  -0.075  -4.478  0.00  0.00    +0.200 C 
ENDROOT
BRANCH   1   2
ATOM      2  C   UNL     1       4.469   0.654  -5.546  0.00  0.00    +0.065 A 
ATOM      3  C   UNL     1       3.578  -0.038  -6.352  0.00  0.00    +0.129 A 
ATOM      4  C   UNL     1       2.866   0.632  -7.335  0.00  0.00    +0.091 A 
ATOM      5  C   UNL     1       3.045   1.996  -7.511  0.00  0.00    +0.124 A 
ATOM      6  C   UNL     1       3.935   2.689  -6.705  0.00  0.00    +0.091 A 
ATOM      7  C   UNL     1       4.644   2.019  -5.719  0.00  0.00    +0.129 A 
BRANCH   7   8
ATOM      8  O   UNL     1       5.513   2.699  -4.926  0.00  0.00    -0.506 OA
ATOM      9  H   UNL     1       6.414   2.739  -5.274  0.00  0.00    +0.292 HD
ENDBRANCH   7   8
BRANCH   5  10
ATOM     10  O   UNL     1       2.348   2.654  -8.475  0.00  0.00    -0.507 OA
ATOM     11  H   UNL     1       1.497   3.004  -8.176  0.00  0.00    +0.292 HD
ENDBRANCH   5  10
BRANCH   3  12
ATOM     12  O   UNL     1       3.403  -1.375  -6.178  0.00  0.00    -0.506 OA
ATOM     13  H   UNL     1       2.656  -1.603  -5.609  0.00  0.00    +0.292 HD
ENDBRANCH   3  12
ENDBRANCH   1   2
BRANCH   1  15
ATOM     14  N   UNL     1       3.417  -0.118  -2.810  0.00  0.00    -0.308 N 
ATOM     15  C   UNL     1       4.671   0.262  -3.125  0.00  0.00    +0.239 C 
ATOM     16  O   UNL     1       5.340   0.875  -2.320  0.00  0.00    -0.273 OA
ATOM     17  H   UNL     1       2.883  -0.608  -3.454  0.00  0.00    +0.149 HD
BRANCH  14  18
ATOM     18  C   UNL     1       2.862   0.210  -1.494  0.00  0.00    +0.030 C 
ATOM     19  C   UNL     1       3.171   1.670  -1.159  0.00  0.00    +0.031 C 
ATOM     20  C   UNL     1       3.487  -0.700  -0.435  0.00  0.00    +0.031 C 
BRANCH  18  21
ATOM     21  C   UNL     1       1.346   0.001  -1.515  0.00  0.00    +0.031 C 
BRANCH  21  23
ATOM     22  C   UNL     1       0.937  -0.360  -3.953  0.00  0.00    +0.010 C 
ATOM     23  C   UNL     1       0.763   0.617  -2.788  0.00  0.00    -0.036 C 
ATOM     24  C   UNL     1       1.496   1.922  -3.105  0.00  0.00    +0.010 C 
ATOM     25  C   UNL     1      -0.725   0.904  -2.581  0.00  0.00    +0.010 C 
ENDBRANCH  21  23
ENDBRANCH  18  21
ENDBRANCH  14  18
ENDBRANCH   1  15
BRANCH   1  26
ATOM     26  N   UNL     1       6.649   0.333  -4.529  0.00  0.00    -0.277 N 
ATOM     27  C   UNL     1       7.404   0.019  -5.601  0.00  0.00    +0.237 C 
ATOM     28  O   UNL     1       6.918  -0.602  -6.523  0.00  0.00    -0.274 OA
BRANCH  27  29
ATOM     29  C   UNL     1       8.850   0.438  -5.654  0.00  0.00    +0.159 C 
ATOM     30  C   UNL     1       8.963   1.912  -6.102  0.00  0.00    +0.041 C 
ATOM     31  C   UNL     1       9.157   1.763  -7.629  0.00  0.00    +0.098 C 
ATOM     32  C   UNL     1       9.748   0.381  -7.795  0.00  0.00    +0.214 C 
ATOM     33  O   UNL     1      10.305  -0.021  -8.795  0.00  0.00    -0.276 OA
ATOM     34  N   UNL     1       9.567  -0.339  -6.671  0.00  0.00    -0.304 N 
ATOM     35  H   UNL     1       9.872  -1.251  -6.549  0.00  0.00    +0.149 HD
ENDBRANCH  27  29
BRANCH  26  36
ATOM     36  C   UNL     1       7.236   1.083  -3.416  0.00  0.00    +0.183 C 
BRANCH  36  37
ATOM     37  C   UNL     1       7.679   0.123  -2.342  0.00  0.00    +0.122 A 
ATOM     38  C   UNL     1       8.920  -0.375  -2.196  0.00  0.00    +0.046 A 
ATOM     39  C   UNL     1       8.889  -1.228  -1.069  0.00  0.00    +0.041 A 
ATOM     40  C   UNL     1       7.630  -1.200  -0.594  0.00  0.00    +0.195 A 
ATOM     41  O   UNL     1       6.904  -0.376  -1.365  0.00  0.00    -0.466 OA
ENDBRANCH  36  37
ENDBRANCH  26  36
ENDBRANCH   1  26
TORSDOF 12
