REMARK  Name = ZINC31054723
REMARK  5 active torsions:
REMARK  status: ('A' for Active; 'I' for Inactive)
REMARK    1  A    between atoms: C_3  and  C_9
REMARK    2  A    between atoms: C_11  and  C_14
REMARK    3  A    between atoms: C_14  and  N_15
REMARK    4  A    between atoms: C_19  and  C_22
REMARK    5  A    between atoms: N_24  and  C_25
REMARK                            x       y       z     vdW  Elec       q    Type
REMARK                         _______ _______ _______ _____ _____    ______ ____
ROOT
ATOM      1  N   UNL     1      -4.921   1.080   0.010  0.00  0.00    +0.386 N 
ATOM      2  C   UNL     1      -5.040   0.272  -1.211  0.00  0.00    -0.078 C 
ATOM      3  C   UNL     1      -3.904  -0.752  -1.259  0.00  0.00    -0.018 C 
ATOM      4  C   UNL     1      -2.560  -0.018  -1.238  0.00  0.00    +0.009 C 
ATOM      5  C   UNL     1      -2.482   0.853   0.018  0.00  0.00    +0.058 C 
ATOM      6  C   UNL     1      -3.659   1.831   0.029  0.00  0.00    -0.065 C 
ATOM      7  H   UNL     1      -4.915   0.392   0.868  0.00  0.00    -0.081 HD
ENDROOT
BRANCH   5   8
ATOM      8  C   UNL     1      -1.187   1.624   0.017  0.00  0.00    +0.215 C 
ATOM      9  O   UNL     1      -1.204   2.837   0.023  0.00  0.00    -0.276 OA
ATOM     10  N   UNL     1      -0.011   0.966   0.007  0.00  0.00    -0.312 N 
ATOM     11  H   UNL     1       0.004  -0.134   0.006  0.00  0.00    +0.149 HD
BRANCH  10  12
ATOM     12  C   UNL     1       1.248   1.716  -0.001  0.00  0.00    +0.076 C 
ATOM     13  C   UNL     1       1.694   2.004  -1.452  0.00  0.00    +0.026 C 
ATOM     14  C   UNL     1       3.072   1.288  -1.591  0.00  0.00    -0.009 C 
ATOM     15  C   UNL     1       4.040   2.131  -0.706  0.00  0.00    +0.004 C 
ATOM     16  C   UNL     1       3.594   1.842   0.746  0.00  0.00    +0.005 C 
ATOM     17  C   UNL     1       2.398   0.852   0.601  0.00  0.00    +0.010 C 
ATOM     18  C   UNL     1       2.845   0.041  -0.665  0.00  0.00    +0.009 C 
ENDBRANCH  10  12
ENDBRANCH   5   8
BRANCH   1  19
ATOM     19  C   UNL     1      -6.072   1.980   0.159  0.00  0.00    +0.022 C 
BRANCH  19  22
ATOM     20  C   UNL     1      -8.925   0.084   1.247  0.00  0.00    +0.203 A 
ATOM     21  N   UNL     1      -7.801   0.778   1.536  0.00  0.00    -0.193 NA
ATOM     22  C   UNL     1      -7.321   1.167   0.381  0.00  0.00    +0.211 A 
ATOM     23  O   UNL     1      -8.144   0.703  -0.564  0.00  0.00    -0.340 OA
ATOM     24  N   UNL     1      -9.056   0.086  -0.055  0.00  0.00    -0.056 NA
BRANCH  20  27
ATOM     25  C   UNL     1     -10.420  -1.086   4.492  0.00  0.00    +0.021 A 
ATOM     26  C   UNL     1      -9.567  -0.487   3.587  0.00  0.00    +0.014 A 
ATOM     27  C   UNL     1      -9.837  -0.563   2.223  0.00  0.00    +0.041 A 
ATOM     28  C   UNL     1     -10.963  -1.253   1.777  0.00  0.00    +0.053 A 
ATOM     29  C   UNL     1     -11.808  -1.853   2.689  0.00  0.00    +0.040 A 
ATOM     30  C   UNL     1     -11.538  -1.770   4.045  0.00  0.00    +0.042 A 
ATOM     31 CL   UNL     1     -12.603  -2.527   5.187  0.00  0.00    -0.083 Cl
ATOM     32 CL   UNL     1     -11.303  -1.359   0.077  0.00  0.00    -0.083 Cl
ENDBRANCH  20  27
ENDBRANCH  19  22
ENDBRANCH   1  19
TORSDOF 5
