REMARK  Name = ZINC03154848
REMARK  11 active torsions:
REMARK  status: ('A' for Active; 'I' for Inactive)
REMARK    1  A    between atoms: C_1  and  C_2
REMARK    2  A    between atoms: C_7  and  N_8
REMARK    3  A    between atoms: C_13  and  C_14
REMARK    4  A    between atoms: C_13  and  C_15
REMARK    5  A    between atoms: N_16  and  C_17
REMARK    6  A    between atoms: C_17  and  C_19
REMARK    7  A    between atoms: C_17  and  C_29
REMARK    8  A    between atoms: C_20  and  C_21
REMARK    9  A    between atoms: C_29  and  C_30
REMARK   10  A    between atoms: C_29  and  C_31
REMARK   11  A    between atoms: C_29  and  C_32
REMARK                            x       y       z     vdW  Elec       q    Type
REMARK                         _______ _______ _______ _____ _____    ______ ____
ROOT
ATOM      1  N   UNL     1       2.354   3.889   0.001  0.00  0.00    -0.269 N 
ATOM      2  C   UNL     1       3.058   4.305   1.071  0.00  0.00    +0.163 C 
ATOM      3  S   UNL     1       2.589   4.018   2.693  0.00  0.00    -0.016 S 
ATOM      4  N   UNL     1       4.166   4.964   0.721  0.00  0.00    -0.180 NA
ATOM      5  C   UNL     1       4.303   5.060  -0.577  0.00  0.00    +0.111 C 
ATOM      6  C   UNL     1       3.106   4.351  -1.180  0.00  0.00    +0.089 C 
ATOM      7  C   UNL     1       3.557   3.163  -2.032  0.00  0.00    +0.040 C 
ATOM      8  C   UNL     1       2.263   5.320  -2.011  0.00  0.00    +0.040 C 
ATOM      9  N   UNL     1       5.312   5.671  -1.248  0.00  0.00    -0.326 N 
ATOM     10  H   UNL     1       5.313   5.683  -2.218  0.00  0.00    +0.148 HD
ENDROOT
BRANCH   1  17
ATOM     11  C   UNL     1      -0.086   5.351   0.032  0.00  0.00    +0.045 C 
ATOM     12  C   UNL     1      -0.060   3.845   0.023  0.00  0.00    -0.029 A 
ATOM     13  C   UNL     1      -1.243   3.133   0.031  0.00  0.00    +0.005 A 
ATOM     14  C   UNL     1      -1.220   1.750   0.017  0.00  0.00    +0.000 A 
ATOM     15  C   UNL     1      -0.013   1.076   0.008  0.00  0.00    +0.002 A 
ATOM     16  C   UNL     1       1.174   1.782   0.000  0.00  0.00    +0.024 A 
ATOM     17  C   UNL     1       1.155   3.171   0.008  0.00  0.00    +0.039 A 
ENDBRANCH   1  17
BRANCH   9  18
ATOM     18  C   UNL     1       6.401   6.314  -0.507  0.00  0.00    +0.100 C 
BRANCH  18  19
ATOM     19  C   UNL     1       7.463   5.271  -0.154  0.00  0.00    -0.016 C 
ATOM     20  C   UNL     1       8.017   4.652  -1.439  0.00  0.00    +0.013 C 
ATOM     21  C   UNL     1       8.599   5.943   0.620  0.00  0.00    +0.013 C 
ATOM     22  C   UNL     1       6.835   4.176   0.710  0.00  0.00    +0.013 C 
ENDBRANCH  18  19
BRANCH  18  23
ATOM     23  C   UNL     1       7.019   7.393  -1.358  0.00  0.00    -0.004 C 
ATOM     24  C   UNL     1       7.017   8.651  -0.939  0.00  0.00    +0.007 C 
BRANCH  24  25
ATOM     25  C   UNL     1       7.623   9.709  -1.774  0.00  0.00    -0.007 A 
ATOM     26  C   UNL     1       8.204   9.386  -3.001  0.00  0.00    +0.011 A 
ATOM     27  C   UNL     1       8.764  10.379  -3.778  0.00  0.00    +0.020 A 
ATOM     28  C   UNL     1       8.761  11.692  -3.338  0.00  0.00    +0.042 A 
ATOM     29  C   UNL     1       8.191  12.018  -2.120  0.00  0.00    +0.040 A 
ATOM     30  C   UNL     1       7.622  11.035  -1.335  0.00  0.00    +0.049 A 
ATOM     31 CL   UNL     1       6.908  11.445   0.193  0.00  0.00    -0.083 Cl
ATOM     32 CL   UNL     1       9.475  12.934  -4.319  0.00  0.00    -0.083 Cl
ENDBRANCH  24  25
ENDBRANCH  18  23
ENDBRANCH   9  18
TORSDOF 5
