REMARK  Name = ZINC15007071
REMARK  7 active torsions:
REMARK  status: ('A' for Active; 'I' for Inactive)
REMARK    1  A    between atoms: C_1  and  C_2
REMARK    2  A    between atoms: C_7  and  C_19
REMARK    3  A    between atoms: C_15  and  O_18
REMARK    4  A    between atoms: C_19  and  N_20
REMARK    5  A    between atoms: N_20  and  C_21
REMARK    6  A    between atoms: C_21  and  C_22
REMARK    7  A    between atoms: C_27  and  C_29
REMARK                            x       y       z     vdW  Elec       q    Type
REMARK                         _______ _______ _______ _____ _____    ______ ____
ROOT
ATOM      1  C   UNL     1       1.465  11.941  -0.636  0.00  0.00    +0.044 C 
ATOM      2  C   UNL     1       2.335  10.739  -0.371  0.00  0.00    -0.048 A 
ATOM      3  C   UNL     1       3.641  10.924   0.078  0.00  0.00    +0.004 A 
ATOM      4  C   UNL     1       4.451   9.858   0.326  0.00  0.00    +0.010 A 
ATOM      5  C   UNL     1       3.967   8.556   0.126  0.00  0.00    -0.001 A 
ATOM      6  C   UNL     1       4.777   7.428   0.372  0.00  0.00    +0.018 A 
ATOM      7  C   UNL     1       4.244   6.193   0.162  0.00  0.00    +0.008 A 
ATOM      8  C   UNL     1       2.924   6.070  -0.297  0.00  0.00    +0.104 A 
ATOM      9  C   UNL     1       2.640   8.366  -0.331  0.00  0.00    +0.048 A 
ATOM     10  C   UNL     1       1.833   9.490  -0.575  0.00  0.00    +0.029 A 
ATOM     11  N   UNL     1       2.397   4.805  -0.511  0.00  0.00    -0.314 N 
ATOM     12  C   UNL     1       1.592   4.369   0.637  0.00  0.00    +0.106 C 
ATOM     13  C   UNL     1       1.148   2.920   0.429  0.00  0.00    +0.021 C 
ATOM     14  C   UNL     1       0.328   2.821  -0.860  0.00  0.00    +0.034 C 
ATOM     15  C   UNL     1       1.172   3.327  -2.033  0.00  0.00    +0.132 C 
ATOM     16  C   UNL     1       1.615   4.765  -1.754  0.00  0.00    +0.137 C 
ATOM     17  N   UNL     1       2.100   7.117  -0.549  0.00  0.00    -0.343 N 
ATOM     18  H   UNL     1       1.137   6.988  -0.881  0.00  0.00    +0.167 HD
ENDROOT
BRANCH  15  19
ATOM     19  O   UNL     1       0.394   3.291  -3.231  0.00  0.00    -0.390 OA
ATOM     20  H   UNL     1       0.078   2.409  -3.469  0.00  0.00    +0.210 HD
ENDBRANCH  15  19
BRANCH   7  21
ATOM     21  C   UNL     1       5.072   4.960   0.417  0.00  0.00    +0.146 C 
BRANCH  21  22
ATOM     22  N   UNL     1       5.686   4.516  -0.837  0.00  0.00    -0.289 N 
ATOM     23  C   UNL     1       5.108   3.537  -1.561  0.00  0.00    +0.219 C 
ATOM     24  O   UNL     1       4.042   3.075  -1.214  0.00  0.00    -0.275 OA
BRANCH  23  25
ATOM     25  C   UNL     1       5.787   3.015  -2.801  0.00  0.00    +0.075 C 
ATOM     26  C   UNL     1       5.654   4.044  -3.926  0.00  0.00    +0.013 C 
ATOM     27  C   UNL     1       6.343   3.514  -5.185  0.00  0.00    +0.001 C 
ATOM     28  C   UNL     1       5.685   2.202  -5.614  0.00  0.00    +0.000 C 
ATOM     29  C   UNL     1       5.818   1.173  -4.489  0.00  0.00    +0.001 C 
ATOM     30  C   UNL     1       5.128   1.703  -3.229  0.00  0.00    +0.013 C 
ENDBRANCH  23  25
BRANCH  22  31
ATOM     31  C   UNL     1       6.928   5.137  -1.305  0.00  0.00    +0.182 C 
BRANCH  31  32
ATOM     32  C   UNL     1       8.106   4.433  -0.683  0.00  0.00    +0.122 A 
ATOM     33  C   UNL     1       8.751   3.372  -1.200  0.00  0.00    +0.046 A 
ATOM     34  C   UNL     1       9.785   3.039  -0.294  0.00  0.00    +0.041 A 
ATOM     35  C   UNL     1       9.709   3.917   0.723  0.00  0.00    +0.195 A 
ATOM     36  O   UNL     1       8.694   4.763   0.479  0.00  0.00    -0.466 OA
ENDBRANCH  31  32
ENDBRANCH  22  31
ENDBRANCH  21  22
ENDBRANCH   7  21
TORSDOF 6
