REMARK  Name = ZINC12471442
REMARK  13 active torsions:
REMARK  status: ('A' for Active; 'I' for Inactive)
REMARK    1  A    between atoms: C_1  and  C_2
REMARK    2  A    between atoms: C_6  and  N_9
REMARK    3  A    between atoms: C_7  and  C_8
REMARK    4  A    between atoms: N_9  and  C_10
REMARK    5  A    between atoms: C_10  and  C_12
REMARK    6  A    between atoms: C_10  and  C_19
REMARK    7  A    between atoms: N_21  and  C_22
REMARK    8  A    between atoms: C_22  and  C_23
REMARK    9  A    between atoms: C_22  and  C_24
REMARK   10  A    between atoms: C_22  and  C_25
REMARK   11  A    between atoms: C_26  and  C_28
REMARK   12  A    between atoms: C_28  and  C_29
REMARK   13  A    between atoms: C_29  and  N_30
REMARK                            x       y       z     vdW  Elec       q    Type
REMARK                         _______ _______ _______ _____ _____    ______ ____
ROOT
ATOM      1  N   UNL     1       0.085   4.175   5.511  0.00  0.00    -0.255 N 
ATOM      2  C   UNL     1       0.498   3.550   4.390  0.00  0.00    +0.222 C 
ATOM      3  O   UNL     1       1.577   2.997   4.367  0.00  0.00    -0.275 OA
ENDROOT
BRANCH   1   9
ATOM      4  C   UNL     1      -2.574   8.283   5.037  0.00  0.00    +0.044 C 
ATOM      5  C   UNL     1      -2.478   6.804   5.311  0.00  0.00    -0.046 A 
ATOM      6  C   UNL     1      -3.620   6.077   5.591  0.00  0.00    +0.004 A 
ATOM      7  C   UNL     1      -3.536   4.721   5.844  0.00  0.00    +0.002 A 
ATOM      8  C   UNL     1      -2.309   4.086   5.812  0.00  0.00    +0.024 A 
ATOM      9  C   UNL     1      -1.159   4.814   5.538  0.00  0.00    +0.041 A 
ATOM     10  C   UNL     1      -1.248   6.176   5.284  0.00  0.00    -0.026 A 
ATOM     11  C   UNL     1      -0.003   6.969   4.979  0.00  0.00    +0.046 C 
ENDBRANCH   1   9
BRANCH   1  12
ATOM     12  C   UNL     1       0.939   4.185   6.701  0.00  0.00    +0.197 C 
BRANCH  12  13
ATOM     13  C   UNL     1       0.319   5.062   7.758  0.00  0.00    -0.018 A 
ATOM     14  C   UNL     1      -0.930   4.753   8.266  0.00  0.00    +0.009 A 
ATOM     15  C   UNL     1      -1.498   5.553   9.239  0.00  0.00    +0.038 A 
ATOM     16  C   UNL     1      -0.821   6.671   9.697  0.00  0.00    +0.123 A 
ATOM     17  C   UNL     1       0.426   6.983   9.183  0.00  0.00    +0.038 A 
ATOM     18  C   UNL     1       0.995   6.178   8.215  0.00  0.00    +0.009 A 
ATOM     19  F   UNL     1      -1.378   7.458  10.643  0.00  0.00    -0.205 F 
ENDBRANCH  12  13
BRANCH  12  20
ATOM     20  C   UNL     1       1.079   2.781   7.231  0.00  0.00    +0.239 C 
ATOM     21  O   UNL     1       0.519   1.863   6.670  0.00  0.00    -0.273 OA
ATOM     22  N   UNL     1       1.825   2.546   8.329  0.00  0.00    -0.309 N 
ATOM     23  H   UNL     1       2.272   3.281   8.778  0.00  0.00    +0.149 HD
BRANCH  22  24
ATOM     24  C   UNL     1       1.960   1.182   8.845  0.00  0.00    +0.026 C 
ATOM     25  C   UNL     1       2.591   0.292   7.772  0.00  0.00    +0.031 C 
ATOM     26  C   UNL     1       2.852   1.192  10.087  0.00  0.00    +0.031 C 
ATOM     27  C   UNL     1       0.579   0.636   9.213  0.00  0.00    +0.031 C 
ENDBRANCH  22  24
ENDBRANCH  12  20
ENDBRANCH   1  12
BRANCH   2  28
ATOM     28  C   UNL     1      -0.381   3.540   3.166  0.00  0.00    +0.115 C 
BRANCH  28  29
ATOM     29  C   UNL     1       0.318   2.770   2.043  0.00  0.00    +0.114 C 
BRANCH  29  30
ATOM     30  N   UNL     1      -0.487   2.854   0.818  0.00  0.00    -0.329 N 
ATOM     31  C   UNL     1      -0.533   4.241   0.307  0.00  0.00    +0.110 C 
ATOM     32  C   UNL     1      -1.921   4.312  -0.369  0.00  0.00    +0.056 C 
ATOM     33  C   UNL     1      -2.711   3.251   0.371  0.00  0.00    -0.025 A 
ATOM     34  C   UNL     1      -1.808   2.440   1.049  0.00  0.00    +0.033 A 
ATOM     35  C   UNL     1      -2.291   1.384   1.819  0.00  0.00    +0.023 A 
ATOM     36  C   UNL     1      -3.648   1.148   1.900  0.00  0.00    +0.002 A 
ATOM     37  C   UNL     1      -4.538   1.958   1.218  0.00  0.00    +0.000 A 
ATOM     38  C   UNL     1      -4.066   3.010   0.453  0.00  0.00    +0.005 A 
ENDBRANCH  29  30
ENDBRANCH  28  29
ENDBRANCH   2  28
TORSDOF 8
