REMARK  Name = ZINC27241674
REMARK  9 active torsions:
REMARK  status: ('A' for Active; 'I' for Inactive)
REMARK    1  A    between atoms: C_1  and  O_2
REMARK    2  A    between atoms: O_2  and  C_3
REMARK    3  A    between atoms: C_6  and  C_9
REMARK    4  A    between atoms: C_9  and  C_10
REMARK    5  A    between atoms: C_9  and  C_17
REMARK    6  A    between atoms: C_9  and  O_32
REMARK    7  A    between atoms: C_17  and  C_19
REMARK    8  A    between atoms: C_17  and  C_26
REMARK    9  A    between atoms: C_19  and  N_20
REMARK                            x       y       z     vdW  Elec       q    Type
REMARK                         _______ _______ _______ _____ _____    ______ ____
ROOT
ATOM      1  C   UNL     1      -1.652   2.628   0.093  0.00  0.00    +0.099 C 
ENDROOT
BRANCH   1   2
ATOM      2  C   UNL     1      -0.329   2.044   0.517  0.00  0.00    -0.015 A 
ATOM      3  C   UNL     1      -0.262   0.739   0.969  0.00  0.00    +0.007 A 
ATOM      4  C   UNL     1       0.950   0.205   1.364  0.00  0.00    +0.015 A 
ATOM      5  C   UNL     1       2.097   0.977   1.307  0.00  0.00    +0.018 A 
ATOM      6  C   UNL     1       2.030   2.283   0.855  0.00  0.00    +0.015 A 
ATOM      7  C   UNL     1       0.817   2.816   0.461  0.00  0.00    +0.007 A 
ATOM      8 BR   UNL     1       3.756   0.247   1.846  0.00  0.00    -0.050 Br
ENDBRANCH   1   2
BRANCH   1  12
ATOM      9  C   UNL     1      -2.865   6.386   1.863  0.00  0.00    +0.118 C 
ATOM     10  C   UNL     1      -3.066   6.199   0.358  0.00  0.00    +0.032 C 
ATOM     11  C   UNL     1      -3.035   4.707   0.020  0.00  0.00    +0.009 C 
ATOM     12  C   UNL     1      -1.683   4.120   0.431  0.00  0.00    +0.026 C 
ATOM     13  C   UNL     1      -1.482   4.306   1.936  0.00  0.00    +0.009 C 
ATOM     14  C   UNL     1      -1.513   5.798   2.274  0.00  0.00    +0.032 C 
BRANCH   9  16
ATOM     15  C   UNL     1      -3.386   8.068   3.489  0.00  0.00    +0.194 C 
ATOM     16  O   UNL     1      -2.894   7.779   2.179  0.00  0.00    -0.380 OA
ENDBRANCH   9  16
ENDBRANCH   1  12
BRANCH   1  17
ATOM     17  O   UNL     1      -2.710   1.960   0.784  0.00  0.00    -0.383 OA
ATOM     18  H   UNL     1      -2.847   0.876   0.664  0.00  0.00    +0.211 HD
ENDBRANCH   1  17
BRANCH   1  19
ATOM     19  C   UNL     1      -1.831   2.442  -1.415  0.00  0.00    +0.039 C 
BRANCH  19  20
ATOM     20  C   UNL     1      -0.766   3.219  -2.146  0.00  0.00    -0.043 A 
ATOM     21  C   UNL     1       0.514   2.708  -2.249  0.00  0.00    +0.004 A 
ATOM     22  C   UNL     1       1.490   3.418  -2.924  0.00  0.00    +0.000 A 
ATOM     23  C   UNL     1       1.187   4.644  -3.488  0.00  0.00    +0.000 A 
ATOM     24  C   UNL     1      -0.092   5.157  -3.380  0.00  0.00    +0.000 A 
ATOM     25  C   UNL     1      -1.069   4.445  -2.709  0.00  0.00    +0.004 A 
ENDBRANCH  19  20
BRANCH  19  26
ATOM     26  C   UNL     1      -1.710   0.958  -1.764  0.00  0.00    -0.068 C 
BRANCH  26  27
ATOM     27  N   UNL     1      -2.000   0.765  -3.192  0.00  0.00    +0.380 N 
ATOM     28  C   UNL     1      -3.400   1.087  -3.492  0.00  0.00    -0.079 C 
ATOM     29  C   UNL     1      -3.628   1.016  -5.004  0.00  0.00    -0.019 C 
ATOM     30  C   UNL     1      -3.291  -0.392  -5.501  0.00  0.00    -0.004 C 
ATOM     31  C   UNL     1      -1.842  -0.721  -5.132  0.00  0.00    -0.019 C 
ATOM     32  C   UNL     1      -1.665  -0.600  -3.617  0.00  0.00    -0.079 C 
ATOM     33  H   UNL     1      -1.366   1.459  -3.764  0.00  0.00    -0.082 HD
ENDBRANCH  26  27
ENDBRANCH  19  26
ENDBRANCH   1  19
TORSDOF 8
