REMARK  Name = ZINC35303140
REMARK  8 active torsions:
REMARK  status: ('A' for Active; 'I' for Inactive)
REMARK    1  A    between atoms: C_1  and  C_2
REMARK    2  A    between atoms: C_2  and  C_3
REMARK    3  A    between atoms: C_3  and  C_5
REMARK    4  A    between atoms: C_3  and  C_6
REMARK    5  A    between atoms: C_6  and  C_8
REMARK    6  A    between atoms: C_6  and  N_25
REMARK    7  A    between atoms: C_14  and  C_16
REMARK    8  A    between atoms: N_28  and  C_29
REMARK                            x       y       z     vdW  Elec       q    Type
REMARK                         _______ _______ _______ _____ _____    ______ ____
ROOT
ATOM      1  C   UNL     1      -1.417  -2.076   0.136  0.00  0.00    +0.163 C 
ENDROOT
BRANCH   1   2
ATOM      2  C   UNL     1      -0.844  -2.483   1.469  0.00  0.00    +0.239 C 
ATOM      3  O   UNL     1       0.153  -3.171   1.516  0.00  0.00    -0.273 OA
ATOM      4  N   UNL     1      -1.440  -2.081   2.609  0.00  0.00    -0.262 N 
ATOM      5  C   UNL     1      -0.911  -2.456   3.839  0.00  0.00    +0.188 A 
ATOM      6  N   UNL     1       0.159  -3.189   4.119  0.00  0.00    -0.125 NA
ATOM      7  N   UNL     1       0.504  -3.438   5.306  0.00  0.00    -0.140 NA
ATOM      8  C   UNL     1      -0.182  -2.980   6.346  0.00  0.00    +0.134 A 
ATOM      9  S   UNL     1      -1.475  -2.080   5.496  0.00  0.00    -0.030 S 
ATOM     10  H   UNL     1      -2.237  -1.530   2.572  0.00  0.00    +0.157 HD
BRANCH   8  11
ATOM     11  C   UNL     1       0.057  -3.159   7.794  0.00  0.00    +0.013 A 
ATOM     12  C   UNL     1      -0.811  -2.583   8.723  0.00  0.00    +0.014 A 
ATOM     13  C   UNL     1      -0.587  -2.751  10.073  0.00  0.00    +0.050 A 
ATOM     14  C   UNL     1       0.500  -3.491  10.514  0.00  0.00    +0.166 A 
ATOM     15  C   UNL     1       1.372  -4.069   9.591  0.00  0.00    +0.167 A 
ATOM     16  C   UNL     1       1.149  -3.908   8.236  0.00  0.00    +0.060 A 
ATOM     17  O   UNL     1       2.348  -4.737  10.273  0.00  0.00    -0.453 OA
ATOM     18  C   UNL     1       2.299  -4.222  11.617  0.00  0.00    +0.466 C 
ATOM     19  O   UNL     1       0.932  -3.799  11.772  0.00  0.00    -0.453 OA
ENDBRANCH   8  11
ENDBRANCH   1   2
BRANCH   1  20
ATOM     20  N   UNL     1      -0.595  -2.635  -0.940  0.00  0.00    -0.288 N 
ATOM     21  C   UNL     1      -1.134  -2.853  -2.156  0.00  0.00    +0.304 C 
ATOM     22  O   UNL     1      -2.302  -2.586  -2.360  0.00  0.00    -0.252 OA
ATOM     23  N   UNL     1      -0.377  -3.367  -3.146  0.00  0.00    -0.269 N 
ATOM     24  H   UNL     1       0.337  -2.848  -0.777  0.00  0.00    +0.151 HD
ATOM     25  H   UNL     1       0.573  -3.504  -3.009  0.00  0.00    +0.156 HD
BRANCH  23  26
ATOM     26  C   UNL     1      -0.962  -3.702  -4.369  0.00  0.00    +0.042 A 
ATOM     27  C   UNL     1      -2.304  -4.005  -4.439  0.00  0.00    +0.024 A 
ATOM     28  C   UNL     1      -2.896  -4.340  -5.652  0.00  0.00    +0.002 A 
ATOM     29  C   UNL     1      -2.168  -4.380  -6.803  0.00  0.00    +0.008 A 
ATOM     30  C   UNL     1      -0.796  -4.077  -6.775  0.00  0.00    -0.016 A 
ATOM     31  C   UNL     1      -0.184  -3.729  -5.546  0.00  0.00    +0.003 A 
ATOM     32  C   UNL     1       1.186  -3.422  -5.521  0.00  0.00    +0.010 A 
ATOM     33  C   UNL     1       1.905  -3.457  -6.677  0.00  0.00    +0.001 A 
ATOM     34  C   UNL     1       1.302  -3.794  -7.887  0.00  0.00    +0.001 A 
ATOM     35  C   UNL     1      -0.020  -4.110  -7.947  0.00  0.00    +0.008 A 
ENDBRANCH  23  26
ENDBRANCH   1  20
BRANCH   1  36
ATOM     36  C   UNL     1      -1.428  -0.550   0.029  0.00  0.00    +0.015 C 
ATOM     37  C   UNL     1      -2.123  -0.135  -1.269  0.00  0.00    +0.010 C 
BRANCH  36  39
ATOM     38  C   UNL     1      -0.002   1.501   0.046  0.00  0.00    +0.004 C 
ATOM     39  C   UNL     1       0.010  -0.029   0.027  0.00  0.00    +0.002 C 
ENDBRANCH  36  39
ENDBRANCH   1  36
TORSDOF 6
