REMARK  Name = ZINC38909867
REMARK  4 active torsions:
REMARK  status: ('A' for Active; 'I' for Inactive)
REMARK    1  A    between atoms: C_8  and  C_11
REMARK    2  A    between atoms: C_13  and  C_16
REMARK    3  A    between atoms: N_18  and  C_19
REMARK    4  A    between atoms: C_24  and  C_25
REMARK                            x       y       z     vdW  Elec       q    Type
REMARK                         _______ _______ _______ _____ _____    ______ ____
ROOT
ATOM      1  C   UNL     1       3.761  -3.378  -0.019  0.00  0.00    +0.125 A 
ATOM      2  N   UNL     1       5.076  -3.514  -0.037  0.00  0.00    -0.233 NA
ATOM      3  C   UNL     1       5.585  -4.738  -0.056  0.00  0.00    +0.134 A 
ATOM      4  C   UNL     1       4.725  -5.817  -0.057  0.00  0.00    +0.080 A 
ATOM      5  S   UNL     1       3.214  -5.076  -0.023  0.00  0.00    -0.073 S 
ENDROOT
BRANCH   1  13
ATOM      6  C   UNL     1      -0.015   1.362   0.086  0.00  0.00    +0.001 A 
ATOM      7  C   UNL     1       1.172   2.084   0.072  0.00  0.00    +0.002 A 
ATOM      8  C   UNL     1       2.388   1.437   0.046  0.00  0.00    +0.026 A 
ATOM      9  C   UNL     1       2.432   0.047   0.033  0.00  0.00    +0.047 A 
ATOM     10  C   UNL     1       1.226  -0.681   0.047  0.00  0.00    +0.000 A 
ATOM     11  C   UNL     1       0.004  -0.003   0.074  0.00  0.00    +0.010 A 
ATOM     12  C   UNL     1       1.599  -2.094   0.029  0.00  0.00    +0.038 A 
ATOM     13  C   UNL     1       2.957  -2.144   0.005  0.00  0.00    +0.073 A 
ATOM     14  N   UNL     1       3.465  -0.864   0.007  0.00  0.00    -0.353 N 
ATOM     15  H   UNL     1       4.408  -0.638  -0.007  0.00  0.00    +0.166 HD
ENDBRANCH   1  13
BRANCH   3  16
ATOM     16  C   UNL     1       7.044  -4.942  -0.078  0.00  0.00    +0.267 C 
ATOM     17  O   UNL     1       7.500  -6.070  -0.096  0.00  0.00    -0.268 OA
ATOM     18  N   UNL     1       7.873  -3.880  -0.077  0.00  0.00    -0.279 N 
ATOM     19  H   UNL     1       7.512  -2.983  -0.143  0.00  0.00    +0.155 HD
BRANCH  18  20
ATOM     20  C   UNL     1       9.250  -4.072   0.019  0.00  0.00    +0.051 A 
ATOM     21  C   UNL     1       9.755  -5.220   0.613  0.00  0.00    +0.024 A 
ATOM     22  C   UNL     1      11.119  -5.408   0.708  0.00  0.00    +0.002 A 
ATOM     23  C   UNL     1      11.994  -4.455   0.213  0.00  0.00    +0.001 A 
ATOM     24  C   UNL     1      11.511  -3.308  -0.380  0.00  0.00    +0.021 A 
ATOM     25  C   UNL     1      10.133  -3.107  -0.488  0.00  0.00    +0.073 A 
BRANCH  25  26
ATOM     26  C   UNL     1       9.625  -1.920  -1.108  0.00  0.00    +0.101 C 
ATOM     27  N   UNL     1       9.221  -0.979  -1.600  0.00  0.00    -0.191 NA
ENDBRANCH  25  26
ENDBRANCH  18  20
ENDBRANCH   3  16
TORSDOF 4
