REMARK  Name = ZINC32733285
REMARK  11 active torsions:
REMARK  status: ('A' for Active; 'I' for Inactive)
REMARK    1  A    between atoms: C_1  and  C_2
REMARK    2  A    between atoms: C_2  and  C_3
REMARK    3  A    between atoms: C_6  and  C_9
REMARK    4  A    between atoms: C_9  and  C_11
REMARK    5  A    between atoms: C_9  and  N_30
REMARK    6  A    between atoms: C_11  and  N_12
REMARK    7  A    between atoms: C_13  and  C_15
REMARK    8  A    between atoms: C_17  and  S_22
REMARK    9  A    between atoms: S_22  and  N_25
REMARK   10  A    between atoms: N_30  and  C_31
REMARK   11  A    between atoms: N_30  and  C_32
REMARK                            x       y       z     vdW  Elec       q    Type
REMARK                         _______ _______ _______ _____ _____    ______ ____
ROOT
ATOM      1  N   UNL     1      -3.419  -0.994   3.407  0.00  0.00    -0.313 N 
ATOM      2  C   UNL     1      -3.084   0.180   3.978  0.00  0.00    +0.245 C 
ATOM      3  O   UNL     1      -3.811   0.677   4.816  0.00  0.00    -0.270 OA
ATOM      4  H   UNL     1      -2.762  -1.444   2.649  0.00  0.00    +0.149 HD
ENDROOT
BRANCH   2   5
ATOM      5  C   UNL     1      -1.834   0.863   3.585  0.00  0.00    +0.057 A 
ATOM      6  C   UNL     1      -0.997   0.295   2.623  0.00  0.00    +0.043 A 
ATOM      7  C   UNL     1       0.168   0.937   2.260  0.00  0.00    +0.106 A 
ATOM      8  C   UNL     1       0.512   2.140   2.851  0.00  0.00    +0.030 A 
ATOM      9  C   UNL     1      -0.314   2.713   3.801  0.00  0.00    +0.022 A 
ATOM     10  C   UNL     1      -1.484   2.080   4.174  0.00  0.00    +0.053 A 
ATOM     11 CL   UNL     1      -2.517   2.796   5.372  0.00  0.00    -0.083 Cl
BRANCH   7  12
ATOM     12  S   UNL     1       1.224   0.221   1.045  0.00  0.00    +0.061 S 
ATOM     13  O   UNL     1       0.956  -1.174   1.045  0.00  0.00    -0.153 OA
ATOM     14  O   UNL     1       2.524   0.747   1.277  0.00  0.00    -0.153 OA
BRANCH  12  15
ATOM     15  N   UNL     1       0.737   0.797  -0.429  0.00  0.00    -0.177 NA
ATOM     16  C   UNL     1      -0.263   0.170  -1.306  0.00  0.00    +0.109 C 
ATOM     17  C   UNL     1      -0.372   1.043  -2.574  0.00  0.00    +0.018 C 
ATOM     18  C   UNL     1       0.986   1.794  -2.594  0.00  0.00    +0.018 C 
ATOM     19  C   UNL     1       1.238   2.020  -1.082  0.00  0.00    +0.109 C 
ENDBRANCH  12  15
ENDBRANCH   7  12
ENDBRANCH   2   5
BRANCH   1  20
ATOM     20  C   UNL     1      -4.658  -1.671   3.797  0.00  0.00    +0.094 C 
BRANCH  20  21
ATOM     21  C   UNL     1      -4.878  -2.889   2.898  0.00  0.00    -0.021 C 
BRANCH  21  25
ATOM     22  C   UNL     1      -8.398  -4.963   4.148  0.00  0.00    -0.048 A 
ATOM     23  C   UNL     1      -7.149  -5.475   4.450  0.00  0.00    +0.004 A 
ATOM     24  C   UNL     1      -6.011  -4.804   4.045  0.00  0.00    +0.002 A 
ATOM     25  C   UNL     1      -6.120  -3.621   3.339  0.00  0.00    -0.059 A 
ATOM     26  C   UNL     1      -7.368  -3.106   3.042  0.00  0.00    +0.002 A 
ATOM     27  C   UNL     1      -8.507  -3.780   3.442  0.00  0.00    +0.004 A 
BRANCH  22  29
ATOM     28  C   UNL     1     -10.055  -5.202   5.977  0.00  0.00    +0.009 C 
ATOM     29  C   UNL     1      -9.639  -5.694   4.590  0.00  0.00    +0.032 C 
ENDBRANCH  22  29
ENDBRANCH  21  25
BRANCH  21  30
ATOM     30  N   UNL     1      -5.038  -2.449   1.506  0.00  0.00    +0.382 N 
ATOM     31  C   UNL     1      -5.602  -1.094   1.444  0.00  0.00    -0.096 C 
ATOM     32  C   UNL     1      -3.762  -2.521   0.782  0.00  0.00    -0.096 C 
ATOM     33  H   UNL     1      -5.745  -3.133   1.014  0.00  0.00    -0.082 HD
ENDBRANCH  21  30
ENDBRANCH  20  21
ENDBRANCH   1  20
TORSDOF 8
