REMARK  Name = ZINC20288392
REMARK  7 active torsions:
REMARK  status: ('A' for Active; 'I' for Inactive)
REMARK    1  A    between atoms: C_1  and  C_2
REMARK    2  A    between atoms: C_2  and  C_3
REMARK    3  A    between atoms: C_4  and  C_18
REMARK    4  A    between atoms: C_7  and  O_8
REMARK    5  A    between atoms: N_24  and  C_25
REMARK    6  A    between atoms: C_30  and  O_31
REMARK    7  A    between atoms: O_31  and  C_32
REMARK                            x       y       z     vdW  Elec       q    Type
REMARK                         _______ _______ _______ _____ _____    ______ ____
ROOT
ATOM      1  C   UNL     1       0.421  -0.813   1.212  0.00  0.00    +0.085 A 
ATOM      2  C   UNL     1      -0.614  -1.083   2.217  0.00  0.00    +0.106 A 
ATOM      3  N   UNL     1      -0.058  -1.800   3.166  0.00  0.00    -0.161 NA
ATOM      4  N   UNL     1       1.285  -2.024   2.852  0.00  0.00    -0.175 N 
ATOM      5  C   UNL     1       1.578  -1.433   1.666  0.00  0.00    +0.227 A 
ATOM      6  C   UNL     1       2.182  -2.745   3.632  0.00  0.00    +0.198 A 
ATOM      7  N   UNL     1       3.451  -2.992   3.411  0.00  0.00    -0.221 NA
ATOM      8  C   UNL     1       4.209  -3.714   4.262  0.00  0.00    +0.081 A 
ATOM      9  C   UNL     1       5.578  -4.051   4.143  0.00  0.00    +0.029 A 
ATOM     10  C   UNL     1       6.202  -4.799   5.106  0.00  0.00    +0.002 A 
ATOM     11  C   UNL     1       5.520  -5.252   6.227  0.00  0.00    +0.001 A 
ATOM     12  C   UNL     1       4.181  -4.941   6.377  0.00  0.00    +0.017 A 
ATOM     13  C   UNL     1       3.548  -4.192   5.417  0.00  0.00    +0.041 A 
ATOM     14  S   UNL     1       1.900  -3.565   5.195  0.00  0.00    -0.048 S 
ENDROOT
BRANCH   2  15
ATOM     15  C   UNL     1      -2.025  -0.630   2.170  0.00  0.00    +0.003 A 
ATOM     16  C   UNL     1      -2.344   0.608   1.615  0.00  0.00    +0.010 A 
ATOM     17  C   UNL     1      -3.659   1.025   1.574  0.00  0.00    +0.001 A 
ATOM     18  C   UNL     1      -4.659   0.216   2.083  0.00  0.00    +0.000 A 
ATOM     19  C   UNL     1      -4.348  -1.014   2.635  0.00  0.00    +0.001 A 
ATOM     20  C   UNL     1      -3.038  -1.444   2.676  0.00  0.00    +0.010 A 
ENDBRANCH   2  15
BRANCH   1  22
ATOM     21  C   UNL     1       0.518   1.438  -0.034  0.00  0.00    +0.066 C 
ATOM     22  C   UNL     1       0.263  -0.047  -0.028  0.00  0.00    +0.053 C 
ATOM     23  N   UNL     1      -0.098  -0.652  -1.127  0.00  0.00    -0.248 NA
BRANCH  23  24
ATOM     24  C   UNL     1      -0.119   0.034  -2.312  0.00  0.00    +0.106 A 
ATOM     25  C   UNL     1       1.001   0.759  -2.722  0.00  0.00    +0.031 A 
ATOM     26  C   UNL     1       0.974   1.449  -3.916  0.00  0.00    +0.002 A 
ATOM     27  C   UNL     1      -0.160   1.427  -4.709  0.00  0.00    +0.004 A 
ATOM     28  C   UNL     1      -1.276   0.712  -4.313  0.00  0.00    +0.048 A 
ATOM     29  C   UNL     1      -1.263   0.009  -3.120  0.00  0.00    +0.155 A 
BRANCH  29  30
ATOM     30  O   UNL     1      -2.357  -0.698  -2.733  0.00  0.00    -0.404 OA
BRANCH  30  31
ATOM     31  C   UNL     1      -3.486  -0.677  -3.608  0.00  0.00    +0.575 C 
ATOM     32  F   UNL     1      -3.121  -1.202  -4.853  0.00  0.00    -0.133 F 
ATOM     33  F   UNL     1      -4.515  -1.450  -3.060  0.00  0.00    -0.133 F 
ATOM     34  F   UNL     1      -3.927   0.640  -3.769  0.00  0.00    -0.133 F 
ENDBRANCH  30  31
ENDBRANCH  29  30
ENDBRANCH  23  24
ENDBRANCH   1  22
BRANCH   5  35
ATOM     35  O   UNL     1       2.779  -1.442   1.042  0.00  0.00    -0.492 OA
ATOM     36  H   UNL     1       3.356  -0.706   1.287  0.00  0.00    +0.294 HD
ENDBRANCH   5  35
TORSDOF 6
