REMARK  Name = ZINC37425998
REMARK  13 active torsions:
REMARK  status: ('A' for Active; 'I' for Inactive)
REMARK    1  A    between atoms: C_1  and  C_2
REMARK    2  A    between atoms: C_2  and  C_3
REMARK    3  A    between atoms: C_3  and  C_5
REMARK    4  A    between atoms: C_3  and  N_6
REMARK    5  A    between atoms: C_7  and  C_9
REMARK    6  A    between atoms: C_9  and  N_10
REMARK    7  A    between atoms: C_13  and  C_23
REMARK    8  A    between atoms: N_15  and  C_16
REMARK    9  A    between atoms: C_19  and  C_22
REMARK   10  A    between atoms: C_23  and  C_24
REMARK   11  A    between atoms: C_23  and  C_25
REMARK   12  A    between atoms: C_23  and  C_26
REMARK   13  A    between atoms: C_27  and  C_33
REMARK                            x       y       z     vdW  Elec       q    Type
REMARK                         _______ _______ _______ _____ _____    ______ ____
ROOT
ATOM      1  N   UNL     1       0.440   2.037 -10.449  0.00  0.00    -0.246 N 
ATOM      2  C   UNL     1       0.837   2.571  -9.213  0.00  0.00    +0.136 A 
ATOM      3  C   UNL     1       1.565   3.704  -9.081  0.00  0.00    +0.034 A 
ATOM      4  C   UNL     1       1.774   3.922  -7.719  0.00  0.00    +0.075 A 
ATOM      5  N   UNL     1       1.190   2.955  -7.053  0.00  0.00    -0.169 NA
ATOM      6  N   UNL     1       0.585   2.085  -7.975  0.00  0.00    -0.218 N 
ATOM      7  C   UNL     1       2.042   4.559 -10.227  0.00  0.00    +0.112 C 
ATOM      8  S   UNL     1       3.413   3.689 -11.070  0.00  0.00    -0.138 S 
ATOM      9  C   UNL     1       2.818   1.965 -11.076  0.00  0.00    +0.166 C 
ATOM     10  C   UNL     1       1.359   1.904 -11.410  0.00  0.00    +0.231 C 
ATOM     11  O   UNL     1       1.011   1.737 -12.560  0.00  0.00    -0.274 OA
ENDROOT
BRANCH   6  12
ATOM     12  C   UNL     1      -0.143   0.927  -7.669  0.00  0.00    +0.067 A 
ATOM     13  C   UNL     1       0.000  -0.212  -8.450  0.00  0.00    +0.028 A 
ATOM     14  C   UNL     1      -0.719  -1.351  -8.146  0.00  0.00    +0.005 A 
ATOM     15  C   UNL     1      -1.583  -1.357  -7.066  0.00  0.00    -0.050 A 
ATOM     16  C   UNL     1      -1.728  -0.225  -6.287  0.00  0.00    +0.005 A 
ATOM     17  C   UNL     1      -1.006   0.915  -6.582  0.00  0.00    +0.028 A 
ATOM     18  C   UNL     1      -2.367  -2.602  -6.738  0.00  0.00    +0.044 C 
ENDBRANCH   6  12
BRANCH   7  19
ATOM     19  C   UNL     1       2.527   5.885  -9.701  0.00  0.00    -0.023 A 
ATOM     20  C   UNL     1       1.667   6.964  -9.620  0.00  0.00    +0.012 A 
ATOM     21  C   UNL     1       2.134   8.143  -9.142  0.00  0.00    +0.045 A 
ATOM     22  S   UNL     1       3.839   7.748  -8.788  0.00  0.00    -0.105 S 
ATOM     23  C   UNL     1       3.811   6.036  -9.295  0.00  0.00    +0.050 A 
ENDBRANCH   7  19
BRANCH   4  24
ATOM     24  C   UNL     1       2.541   5.071  -7.116  0.00  0.00    +0.007 C 
ATOM     25  C   UNL     1       1.760   6.370  -7.323  0.00  0.00    +0.017 C 
ATOM     26  C   UNL     1       2.734   4.825  -5.618  0.00  0.00    +0.017 C 
ATOM     27  C   UNL     1       3.908   5.184  -7.795  0.00  0.00    +0.017 C 
ENDBRANCH   4  24
BRANCH   1  28
ATOM     28  C   UNL     1      -0.948   1.629 -10.678  0.00  0.00    +0.210 C 
BRANCH  28  30
ATOM     29  N   UNL     1      -3.027   2.645 -11.553  0.00  0.00    -0.311 N 
ATOM     30  C   UNL     1      -1.701   2.756 -11.336  0.00  0.00    +0.231 C 
ATOM     31  O   UNL     1      -1.114   3.764 -11.670  0.00  0.00    -0.274 OA
ATOM     32  H   UNL     1      -3.482   1.812 -11.355  0.00  0.00    +0.149 HD
BRANCH  29  33
ATOM     33  C   UNL     1      -3.779   3.783 -12.089  0.00  0.00    +0.070 C 
ATOM     34  C   UNL     1      -4.117   4.751 -10.953  0.00  0.00    +0.028 C 
BRANCH  33  36
ATOM     35  C   UNL     1      -4.735   2.425 -13.955  0.00  0.00    +0.005 C 
ATOM     36  C   UNL     1      -5.073   3.280 -12.733  0.00  0.00    +0.018 C 
ENDBRANCH  33  36
ENDBRANCH  29  33
ENDBRANCH  28  30
ENDBRANCH   1  28
TORSDOF 7
