REMARK  Name = ZINC13034025
REMARK  11 active torsions:
REMARK  status: ('A' for Active; 'I' for Inactive)
REMARK    1  A    between atoms: C_1  and  C_2
REMARK    2  A    between atoms: C_2  and  C_3
REMARK    3  A    between atoms: C_10  and  C_15
REMARK    4  A    between atoms: C_15  and  N_72
REMARK    5  A    between atoms: C_16  and  C_17
REMARK    6  A    between atoms: C_16  and  N_72
REMARK    7  A    between atoms: C_26  and  C_28
REMARK    8  A    between atoms: C_26  and  C_30
REMARK    9  A    between atoms: C_26  and  N_72
REMARK   10  A    between atoms: C_28  and  C_29
REMARK   11  A    between atoms: N_34  and  C_35
REMARK                            x       y       z     vdW  Elec       q    Type
REMARK                         _______ _______ _______ _____ _____    ______ ____
ROOT
ATOM      1  N   UNL     1       2.897   3.349  -1.306  0.00  0.00    +0.392 N 
ATOM      2  H   UNL     1       2.604   3.154  -2.271  0.00  0.00    -0.080 HD
ENDROOT
BRANCH   1   3
ATOM      3  C   UNL     1       3.638   4.627  -1.278  0.00  0.00    -0.036 C 
BRANCH   3  11
ATOM      4  C   UNL     1       5.816   5.753  -6.960  0.00  0.00    -0.047 A 
ATOM      5  C   UNL     1       7.071   5.194  -6.759  0.00  0.00    +0.005 A 
ATOM      6  C   UNL     1       7.408   4.640  -5.543  0.00  0.00    +0.026 A 
ATOM      7  C   UNL     1       6.482   4.640  -4.504  0.00  0.00    +0.049 A 
ATOM      8  C   UNL     1       5.211   5.207  -4.712  0.00  0.00    -0.001 A 
ATOM      9  C   UNL     1       4.891   5.763  -5.954  0.00  0.00    +0.013 A 
ATOM     10  C   UNL     1       4.244   5.202  -3.612  0.00  0.00    +0.017 A 
ATOM     11  C   UNL     1       4.610   4.649  -2.430  0.00  0.00    +0.001 A 
ATOM     12  C   UNL     1       5.900   4.098  -2.272  0.00  0.00    +0.251 A 
ATOM     13  O   UNL     1       6.210   3.610  -1.199  0.00  0.00    -0.268 OA
ATOM     14  N   UNL     1       6.793   4.093  -3.277  0.00  0.00    -0.322 N 
ATOM     15  H   UNL     1       7.669   3.703  -3.136  0.00  0.00    +0.169 HD
BRANCH   4  17
ATOM     16  C   UNL     1       5.851   7.834  -8.307  0.00  0.00    +0.009 C 
ATOM     17  C   UNL     1       5.470   6.352  -8.299  0.00  0.00    +0.032 C 
ENDBRANCH   4  17
ENDBRANCH   3  11
ENDBRANCH   1   3
BRANCH   1  18
ATOM     18  C   UNL     1       3.768   2.249  -0.839  0.00  0.00    -0.041 C 
BRANCH  18  19
ATOM     19  C   UNL     1       3.154   0.937  -1.252  0.00  0.00    -0.060 A 
ATOM     20  C   UNL     1       2.380   0.225  -0.355  0.00  0.00    +0.005 A 
ATOM     21  C   UNL     1       1.810  -0.977  -0.732  0.00  0.00    +0.050 A 
ATOM     22  C   UNL     1       2.023  -1.477  -2.006  0.00  0.00    +0.166 A 
ATOM     23  C   UNL     1       2.807  -0.762  -2.908  0.00  0.00    +0.166 A 
ATOM     24  C   UNL     1       3.370   0.445  -2.526  0.00  0.00    +0.051 A 
ATOM     25  O   UNL     1       2.864  -1.456  -4.082  0.00  0.00    -0.453 OA
ATOM     26  C   UNL     1       2.447  -2.795  -3.757  0.00  0.00    +0.466 C 
ATOM     27  O   UNL     1       1.589  -2.619  -2.615  0.00  0.00    -0.453 OA
ENDBRANCH  18  19
ENDBRANCH   1  18
BRANCH   1  28
ATOM     28  C   UNL     1       1.697   3.442  -0.449  0.00  0.00    +0.003 C 
BRANCH  28  29
ATOM     29  C   UNL     1       2.065   3.943   0.923  0.00  0.00    +0.138 A 
ATOM     30  N   UNL     1       2.821   4.978   1.201  0.00  0.00    -0.115 NA
ATOM     31  N   UNL     1       2.898   5.080   2.483  0.00  0.00    -0.023 NA
ATOM     32  N   UNL     1       2.212   4.138   3.030  0.00  0.00    -0.044 NA
ATOM     33  N   UNL     1       1.683   3.416   2.101  0.00  0.00    -0.228 N 
BRANCH  33  34
ATOM     34  C   UNL     1       0.831   2.240   2.292  0.00  0.00    +0.111 C 
ATOM     35  C   UNL     1      -0.409   2.615   3.130  0.00  0.00    +0.027 C 
ATOM     36  C   UNL     1      -0.652   1.374   4.025  0.00  0.00    +0.002 C 
ATOM     37  C   UNL     1       0.786   0.921   4.381  0.00  0.00    +0.002 C 
ATOM     38  C   UNL     1       1.590   1.163   3.087  0.00  0.00    +0.027 C 
ENDBRANCH  33  34
ENDBRANCH  28  29
BRANCH  28  39
ATOM     39  C   UNL     1       0.703   4.408  -1.096  0.00  0.00    -0.011 C 
ATOM     40  C   UNL     1       0.239   3.841  -2.439  0.00  0.00    +0.002 C 
ENDBRANCH  28  39
ENDBRANCH   1  28
TORSDOF 9
