REMARK  Name = ZINC39325422
REMARK  9 active torsions:
REMARK  status: ('A' for Active; 'I' for Inactive)
REMARK    1  A    between atoms: C_1  and  C_2
REMARK    2  A    between atoms: C_9  and  C_14
REMARK    3  A    between atoms: C_14  and  N_15
REMARK    4  A    between atoms: N_15  and  C_16
REMARK    5  A    between atoms: N_15  and  S_25
REMARK    6  A    between atoms: C_16  and  C_17
REMARK    7  A    between atoms: C_20  and  O_23
REMARK    8  A    between atoms: O_23  and  C_24
REMARK    9  A    between atoms: S_25  and  C_28
REMARK                            x       y       z     vdW  Elec       q    Type
REMARK                         _______ _______ _______ _____ _____    ______ ____
ROOT
ATOM      1  N   UNL     1      -1.082  -6.397   3.039  0.00  0.00    -0.171 NA
ENDROOT
BRANCH   1   2
ATOM      2  S   UNL     1      -1.734  -7.293   1.809  0.00  0.00    +0.063 S 
ATOM      3  O   UNL     1      -1.084  -6.878   0.615  0.00  0.00    -0.153 OA
ATOM      4  O   UNL     1      -1.733  -8.645   2.246  0.00  0.00    -0.153 OA
BRANCH   2   5
ATOM      5  C   UNL     1      -3.423  -6.815   1.655  0.00  0.00    +0.134 A 
ATOM      6  C   UNL     1      -3.837  -6.140   0.557  0.00  0.00    +0.031 A 
ATOM      7  C   UNL     1      -5.166  -5.746   0.401  0.00  0.00    +0.004 A 
ATOM      8  C   UNL     1      -6.100  -6.021   1.342  0.00  0.00    +0.031 A 
ATOM      9  C   UNL     1      -5.738  -6.727   2.521  0.00  0.00    +0.102 A 
ATOM     10  C   UNL     1      -4.350  -7.144   2.681  0.00  0.00    +0.126 A 
ATOM     11  N   UNL     1      -4.128  -7.802   3.820  0.00  0.00    -0.189 NA
ATOM     12  S   UNL     1      -5.550  -7.867   4.568  0.00  0.00    +0.117 S 
ATOM     13  N   UNL     1      -6.514  -7.084   3.545  0.00  0.00    -0.191 NA
ENDBRANCH   2   5
ENDBRANCH   1   2
BRANCH   1  14
ATOM     14  C   UNL     1      -1.120  -4.934   2.980  0.00  0.00    +0.126 C 
BRANCH  14  23
ATOM     15  C   UNL     1       1.266   1.558   1.200  0.00  0.00    +0.044 C 
ATOM     16  C   UNL     1       1.287   0.053   1.138  0.00  0.00    -0.050 A 
ATOM     17  C   UNL     1       1.865  -0.577   0.036  0.00  0.00    +0.005 A 
ATOM     18  C   UNL     1       1.922  -1.929  -0.089  0.00  0.00    +0.024 A 
ATOM     19  C   UNL     1       1.387  -2.762   0.911  0.00  0.00    +0.040 A 
ATOM     20  N   UNL     1       1.449  -4.087   0.778  0.00  0.00    -0.284 N 
ATOM     21  C   UNL     1       0.967  -4.926   1.679  0.00  0.00    +0.225 C 
ATOM     22  O   UNL     1       1.052  -6.127   1.502  0.00  0.00    -0.275 OA
ATOM     23  C   UNL     1       0.309  -4.388   2.929  0.00  0.00    +0.114 C 
ATOM     24  C   UNL     1       0.236  -2.882   3.086  0.00  0.00    -0.003 C 
ATOM     25  C   UNL     1       0.770  -2.123   2.086  0.00  0.00    -0.007 A 
ATOM     26  C   UNL     1       0.748  -0.662   2.159  0.00  0.00    +0.012 A 
ATOM     27  H   UNL     1       1.867  -4.452  -0.018  0.00  0.00    +0.155 HD
ENDBRANCH  14  23
ENDBRANCH   1  14
BRANCH   1  28
ATOM     28  C   UNL     1      -0.467  -7.068   4.188  0.00  0.00    +0.144 C 
BRANCH  28  29
ATOM     29  C   UNL     1      -1.479  -7.193   5.297  0.00  0.00    -0.031 A 
ATOM     30  C   UNL     1      -1.601  -6.186   6.237  0.00  0.00    +0.008 A 
ATOM     31  C   UNL     1      -2.527  -6.298   7.256  0.00  0.00    +0.046 A 
ATOM     32  C   UNL     1      -3.336  -7.422   7.335  0.00  0.00    +0.120 A 
ATOM     33  C   UNL     1      -3.213  -8.431   6.390  0.00  0.00    +0.046 A 
ATOM     34  C   UNL     1      -2.288  -8.311   5.371  0.00  0.00    +0.008 A 
BRANCH  32  35
ATOM     35  O   UNL     1      -4.248  -7.536   8.336  0.00  0.00    -0.495 OA
ATOM     36  C   UNL     1      -5.047  -8.720   8.355  0.00  0.00    +0.277 C 
ENDBRANCH  32  35
ENDBRANCH  28  29
ENDBRANCH   1  28
TORSDOF 7
