REMARK  Name = ZINC38546302
REMARK  12 active torsions:
REMARK  status: ('A' for Active; 'I' for Inactive)
REMARK    1  A    between atoms: C_1  and  C_2
REMARK    2  A    between atoms: C_2  and  C_3
REMARK    3  A    between atoms: C_5  and  C_16
REMARK    4  A    between atoms: C_6  and  N_8
REMARK    5  A    between atoms: C_9  and  C_11
REMARK    6  A    between atoms: C_16  and  C_18
REMARK    7  A    between atoms: C_16  and  N_28
REMARK    8  A    between atoms: C_22  and  O_26
REMARK    9  A    between atoms: C_23  and  O_24
REMARK   10  A    between atoms: O_24  and  C_25
REMARK   11  A    between atoms: O_26  and  C_27
REMARK   12  A    between atoms: C_31  and  C_34
REMARK                            x       y       z     vdW  Elec       q    Type
REMARK                         _______ _______ _______ _____ _____    ______ ____
ROOT
ATOM      1  C   UNL     1      -4.415  -1.638  -1.934  0.00  0.00    -0.001 C 
ENDROOT
BRANCH   1   2
ATOM      2  N   UNL     1      -4.003  -0.886  -3.126  0.00  0.00    +0.387 N 
ATOM      3  C   UNL     1      -4.891  -1.223  -4.246  0.00  0.00    -0.077 C 
ATOM      4  C   UNL     1      -4.417  -0.505  -5.511  0.00  0.00    -0.015 C 
ATOM      5  C   UNL     1      -4.444   1.008  -5.274  0.00  0.00    -0.018 C 
ATOM      6  C   UNL     1      -3.574   1.339  -4.058  0.00  0.00    -0.015 C 
ATOM      7  C   UNL     1      -4.079   0.552  -2.846  0.00  0.00    -0.077 C 
ATOM      8  C   UNL     1      -3.896   1.729  -6.507  0.00  0.00    +0.007 C 
ATOM      9  H   UNL     1      -3.054  -1.132  -3.366  0.00  0.00    -0.080 HD
ENDBRANCH   1   2
BRANCH   1  10
ATOM     10  C   UNL     1      -4.338  -3.116  -2.220  0.00  0.00    -0.011 A 
ATOM     11  C   UNL     1      -3.409  -3.597  -3.124  0.00  0.00    +0.006 A 
ATOM     12  C   UNL     1      -3.336  -4.952  -3.389  0.00  0.00    +0.004 A 
ATOM     13  C   UNL     1      -4.191  -5.832  -2.751  0.00  0.00    +0.049 A 
ATOM     14  C   UNL     1      -5.124  -5.356  -1.844  0.00  0.00    +0.162 A 
ATOM     15  C   UNL     1      -5.194  -3.992  -1.573  0.00  0.00    +0.163 A 
BRANCH  15  16
ATOM     16  O   UNL     1      -6.104  -3.521  -0.679  0.00  0.00    -0.491 OA
ATOM     17  C   UNL     1      -7.388  -3.159  -1.190  0.00  0.00    +0.277 C 
ENDBRANCH  15  16
BRANCH  14  18
ATOM     18  O   UNL     1      -5.965  -6.220  -1.216  0.00  0.00    -0.491 OA
ATOM     19  C   UNL     1      -5.833  -7.605  -1.539  0.00  0.00    +0.277 C 
ENDBRANCH  14  18
ENDBRANCH   1  10
BRANCH   1  22
ATOM     20  C   UNL     1      -1.354  -0.789   0.054  0.00  0.00    -0.008 A 
ATOM     21  C   UNL     1      -2.149  -1.091  -1.000  0.00  0.00    +0.015 A 
ATOM     22  C   UNL     1      -3.499  -1.300  -0.785  0.00  0.00    -0.028 A 
ATOM     23  C   UNL     1      -3.987  -1.195   0.483  0.00  0.00    +0.074 A 
ATOM     24  S   UNL     1      -2.514  -0.798   1.411  0.00  0.00    -0.078 S 
BRANCH  23  25
ATOM     25  N   UNL     1      -5.296  -1.360   0.938  0.00  0.00    -0.273 N 
ATOM     26  C   UNL     1      -5.596  -1.118   2.230  0.00  0.00    +0.284 C 
ATOM     27  O   UNL     1      -4.724  -0.756   2.999  0.00  0.00    -0.266 OA
ATOM     28  H   UNL     1      -5.990  -1.648   0.325  0.00  0.00    +0.156 HD
BRANCH  26  29
ATOM     29  C   UNL     1      -6.971  -1.291   2.709  0.00  0.00    +0.189 A 
ATOM     30  C   UNL     1      -7.409  -1.077   3.984  0.00  0.00    +0.054 A 
ATOM     31  C   UNL     1      -8.784  -1.362   3.991  0.00  0.00    +0.042 A 
ATOM     32  C   UNL     1      -9.119  -1.734   2.736  0.00  0.00    +0.196 A 
ATOM     33  O   UNL     1      -8.025  -1.685   1.965  0.00  0.00    -0.458 OA
ENDBRANCH  26  29
ENDBRANCH  23  25
BRANCH  20  35
ATOM     34  C   UNL     1       0.379   0.976  -0.122  0.00  0.00    +0.009 C 
ATOM     35  C   UNL     1       0.128  -0.520   0.077  0.00  0.00    +0.039 C 
ENDBRANCH  20  35
ENDBRANCH   1  22
TORSDOF 8
