REMARK  Name = ZINC19210575
REMARK  10 active torsions:
REMARK  status: ('A' for Active; 'I' for Inactive)
REMARK    1  A    between atoms: C_1  and  C_2
REMARK    2  A    between atoms: C_5  and  N_8
REMARK    3  A    between atoms: C_13  and  C_31
REMARK    4  A    between atoms: C_16  and  C_21
REMARK    5  A    between atoms: C_16  and  C_27
REMARK    6  A    between atoms: C_27  and  O_29
REMARK    7  A    between atoms: O_29  and  C_30
REMARK    8  A    between atoms: C_34  and  O_39
REMARK    9  A    between atoms: C_35  and  O_37
REMARK   10  A    between atoms: O_37  and  C_38
REMARK                            x       y       z     vdW  Elec       q    Type
REMARK                         _______ _______ _______ _____ _____    ______ ____
ROOT
ATOM      1  N   UNL     1       0.381  -3.995   1.179  0.00  0.00    -0.210 N 
ATOM      2  C   UNL     1       0.454  -4.336  -0.149  0.00  0.00    +0.232 C 
ATOM      3  O   UNL     1       0.797  -3.635  -1.077  0.00  0.00    -0.274 OA
ATOM      4  C   UNL     1       0.032  -5.717  -0.195  0.00  0.00    +0.112 C 
ATOM      5  C   UNL     1       0.102  -6.889  -1.079  0.00  0.00    +0.098 C 
ATOM      6  N   UNL     1      -0.185  -8.052  -0.176  0.00  0.00    -0.290 NA
ATOM      7  C   UNL     1      -0.289  -7.522   1.223  0.00  0.00    +0.155 C 
ATOM      8  C   UNL     1       0.619  -6.275   1.163  0.00  0.00    +0.125 C 
ATOM      9  C   UNL     1       0.242  -5.081   1.996  0.00  0.00    +0.233 C 
ATOM     10  O   UNL     1      -0.114  -5.083   3.155  0.00  0.00    -0.274 OA
ATOM     11  H   UNL     1      -1.036  -8.520  -0.450  0.00  0.00    +0.124 HD
ENDROOT
BRANCH   1  16
ATOM     12  C   UNL     1       0.651   1.349   3.071  0.00  0.00    +0.044 C 
ATOM     13  C   UNL     1       0.579  -0.070   2.569  0.00  0.00    -0.050 A 
ATOM     14  C   UNL     1       0.656  -0.327   1.212  0.00  0.00    +0.005 A 
ATOM     15  C   UNL     1       0.590  -1.626   0.749  0.00  0.00    +0.024 A 
ATOM     16  C   UNL     1       0.448  -2.675   1.646  0.00  0.00    +0.044 A 
ATOM     17  C   UNL     1       0.372  -2.415   3.008  0.00  0.00    +0.024 A 
ATOM     18  C   UNL     1       0.443  -1.114   3.466  0.00  0.00    +0.005 A 
ENDBRANCH   1  16
BRANCH   7  19
ATOM     19  C   UNL     1      -1.714  -7.160   1.552  0.00  0.00    -0.016 A 
ATOM     20  C   UNL     1      -2.650  -7.047   0.542  0.00  0.00    +0.006 A 
ATOM     21  C   UNL     1      -3.958  -6.715   0.844  0.00  0.00    +0.000 A 
ATOM     22  C   UNL     1      -4.329  -6.497   2.158  0.00  0.00    +0.000 A 
ATOM     23  C   UNL     1      -3.393  -6.611   3.169  0.00  0.00    +0.000 A 
ATOM     24  C   UNL     1      -2.087  -6.947   2.866  0.00  0.00    +0.006 A 
ENDBRANCH   7  19
BRANCH   5  25
ATOM     25  C   UNL     1       1.478  -7.013  -1.681  0.00  0.00    -0.026 A 
ATOM     26  C   UNL     1       2.505  -7.573  -0.944  0.00  0.00    +0.009 A 
ATOM     27  C   UNL     1       3.769  -7.689  -1.492  0.00  0.00    +0.049 A 
ATOM     28  C   UNL     1       4.009  -7.245  -2.782  0.00  0.00    +0.158 A 
ATOM     29  C   UNL     1       2.974  -6.683  -3.524  0.00  0.00    +0.162 A 
ATOM     30  C   UNL     1       1.709  -6.573  -2.971  0.00  0.00    +0.054 A 
BRANCH  29  31
ATOM     31  O   UNL     1       3.204  -6.246  -4.792  0.00  0.00    -0.491 OA
ATOM     32  C   UNL     1       2.096  -5.679  -5.494  0.00  0.00    +0.277 C 
ENDBRANCH  29  31
BRANCH  28  33
ATOM     33  O   UNL     1       5.252  -7.359  -3.323  0.00  0.00    -0.503 OA
ATOM     34  H   UNL     1       5.402  -8.190  -3.792  0.00  0.00    +0.292 HD
ENDBRANCH  28  33
ENDBRANCH   5  25
BRANCH   7  35
ATOM     35  C   UNL     1       0.253  -8.520   2.213  0.00  0.00    +0.333 C 
ATOM     36  O   UNL     1       0.859  -8.138   3.186  0.00  0.00    -0.248 OA
BRANCH  35  37
ATOM     37  O   UNL     1       0.063  -9.834   2.014  0.00  0.00    -0.466 OA
ATOM     38  C   UNL     1       0.604 -10.723   2.993  0.00  0.00    +0.280 C 
ENDBRANCH  35  37
ENDBRANCH   7  35
TORSDOF 7
