REMARK  Name = ZINC23305275
REMARK  8 active torsions:
REMARK  status: ('A' for Active; 'I' for Inactive)
REMARK    1  A    between atoms: C_1  and  C_2
REMARK    2  A    between atoms: C_4  and  C_10
REMARK    3  A    between atoms: C_7  and  O_8
REMARK    4  A    between atoms: O_8  and  C_9
REMARK    5  A    between atoms: C_10  and  C_11
REMARK    6  A    between atoms: N_23  and  C_28
REMARK    7  A    between atoms: C_28  and  C_29
REMARK    8  A    between atoms: C_28  and  C_30
REMARK                            x       y       z     vdW  Elec       q    Type
REMARK                         _______ _______ _______ _____ _____    ______ ____
ROOT
ATOM      1  C   UNL     1       6.260   0.276   1.003  0.00  0.00    +0.220 C 
ATOM      2  O   UNL     1       6.411  -0.915   1.175  0.00  0.00    -0.275 OA
ATOM      3  N   UNL     1       5.284   0.720   0.187  0.00  0.00    -0.296 N 
ATOM      4  C   UNL     1       4.387  -0.215  -0.510  0.00  0.00    +0.113 C 
ATOM      5  C   UNL     1       2.954  -0.018  -0.012  0.00  0.00    +0.056 C 
ATOM      6  C   UNL     1       2.624   1.470  -0.013  0.00  0.00    -0.020 A 
ATOM      7  C   UNL     1       3.595   2.404  -0.022  0.00  0.00    +0.013 A 
ATOM      8  S   UNL     1       2.739   3.953  -0.005  0.00  0.00    -0.073 S 
ATOM      9  C   UNL     1       1.118   3.367   0.009  0.00  0.00    +0.094 A 
ATOM     10  C   UNL     1       1.251   1.979   0.001  0.00  0.00    +0.074 A 
ATOM     11  C   UNL     1      -0.014   1.213   0.009  0.00  0.00    +0.265 A 
ATOM     12  O   UNL     1       0.002  -0.004   0.002  0.00  0.00    -0.267 OA
ATOM     13  N   UNL     1      -1.183   1.878   0.018  0.00  0.00    -0.258 N 
ATOM     14  C   UNL     1      -1.236   3.220   0.030  0.00  0.00    +0.330 A 
ATOM     15  O   UNL     1      -2.318   3.774   0.042  0.00  0.00    -0.246 OA
ATOM     16  N   UNL     1      -0.113   3.965   0.024  0.00  0.00    -0.301 N 
ATOM     17  H   UNL     1      -0.192   5.062   0.031  0.00  0.00    +0.171 HD
ATOM     18  C   UNL     1       5.075   2.164  -0.042  0.00  0.00    +0.150 C 
ENDROOT
BRANCH  13  19
ATOM     19  C   UNL     1      -2.435   1.117   0.019  0.00  0.00    +0.089 C 
ATOM     20  C   UNL     1      -3.240   1.461   1.274  0.00  0.00    +0.031 C 
ATOM     21  C   UNL     1      -3.251   1.475  -1.225  0.00  0.00    +0.031 C 
ENDBRANCH  13  19
BRANCH   1  22
ATOM     22  C   UNL     1       7.162   1.258   1.704  0.00  0.00    +0.131 C 
BRANCH  22  26
ATOM     23  C   UNL     1      11.615  -0.970   2.198  0.00  0.00    +0.047 C 
ATOM     24  C   UNL     1      10.290  -0.556   2.786  0.00  0.00    -0.009 A 
ATOM     25  C   UNL     1       9.374   0.130   2.011  0.00  0.00    +0.011 A 
ATOM     26  C   UNL     1       8.159   0.510   2.550  0.00  0.00    -0.038 A 
ATOM     27  C   UNL     1       7.859   0.209   3.866  0.00  0.00    +0.008 A 
ATOM     28  C   UNL     1       8.769  -0.482   4.642  0.00  0.00    +0.046 A 
ATOM     29  C   UNL     1       9.990  -0.864   4.104  0.00  0.00    +0.123 A 
BRANCH  29  30
ATOM     30  O   UNL     1      10.889  -1.538   4.868  0.00  0.00    -0.495 OA
ATOM     31  C   UNL     1      10.512  -1.821   6.217  0.00  0.00    +0.277 C 
ENDBRANCH  29  30
ENDBRANCH  22  26
ENDBRANCH   1  22
TORSDOF 4
