REMARK  Name = ZINC39458538
REMARK  3 active torsions:
REMARK  status: ('A' for Active; 'I' for Inactive)
REMARK    1  A    between atoms: C_1  and  C_2
REMARK    2  A    between atoms: N_6  and  C_7
REMARK    3  A    between atoms: C_12  and  O_13
REMARK                            x       y       z     vdW  Elec       q    Type
REMARK                         _______ _______ _______ _____ _____    ______ ____
ROOT
ATOM      1  C   UNL     1      -0.018   1.503   0.010  0.00  0.00    +0.065 C 
ATOM      2  C   UNL     1       0.002  -0.004   0.002  0.00  0.00    +0.040 A 
ATOM      3  C   UNL     1       0.008  -0.787  -1.107  0.00  0.00    +0.066 A 
ATOM      4  C   UNL     1       0.025  -2.115  -0.688  0.00  0.00    -0.001 A 
ATOM      5  C   UNL     1       0.022  -2.121   0.699  0.00  0.00    +0.076 A 
ATOM      6  N   UNL     1       0.023  -0.799   1.103  0.00  0.00    -0.307 N 
ATOM      7  C   UNL     1       0.004  -3.275   1.593  0.00  0.00    +0.078 A 
ATOM      8  C   UNL     1       0.604  -4.500   1.311  0.00  0.00    +0.089 A 
ATOM      9  C   UNL     1       0.577  -5.532   2.376  0.00  0.00    +0.193 A 
ATOM     10  C   UNL     1      -0.100  -5.251   3.583  0.00  0.00    +0.069 A 
ATOM     11  C   UNL     1      -0.699  -4.056   3.747  0.00  0.00    +0.087 A 
ATOM     12  N   UNL     1      -0.657  -3.104   2.787  0.00  0.00    -0.359 N 
ATOM     13  O   UNL     1       1.130  -6.608   2.211  0.00  0.00    -0.287 OA
ATOM     14  C   UNL     1       1.191  -4.895   0.101  0.00  0.00    +0.169 C 
ATOM     15  O   UNL     1       1.705  -5.995   0.107  0.00  0.00    -0.292 OA
ATOM     16  C   UNL     1       1.273  -4.172  -1.169  0.00  0.00    +0.084 C 
ATOM     17  C   UNL     1       0.054  -3.353  -1.530  0.00  0.00    +0.046 C 
ATOM     18 CL   UNL     1      -0.004  -0.232  -2.751  0.00  0.00    -0.081 Cl
ATOM     19  H   UNL     1      -1.113  -2.264   2.947  0.00  0.00    +0.165 HD
ENDROOT
BRANCH   6  20
ATOM     20  C   UNL     1       0.041  -0.353   2.431  0.00  0.00    +0.089 A 
ATOM     21  C   UNL     1      -1.150  -0.143   3.111  0.00  0.00    +0.030 A 
ATOM     22  C   UNL     1      -1.130   0.297   4.421  0.00  0.00    +0.002 A 
ATOM     23  C   UNL     1       0.076   0.530   5.057  0.00  0.00    +0.004 A 
ATOM     24  C   UNL     1       1.267   0.324   4.386  0.00  0.00    +0.047 A 
ATOM     25  C   UNL     1       1.255  -0.123   3.075  0.00  0.00    +0.141 A 
BRANCH  25  26
ATOM     26  O   UNL     1       2.426  -0.331   2.416  0.00  0.00    -0.505 OA
ATOM     27  H   UNL     1       2.755   0.446   1.943  0.00  0.00    +0.292 HD
ENDBRANCH  25  26
ENDBRANCH   6  20
TORSDOF 2
