REMARK  Name = ZINC12273773
REMARK  9 active torsions:
REMARK  status: ('A' for Active; 'I' for Inactive)
REMARK    1  A    between atoms: C_1  and  C_2
REMARK    2  A    between atoms: C_5  and  C_8
REMARK    3  A    between atoms: C_8  and  C_9
REMARK    4  A    between atoms: N_13  and  C_30
REMARK    5  A    between atoms: C_15  and  C_16
REMARK    6  A    between atoms: C_15  and  C_18
REMARK    7  A    between atoms: N_20  and  C_21
REMARK    8  A    between atoms: C_22  and  C_28
REMARK    9  A    between atoms: C_26  and  C_27
REMARK                            x       y       z     vdW  Elec       q    Type
REMARK                         _______ _______ _______ _____ _____    ______ ____
ROOT
ATOM      1  C   UNL     1       0.637  -6.112  -1.274  0.00  0.00    +0.143 C 
ATOM      2  C   UNL     1      -0.286  -7.266  -0.916  0.00  0.00    +0.238 C 
ATOM      3  O   UNL     1      -0.224  -7.833   0.154  0.00  0.00    -0.274 OA
ATOM      4  N   UNL     1      -1.160  -7.612  -1.845  0.00  0.00    -0.232 N 
ATOM      5  C   UNL     1      -1.236  -6.976  -3.060  0.00  0.00    +0.098 C 
ATOM      6  C   UNL     1      -2.106  -7.241  -4.119  0.00  0.00    +0.142 C 
ATOM      7  S   UNL     1       0.039  -5.726  -2.967  0.00  0.00    -0.095 S 
ENDROOT
BRANCH   4   8
ATOM      8  C   UNL     1      -2.042  -8.669  -1.581  0.00  0.00    +0.042 A 
ATOM      9  C   UNL     1      -1.623  -9.982  -1.746  0.00  0.00    +0.024 A 
ATOM     10  C   UNL     1      -2.493 -11.021  -1.480  0.00  0.00    +0.002 A 
ATOM     11  C   UNL     1      -3.783 -10.755  -1.060  0.00  0.00    +0.000 A 
ATOM     12  C   UNL     1      -4.205  -9.448  -0.900  0.00  0.00    +0.002 A 
ATOM     13  C   UNL     1      -3.338  -8.404  -1.159  0.00  0.00    +0.024 A 
ENDBRANCH   4   8
BRANCH   6  14
ATOM     14  C   UNL     1      -2.122  -6.365  -5.289  0.00  0.00    +0.261 C 
ATOM     15  O   UNL     1      -1.377  -5.403  -5.340  0.00  0.00    -0.269 OA
ATOM     16  N   UNL     1      -2.962  -6.621  -6.312  0.00  0.00    -0.280 N 
ATOM     17  H   UNL     1      -3.600  -7.349  -6.245  0.00  0.00    +0.155 HD
BRANCH  16  18
ATOM     18  C   UNL     1      -2.915  -5.838  -7.469  0.00  0.00    +0.040 A 
ATOM     19  C   UNL     1      -3.058  -4.459  -7.383  0.00  0.00    -0.029 A 
ATOM     20  C   UNL     1      -3.006  -3.688  -8.527  0.00  0.00    +0.005 A 
ATOM     21  C   UNL     1      -2.822  -4.288  -9.759  0.00  0.00    +0.001 A 
ATOM     22  C   UNL     1      -2.684  -5.661  -9.849  0.00  0.00    +0.005 A 
ATOM     23  C   UNL     1      -2.730  -6.437  -8.708  0.00  0.00    -0.029 A 
ATOM     24  C   UNL     1      -2.580  -7.934  -8.807  0.00  0.00    +0.045 C 
ATOM     25  C   UNL     1      -3.265  -3.805  -6.041  0.00  0.00    +0.045 C 
ENDBRANCH  16  18
ENDBRANCH   6  14
BRANCH   6  26
ATOM     26  C   UNL     1      -2.983  -8.372  -4.059  0.00  0.00    +0.107 C 
ATOM     27  N   UNL     1      -3.678  -9.269  -4.011  0.00  0.00    -0.191 NA
ENDBRANCH   6  26
BRANCH   1  28
ATOM     28  C   UNL     1       2.101  -6.558  -1.291  0.00  0.00    +0.059 C 
BRANCH  28  33
ATOM     29  C   UNL     1       5.476  -2.042  -2.559  0.00  0.00    +0.044 C 
ATOM     30  C   UNL     1       4.596  -3.220  -2.228  0.00  0.00    -0.050 A 
ATOM     31  C   UNL     1       4.095  -4.015  -3.242  0.00  0.00    +0.003 A 
ATOM     32  C   UNL     1       3.292  -5.098  -2.939  0.00  0.00    +0.004 A 
ATOM     33  C   UNL     1       2.981  -5.380  -1.622  0.00  0.00    -0.046 A 
ATOM     34  C   UNL     1       3.477  -4.582  -0.608  0.00  0.00    +0.004 A 
ATOM     35  C   UNL     1       4.284  -3.502  -0.911  0.00  0.00    +0.003 A 
ENDBRANCH  28  33
ENDBRANCH   1  28
TORSDOF 6
