REMARK  Name = ZINC32835924
REMARK  9 active torsions:
REMARK  status: ('A' for Active; 'I' for Inactive)
REMARK    1  A    between atoms: C_1  and  C_2
REMARK    2  A    between atoms: C_2  and  C_3
REMARK    3  A    between atoms: C_2  and  C_4
REMARK    4  A    between atoms: C_4  and  C_5
REMARK    5  A    between atoms: C_5  and  C_7
REMARK    6  A    between atoms: C_5  and  N_24
REMARK    7  A    between atoms: N_9  and  C_10
REMARK    8  A    between atoms: C_10  and  C_11
REMARK    9  A    between atoms: C_17  and  C_20
REMARK                            x       y       z     vdW  Elec       q    Type
REMARK                         _______ _______ _______ _____ _____    ______ ____
ROOT
ATOM      1  C   UNL     1      -1.362  -0.663  -0.230  0.00  0.00    +0.234 C 
ATOM      2  O   UNL     1      -1.681  -1.539   0.546  0.00  0.00    -0.274 OA
ATOM      3  N   UNL     1      -2.211  -0.286  -1.206  0.00  0.00    -0.307 N 
ATOM      4  H   UNL     1      -1.922   0.508  -1.910  0.00  0.00    +0.149 HD
ENDROOT
BRANCH   1   5
ATOM      5  C   UNL     1      -0.017   0.004  -0.102  0.00  0.00    +0.170 C 
BRANCH   5   6
ATOM      6  N   UNL     1       0.712  -0.579   1.027  0.00  0.00    -0.222 N 
ATOM      7  C   UNL     1       0.327  -0.482   2.313  0.00  0.00    +0.254 C 
ATOM      8  O   UNL     1      -0.665   0.092   2.715  0.00  0.00    -0.270 OA
ATOM      9  C   UNL     1       1.311  -1.195   3.154  0.00  0.00    +0.049 A 
ATOM     10  C   UNL     1       1.433  -1.428   4.514  0.00  0.00    +0.014 A 
ATOM     11  C   UNL     1       2.514  -2.152   4.994  0.00  0.00    +0.001 A 
ATOM     12  C   UNL     1       3.469  -2.644   4.124  0.00  0.00    +0.001 A 
ATOM     13  C   UNL     1       3.359  -2.420   2.760  0.00  0.00    +0.014 A 
ATOM     14  C   UNL     1       2.285  -1.697   2.267  0.00  0.00    +0.049 A 
ATOM     15  C   UNL     1       1.857  -1.276   0.916  0.00  0.00    +0.254 C 
ATOM     16  O   UNL     1       2.441  -1.519  -0.120  0.00  0.00    -0.270 OA
ENDBRANCH   5   6
BRANCH   5  17
ATOM     17  C   UNL     1      -0.211   1.503   0.135  0.00  0.00    +0.035 C 
BRANCH  17  19
ATOM     18  C   UNL     1       1.788   2.104  -1.238  0.00  0.00    +0.007 C 
ATOM     19  C   UNL     1       1.152   2.198   0.151  0.00  0.00    -0.015 C 
ATOM     20  C   UNL     1       0.970   3.669   0.530  0.00  0.00    +0.007 C 
ENDBRANCH  17  19
ENDBRANCH   5  17
ENDBRANCH   1   5
BRANCH   3  21
ATOM     21  C   UNL     1      -3.519  -0.934  -1.330  0.00  0.00    +0.181 C 
BRANCH  21  22
ATOM     22  C   UNL     1      -4.269  -0.335  -2.492  0.00  0.00    +0.155 A 
ATOM     23  N   UNL     1      -5.077   0.692  -2.444  0.00  0.00    -0.132 NA
ATOM     24  N   UNL     1      -5.549   0.944  -3.614  0.00  0.00    -0.129 NA
ATOM     25  C   UNL     1      -5.064   0.072  -4.483  0.00  0.00    +0.161 A 
ATOM     26  N   UNL     1      -4.233  -0.767  -3.782  0.00  0.00    -0.285 N 
ATOM     27  C   UNL     1      -3.580  -1.782  -4.417  0.00  0.00    +0.107 A 
ATOM     28  C   UNL     1      -3.741  -1.977  -5.742  0.00  0.00    +0.071 A 
ATOM     29  C   UNL     1      -4.585  -1.135  -6.487  0.00  0.00    +0.017 A 
ATOM     30  C   UNL     1      -5.242  -0.118  -5.867  0.00  0.00    +0.049 A 
BRANCH  28  31
ATOM     31  C   UNL     1      -3.012  -3.103  -6.428  0.00  0.00    +0.419 C 
ATOM     32  F   UNL     1      -3.333  -3.106  -7.790  0.00  0.00    -0.166 F 
ATOM     33  F   UNL     1      -1.632  -2.928  -6.275  0.00  0.00    -0.166 F 
ATOM     34  F   UNL     1      -3.393  -4.322  -5.857  0.00  0.00    -0.166 F 
ENDBRANCH  28  31
ENDBRANCH  21  22
ENDBRANCH   3  21
TORSDOF 7
