REMARK  Name = ZINC37867725
REMARK  7 active torsions:
REMARK  status: ('A' for Active; 'I' for Inactive)
REMARK    1  A    between atoms: C_1  and  O_2
REMARK    2  A    between atoms: O_2  and  C_3
REMARK    3  A    between atoms: C_6  and  N_9
REMARK    4  A    between atoms: N_9  and  C_10
REMARK    5  A    between atoms: C_10  and  C_11
REMARK    6  A    between atoms: N_13  and  C_14
REMARK    7  A    between atoms: C_19  and  C_20
REMARK                            x       y       z     vdW  Elec       q    Type
REMARK                         _______ _______ _______ _____ _____    ______ ____
ROOT
ATOM      1  N   UNL     1       2.490  -2.463   4.243  0.00  0.00    -0.273 N 
ATOM      2  C   UNL     1       2.438  -3.837   4.314  0.00  0.00    +0.136 C 
ATOM      3  N   UNL     1       2.893  -4.597   5.272  0.00  0.00    -0.362 N 
ATOM      4  C   UNL     1       2.785  -6.038   5.191  0.00  0.00    +0.117 C 
ATOM      5  C   UNL     1       2.501  -6.668   6.565  0.00  0.00    +0.191 C 
ATOM      6  S   UNL     1       0.667  -6.772   6.576  0.00  0.00    -0.028 S 
ATOM      7  O   UNL     1       0.146  -5.646   7.270  0.00  0.00    -0.174 OA
ATOM      8  O   UNL     1       0.282  -8.079   6.979  0.00  0.00    -0.174 OA
ATOM      9  C   UNL     1       0.324  -6.576   4.784  0.00  0.00    +0.182 C 
ATOM     10  C   UNL     1       1.716  -6.475   4.163  0.00  0.00    +0.099 C 
ATOM     11  S   UNL     1       1.725  -4.955   3.117  0.00  0.00    -0.085 S 
ATOM     12  H   UNL     1       3.308  -4.191   6.049  0.00  0.00    +0.162 HD
ENDROOT
BRANCH   1  16
ATOM     13  C   UNL     1       0.579  -0.463   1.124  0.00  0.00    +0.120 A 
ATOM     14  C   UNL     1       1.935  -0.269   1.344  0.00  0.00    +0.047 A 
ATOM     15  C   UNL     1       2.569  -0.932   2.377  0.00  0.00    +0.027 A 
ATOM     16  C   UNL     1       1.848  -1.791   3.196  0.00  0.00    +0.036 A 
ATOM     17  C   UNL     1       0.491  -1.983   2.975  0.00  0.00    +0.027 A 
ATOM     18  C   UNL     1      -0.143  -1.317   1.945  0.00  0.00    +0.047 A 
BRANCH  13  20
ATOM     19  C   UNL     1       0.760   1.054  -0.699  0.00  0.00    +0.277 C 
ATOM     20  O   UNL     1      -0.044   0.190   0.106  0.00  0.00    -0.495 OA
ENDBRANCH  13  20
ENDBRANCH   1  16
BRANCH   1  21
ATOM     21  C   UNL     1       3.218  -1.705   5.264  0.00  0.00    +0.208 C 
BRANCH  21  22
ATOM     22  C   UNL     1       2.283  -1.359   6.394  0.00  0.00    +0.235 C 
ATOM     23  O   UNL     1       1.123  -1.712   6.352  0.00  0.00    -0.274 OA
ATOM     24  N   UNL     1       2.736  -0.658   7.453  0.00  0.00    -0.284 N 
ATOM     25  H   UNL     1       3.647  -0.326   7.460  0.00  0.00    +0.155 HD
BRANCH  24  26
ATOM     26  C   UNL     1       1.891  -0.410   8.540  0.00  0.00    +0.045 A 
ATOM     27  C   UNL     1       0.533  -0.203   8.334  0.00  0.00    +0.024 A 
ATOM     28  C   UNL     1      -0.297   0.042   9.410  0.00  0.00    +0.002 A 
ATOM     29  C   UNL     1       0.222   0.082  10.691  0.00  0.00    +0.001 A 
ATOM     30  C   UNL     1       1.573  -0.123  10.900  0.00  0.00    +0.014 A 
ATOM     31  C   UNL     1       2.408  -0.375   9.829  0.00  0.00    +0.076 A 
BRANCH  31  32
ATOM     32  C   UNL     1       3.880  -0.606  10.057  0.00  0.00    +0.419 C 
ATOM     33  F   UNL     1       4.157  -0.523  11.426  0.00  0.00    -0.166 F 
ATOM     34  F   UNL     1       4.231  -1.876   9.586  0.00  0.00    -0.166 F 
ATOM     35  F   UNL     1       4.616   0.366   9.372  0.00  0.00    -0.166 F 
ENDBRANCH  31  32
ENDBRANCH  24  26
ENDBRANCH  21  22
ENDBRANCH   1  21
TORSDOF 6
