REMARK  Name = ZINC27567932
REMARK  7 active torsions:
REMARK  status: ('A' for Active; 'I' for Inactive)
REMARK    1  A    between atoms: C_1  and  C_2
REMARK    2  A    between atoms: C_2  and  C_27
REMARK    3  A    between atoms: N_5  and  C_9
REMARK    4  A    between atoms: C_9  and  C_10
REMARK    5  A    between atoms: N_12  and  C_13
REMARK    6  A    between atoms: N_12  and  C_21
REMARK    7  A    between atoms: C_13  and  C_14
REMARK                            x       y       z     vdW  Elec       q    Type
REMARK                         _______ _______ _______ _____ _____    ______ ____
ROOT
ATOM      1  C   UNL     1       1.130  -1.649  -2.440  0.00  0.00    +0.047 C 
ATOM      2  C   UNL     1       1.100  -0.765  -1.192  0.00  0.00    +0.135 C 
ATOM      3  C   UNL     1       2.127  -1.233  -0.179  0.00  0.00    +0.251 C 
ATOM      4  O   UNL     1       3.329  -1.286  -0.326  0.00  0.00    -0.272 OA
ATOM      5  N   UNL     1       1.425  -1.578   0.918  0.00  0.00    -0.215 N 
ATOM      6  C   UNL     1       0.111  -1.396   0.742  0.00  0.00    +0.310 C 
ATOM      7  O   UNL     1      -0.725  -1.637   1.590  0.00  0.00    -0.252 OA
ATOM      8  N   UNL     1      -0.181  -0.916  -0.481  0.00  0.00    -0.281 N 
ATOM      9  H   UNL     1      -1.123  -0.647  -0.981  0.00  0.00    +0.152 HD
ENDROOT
BRANCH   2  10
ATOM     10  C   UNL     1       1.336   0.677  -1.559  0.00  0.00    -0.012 A 
ATOM     11  C   UNL     1       2.626   1.172  -1.616  0.00  0.00    +0.010 A 
ATOM     12  C   UNL     1       2.846   2.495  -1.951  0.00  0.00    +0.050 A 
ATOM     13  C   UNL     1       1.774   3.329  -2.232  0.00  0.00    +0.162 A 
ATOM     14  C   UNL     1       0.478   2.830  -2.178  0.00  0.00    +0.162 A 
ATOM     15  C   UNL     1       0.264   1.500  -1.845  0.00  0.00    +0.055 A 
ATOM     16  O   UNL     1      -0.589   3.629  -2.454  0.00  0.00    -0.485 OA
ATOM     17  C   UNL     1      -0.359   5.042  -2.418  0.00  0.00    +0.270 C 
ATOM     18  C   UNL     1       0.935   5.338  -3.188  0.00  0.00    +0.270 C 
ATOM     19  O   UNL     1       2.006   4.631  -2.553  0.00  0.00    -0.485 OA
ENDBRANCH   2  10
BRANCH   5  20
ATOM     20  C   UNL     1       2.026  -2.091   2.152  0.00  0.00    +0.213 C 
BRANCH  20  21
ATOM     21  C   UNL     1       2.114  -3.593   2.082  0.00  0.00    +0.234 C 
ATOM     22  O   UNL     1       1.767  -4.175   1.075  0.00  0.00    -0.274 OA
ATOM     23  N   UNL     1       2.579  -4.292   3.137  0.00  0.00    -0.293 N 
BRANCH  23  24
ATOM     24  C   UNL     1       2.767  -5.741   3.031  0.00  0.00    +0.076 C 
ATOM     25  C   UNL     1       3.727  -6.048   1.879  0.00  0.00    +0.022 C 
ATOM     26  C   UNL     1       3.923  -7.561   1.769  0.00  0.00    +0.002 C 
ATOM     27  C   UNL     1       2.574  -8.232   1.501  0.00  0.00    +0.000 C 
ATOM     28  C   UNL     1       1.615  -7.925   2.652  0.00  0.00    +0.002 C 
ATOM     29  C   UNL     1       1.418  -6.412   2.763  0.00  0.00    +0.022 C 
ENDBRANCH  23  24
BRANCH  23  30
ATOM     30  C   UNL     1       2.896  -3.601   4.389  0.00  0.00    +0.143 C 
BRANCH  30  31
ATOM     31  C   UNL     1       1.718  -3.694   5.326  0.00  0.00    -0.030 A 
ATOM     32  C   UNL     1       0.760  -2.698   5.331  0.00  0.00    +0.008 A 
ATOM     33  C   UNL     1      -0.323  -2.785   6.185  0.00  0.00    +0.038 A 
ATOM     34  C   UNL     1      -0.442  -3.865   7.044  0.00  0.00    +0.123 A 
ATOM     35  C   UNL     1       0.522  -4.859   7.042  0.00  0.00    +0.038 A 
ATOM     36  C   UNL     1       1.601  -4.773   6.183  0.00  0.00    +0.008 A 
ATOM     37  F   UNL     1      -1.497  -3.947   7.884  0.00  0.00    -0.205 F 
ENDBRANCH  30  31
ENDBRANCH  23  30
ENDBRANCH  20  21
ENDBRANCH   5  20
TORSDOF 6
