REMARK  Name = ZINC13495614
REMARK  13 active torsions:
REMARK  status: ('A' for Active; 'I' for Inactive)
REMARK    1  A    between atoms: C_1  and  C_2
REMARK    2  A    between atoms: C_2  and  C_3
REMARK    3  A    between atoms: C_3  and  C_5
REMARK    4  A    between atoms: C_3  and  N_19
REMARK    5  A    between atoms: N_9  and  C_10
REMARK    6  A    between atoms: C_10  and  C_11
REMARK    7  A    between atoms: C_14  and  O_17
REMARK    8  A    between atoms: O_17  and  C_18
REMARK    9  A    between atoms: N_19  and  C_20
REMARK   10  A    between atoms: N_19  and  C_26
REMARK   11  A    between atoms: C_20  and  C_21
REMARK   12  A    between atoms: C_26  and  C_27
REMARK   13  A    between atoms: C_31  and  C_39
REMARK                            x       y       z     vdW  Elec       q    Type
REMARK                         _______ _______ _______ _____ _____    ______ ____
ROOT
ATOM      1  N   UNL     1       2.980  -0.468  -1.316  0.00  0.00    -0.281 NA
ENDROOT
BRANCH   1   2
ATOM      2  C   UNL     1       1.603  -0.716  -1.762  0.00  0.00    +0.127 C 
BRANCH   2   3
ATOM      3  C   UNL     1       1.575  -1.929  -2.656  0.00  0.00    +0.169 A 
ATOM      4  N   UNL     1       2.200  -3.063  -2.456  0.00  0.00    -0.112 NA
ATOM      5  N   UNL     1       1.926  -3.848  -3.441  0.00  0.00    -0.023 NA
ATOM      6  N   UNL     1       1.141  -3.243  -4.263  0.00  0.00    -0.044 NA
ATOM      7  N   UNL     1       0.897  -2.059  -3.812  0.00  0.00    -0.223 N 
BRANCH   7   8
ATOM      8  C   UNL     1       0.046  -1.047  -4.441  0.00  0.00    +0.182 C 
BRANCH   8   9
ATOM      9  C   UNL     1       0.877  -0.200  -5.371  0.00  0.00    -0.026 A 
ATOM     10  C   UNL     1       1.497   0.941  -4.896  0.00  0.00    +0.009 A 
ATOM     11  C   UNL     1       2.259   1.720  -5.746  0.00  0.00    +0.046 A 
ATOM     12  C   UNL     1       2.401   1.355  -7.077  0.00  0.00    +0.120 A 
ATOM     13  C   UNL     1       1.778   0.210  -7.551  0.00  0.00    +0.046 A 
ATOM     14  C   UNL     1       1.022  -0.568  -6.696  0.00  0.00    +0.009 A 
BRANCH  12  15
ATOM     15  O   UNL     1       3.150   2.120  -7.915  0.00  0.00    -0.495 OA
ATOM     16  C   UNL     1       3.252   1.684  -9.273  0.00  0.00    +0.277 C 
ENDBRANCH  12  15
ENDBRANCH   8   9
ENDBRANCH   7   8
ENDBRANCH   2   3
BRANCH   2  18
ATOM     17  C   UNL     1       0.638   0.315   0.299  0.00  0.00    +0.006 C 
ATOM     18  C   UNL     1       0.709  -0.959  -0.544  0.00  0.00    +0.023 C 
ENDBRANCH   2  18
ENDBRANCH   1   2
BRANCH   1  19
ATOM     19  C   UNL     1       3.267  -1.185  -0.067  0.00  0.00    +0.159 C 
BRANCH  19  20
ATOM     20  C   UNL     1       3.390  -2.660  -0.351  0.00  0.00    +0.119 A 
ATOM     21  C   UNL     1       4.488  -3.282  -0.817  0.00  0.00    +0.046 A 
ATOM     22  C   UNL     1       4.163  -4.653  -0.935  0.00  0.00    +0.041 A 
ATOM     23  C   UNL     1       2.886  -4.787  -0.535  0.00  0.00    +0.195 A 
ATOM     24  O   UNL     1       2.425  -3.577  -0.176  0.00  0.00    -0.467 OA
ENDBRANCH  19  20
ENDBRANCH   1  19
BRANCH   1  25
ATOM     25  C   UNL     1       3.234   0.971  -1.167  0.00  0.00    +0.126 C 
BRANCH  25  26
ATOM     26  C   UNL     1       4.720   1.216  -1.115  0.00  0.00    +0.031 A 
ATOM     27  C   UNL     1       5.397   1.513  -2.252  0.00  0.00    +0.020 A 
ATOM     28  C   UNL     1       6.840   1.746  -2.168  0.00  0.00    -0.001 A 
ATOM     29  C   UNL     1       7.591   2.056  -3.306  0.00  0.00    +0.013 A 
ATOM     30  C   UNL     1       8.935   2.268  -3.193  0.00  0.00    -0.050 A 
ATOM     31  C   UNL     1       9.563   2.178  -1.958  0.00  0.00    +0.005 A 
ATOM     32  C   UNL     1       8.844   1.873  -0.824  0.00  0.00    +0.026 A 
ATOM     33  C   UNL     1       7.473   1.654  -0.914  0.00  0.00    +0.049 A 
ATOM     34  N   UNL     1       6.728   1.349   0.205  0.00  0.00    -0.322 N 
ATOM     35  H   UNL     1       7.166   1.286   1.068  0.00  0.00    +0.169 HD
ATOM     36  C   UNL     1       5.402   1.142   0.118  0.00  0.00    +0.254 A 
ATOM     37  O   UNL     1       4.774   0.879   1.129  0.00  0.00    -0.268 OA
ATOM     38  C   UNL     1       9.744   2.602  -4.420  0.00  0.00    +0.044 C 
ENDBRANCH  25  26
ENDBRANCH   1  25
TORSDOF 10
