REMARK  Name = ZINC66574320
REMARK  9 active torsions:
REMARK  status: ('A' for Active; 'I' for Inactive)
REMARK    1  A    between atoms: C_1  and  C_2
REMARK    2  A    between atoms: N_11  and  C_15
REMARK    3  A    between atoms: C_15  and  C_16
REMARK    4  A    between atoms: N_18  and  N_19
REMARK    5  A    between atoms: C_20  and  C_22
REMARK    6  A    between atoms: C_22  and  C_23
REMARK    7  A    between atoms: C_23  and  C_24
REMARK    8  A    between atoms: C_24  and  C_25
REMARK    9  A    between atoms: C_24  and  C_26
REMARK                            x       y       z     vdW  Elec       q    Type
REMARK                         _______ _______ _______ _____ _____    ______ ____
ROOT
ATOM      1  C   UNL     1      -0.019   1.526   0.010  0.00  0.00    +0.010 C 
ATOM      2  C   UNL     1       0.002  -0.004   0.002  0.00  0.00    +0.018 C 
ATOM      3  C   UNL     1       0.718  -0.497  -1.258  0.00  0.00    +0.006 C 
ATOM      4  C   UNL     1       0.756  -2.027  -1.256  0.00  0.00    +0.000 C 
ATOM      5  C   UNL     1       1.519  -2.517  -0.023  0.00  0.00    +0.003 C 
ATOM      6  C   UNL     1       0.807  -2.032   1.242  0.00  0.00    +0.035 C 
ATOM      7  C   UNL     1       0.739  -0.509   1.238  0.00  0.00    +0.115 C 
ATOM      8  C   UNL     1       2.128   0.083   1.303  0.00  0.00    +0.247 C 
ATOM      9  O   UNL     1       3.022  -0.055   0.496  0.00  0.00    -0.273 OA
ATOM     10  N   UNL     1       2.163   0.796   2.447  0.00  0.00    -0.215 N 
ATOM     11  C   UNL     1       0.998   0.734   3.103  0.00  0.00    +0.310 C 
ATOM     12  O   UNL     1       0.786   1.296   4.159  0.00  0.00    -0.252 OA
ATOM     13  N   UNL     1       0.086  -0.021   2.460  0.00  0.00    -0.285 N 
ATOM     14  H   UNL     1      -0.822  -0.205   2.747  0.00  0.00    +0.151 HD
ENDROOT
BRANCH  10  15
ATOM     15  C   UNL     1       3.332   1.546   2.915  0.00  0.00    +0.215 C 
BRANCH  15  16
ATOM     16  C   UNL     1       3.277   2.951   2.373  0.00  0.00    +0.247 C 
ATOM     17  O   UNL     1       2.353   3.293   1.666  0.00  0.00    -0.273 OA
ATOM     18  N   UNL     1       4.255   3.827   2.674  0.00  0.00    -0.233 N 
ATOM     19  H   UNL     1       4.995   3.554   3.240  0.00  0.00    +0.173 HD
BRANCH  18  20
ATOM     20  N   UNL     1       4.205   5.134   2.171  0.00  0.00    -0.234 N 
ATOM     21  C   UNL     1       5.183   6.011   2.472  0.00  0.00    +0.229 C 
ATOM     22  O   UNL     1       6.107   5.669   3.179  0.00  0.00    -0.274 OA
ATOM     23  H   UNL     1       3.466   5.407   1.605  0.00  0.00    +0.173 HD
BRANCH  21  24
ATOM     24  C   UNL     1       5.129   7.416   1.930  0.00  0.00    +0.097 C 
BRANCH  24  25
ATOM     25  C   UNL     1       6.349   8.198   2.419  0.00  0.00    +0.012 C 
BRANCH  25  26
ATOM     26  C   UNL     1       6.294   9.625   1.869  0.00  0.00    -0.017 C 
ATOM     27  C   UNL     1       5.084  10.352   2.459  0.00  0.00    +0.007 C 
ATOM     28  C   UNL     1       7.574  10.370   2.253  0.00  0.00    +0.007 C 
ENDBRANCH  25  26
ENDBRANCH  24  25
ENDBRANCH  21  24
ENDBRANCH  18  20
ENDBRANCH  15  16
ENDBRANCH  10  15
TORSDOF 6
