REMARK  Name = ZINC63426649
REMARK  10 active torsions:
REMARK  status: ('A' for Active; 'I' for Inactive)
REMARK    1  A    between atoms: C_1  and  C_2
REMARK    2  A    between atoms: C_6  and  N_9
REMARK    3  A    between atoms: C_7  and  C_8
REMARK    4  A    between atoms: N_12  and  C_15
REMARK    5  A    between atoms: C_15  and  C_17
REMARK    6  A    between atoms: C_15  and  C_18
REMARK    7  A    between atoms: N_20  and  C_21
REMARK    8  A    between atoms: C_29  and  C_31
REMARK    9  A    between atoms: C_31  and  O_33
REMARK   10  A    between atoms: O_33  and  C_34
REMARK                            x       y       z     vdW  Elec       q    Type
REMARK                         _______ _______ _______ _____ _____    ______ ____
ROOT
ATOM      1  C   UNL     1       1.171  -3.665   7.357  0.00  0.00    +0.234 C 
ATOM      2  O   UNL     1       1.800  -4.437   6.665  0.00  0.00    -0.274 OA
ATOM      3  N   UNL     1       1.532  -3.462   8.639  0.00  0.00    -0.285 N 
ATOM      4  H   UNL     1       1.061  -2.808   9.178  0.00  0.00    +0.155 HD
ENDROOT
BRANCH   3   5
ATOM      5  C   UNL     1       2.559  -4.177   9.179  0.00  0.00    +0.053 C 
ATOM      6  C   UNL     1       2.886  -4.289  10.519  0.00  0.00    +0.019 A 
ATOM      7  C   UNL     1       2.309  -3.742  11.691  0.00  0.00    +0.031 A 
ATOM      8  C   UNL     1       2.850  -4.027  12.902  0.00  0.00    +0.042 A 
ATOM      9  C   UNL     1       3.972  -4.853  13.028  0.00  0.00    +0.022 A 
ATOM     10  C   UNL     1       4.575  -5.410  11.950  0.00  0.00    +0.027 A 
ATOM     11  C   UNL     1       4.067  -5.159  10.648  0.00  0.00    +0.045 A 
ATOM     12  N   UNL     1       4.465  -5.574   9.462  0.00  0.00    -0.367 N 
ATOM     13  C   UNL     1       3.575  -5.017   8.438  0.00  0.00    +0.234 C 
ATOM     14 CL   UNL     1       2.134  -3.350  14.331  0.00  0.00    -0.084 Cl
ATOM     15  H   UNL     1       5.222  -6.156   9.294  0.00  0.00    +0.161 HD
BRANCH  13  16
ATOM     16  C   UNL     1       4.363  -4.157   7.483  0.00  0.00    +0.335 C 
ATOM     17  O   UNL     1       5.482  -3.804   7.770  0.00  0.00    -0.248 OA
BRANCH  16  18
ATOM     18  O   UNL     1       3.821  -3.784   6.313  0.00  0.00    -0.466 OA
ATOM     19  C   UNL     1       4.623  -2.969   5.457  0.00  0.00    +0.280 C 
ENDBRANCH  16  18
ENDBRANCH  13  16
ENDBRANCH   3   5
BRANCH   1  20
ATOM     20  C   UNL     1      -0.014  -2.933   6.783  0.00  0.00    +0.140 C 
ATOM     21  C   UNL     1       0.230  -1.424   6.864  0.00  0.00    +0.034 C 
BRANCH  20  25
ATOM     22  N   UNL     1      -0.456  -3.107   2.613  0.00  0.00    -0.327 N 
ATOM     23  C   UNL     1      -1.670  -3.292   3.422  0.00  0.00    +0.120 C 
ATOM     24  C   UNL     1      -1.416  -2.720   4.820  0.00  0.00    +0.104 C 
ATOM     25  N   UNL     1      -0.199  -3.324   5.379  0.00  0.00    -0.289 NA
ATOM     26  C   UNL     1       0.983  -2.981   4.577  0.00  0.00    +0.104 C 
ATOM     27  C   UNL     1       0.826  -3.569   3.166  0.00  0.00    +0.120 C 
BRANCH  22  33
ATOM     28  C   UNL     1      -0.287   0.942  -0.168  0.00  0.00    +0.044 C 
ATOM     29  C   UNL     1      -0.441  -0.551  -0.027  0.00  0.00    -0.046 A 
ATOM     30  C   UNL     1      -0.645  -1.333  -1.149  0.00  0.00    +0.004 A 
ATOM     31  C   UNL     1      -0.787  -2.703  -1.025  0.00  0.00    +0.002 A 
ATOM     32  C   UNL     1      -0.725  -3.294   0.222  0.00  0.00    +0.023 A 
ATOM     33  C   UNL     1      -0.519  -2.512   1.351  0.00  0.00    +0.033 A 
ATOM     34  C   UNL     1      -0.372  -1.136   1.221  0.00  0.00    -0.027 A 
ATOM     35  C   UNL     1      -0.143  -0.284   2.443  0.00  0.00    +0.046 C 
ENDBRANCH  22  33
ENDBRANCH  20  25
ENDBRANCH   1  20
TORSDOF 6
