REMARK  Name = ZINC01189202
REMARK  9 active torsions:
REMARK  status: ('A' for Active; 'I' for Inactive)
REMARK    1  A    between atoms: C_1  and  C_2
REMARK    2  A    between atoms: C_3  and  C_28
REMARK    3  A    between atoms: C_4  and  C_16
REMARK    4  A    between atoms: C_10  and  C_14
REMARK    5  A    between atoms: C_10  and  C_15
REMARK    6  A    between atoms: C_28  and  O_30
REMARK    7  A    between atoms: O_30  and  C_31
REMARK    8  A    between atoms: C_31  and  C_32
REMARK    9  A    between atoms: C_32  and  C_33
REMARK                            x       y       z     vdW  Elec       q    Type
REMARK                         _______ _______ _______ _____ _____    ______ ____
ROOT
ATOM      1  C   UNL     1       4.278  -3.443  -2.341  0.00  0.00    +0.061 C 
ATOM      2  C   UNL     1       3.478  -2.987  -1.148  0.00  0.00    +0.016 C 
ATOM      3  C   UNL     1       2.203  -2.595  -1.310  0.00  0.00    +0.065 C 
ATOM      4  C   UNL     1       1.378  -2.128  -0.146  0.00  0.00    +0.099 C 
ATOM      5  C   UNL     1       1.991  -2.566   1.161  0.00  0.00    +0.024 C 
ATOM      6  C   UNL     1       3.282  -2.955   1.221  0.00  0.00    +0.016 C 
ATOM      7  N   UNL     1       4.055  -2.974   0.091  0.00  0.00    -0.321 N 
ATOM      8  C   UNL     1       3.907  -3.374   2.528  0.00  0.00    +0.058 C 
ATOM      9  C   UNL     1       2.842  -4.009   3.426  0.00  0.00    -0.023 C 
ATOM     10  C   UNL     1       1.721  -2.988   3.646  0.00  0.00    +0.086 C 
ATOM     11  C   UNL     1       1.182  -2.557   2.310  0.00  0.00    +0.162 C 
ATOM     12  O   UNL     1       0.025  -2.193   2.223  0.00  0.00    -0.292 OA
ATOM     13  C   UNL     1       2.275  -5.257   2.747  0.00  0.00    +0.011 C 
ATOM     14  C   UNL     1       3.465  -4.392   4.770  0.00  0.00    +0.011 C 
ATOM     15  H   UNL     1       5.151  -2.979   0.188  0.00  0.00    +0.152 HD
ENDROOT
BRANCH   4  16
ATOM     16  C   UNL     1       1.292  -0.624  -0.173  0.00  0.00    +0.047 A 
ATOM     17  C   UNL     1       2.410   0.120  -0.101  0.00  0.00    +0.204 A 
ATOM     18  O   UNL     1       2.395   1.456  -0.120  0.00  0.00    -0.462 OA
ATOM     19  C   UNL     1       1.252   2.165  -0.214  0.00  0.00    +0.138 A 
ATOM     20  C   UNL     1       1.270   3.555  -0.232  0.00  0.00    +0.048 A 
ATOM     21  C   UNL     1       0.088   4.257  -0.329  0.00  0.00    +0.023 A 
ATOM     22  C   UNL     1      -1.128   3.591  -0.409  0.00  0.00    +0.042 A 
ATOM     23  C   UNL     1      -1.168   2.213  -0.388  0.00  0.00    +0.035 A 
ATOM     24  C   UNL     1       0.022   1.493  -0.296  0.00  0.00    +0.066 A 
ATOM     25  C   UNL     1       0.029   0.017  -0.275  0.00  0.00    +0.197 A 
ATOM     26  O   UNL     1      -1.006  -0.625  -0.342  0.00  0.00    -0.287 OA
ATOM     27 CL   UNL     1      -2.603   4.497  -0.530  0.00  0.00    -0.084 Cl
ENDBRANCH   4  16
BRANCH   3  28
ATOM     28  C   UNL     1       1.627  -2.624  -2.601  0.00  0.00    +0.338 C 
ATOM     29  O   UNL     1       2.313  -2.898  -3.568  0.00  0.00    -0.245 OA
BRANCH  28  30
ATOM     30  O   UNL     1       0.315  -2.347  -2.761  0.00  0.00    -0.461 OA
BRANCH  30  31
ATOM     31  C   UNL     1      -0.200  -2.394  -4.093  0.00  0.00    +0.237 C 
BRANCH  31  32
ATOM     32  C   UNL     1      -1.691  -2.055  -4.076  0.00  0.00    +0.076 C 
BRANCH  32  33
ATOM     33  C   UNL     1      -2.235  -2.105  -5.481  0.00  0.00    -0.044 A 
ATOM     34  C   UNL     1      -2.227  -0.967  -6.266  0.00  0.00    +0.004 A 
ATOM     35  C   UNL     1      -2.721  -1.014  -7.556  0.00  0.00    +0.000 A 
ATOM     36  C   UNL     1      -3.232  -2.196  -8.057  0.00  0.00    +0.000 A 
ATOM     37  C   UNL     1      -3.244  -3.333  -7.271  0.00  0.00    +0.000 A 
ATOM     38  C   UNL     1      -2.746  -3.287  -5.982  0.00  0.00    +0.004 A 
ENDBRANCH  32  33
ENDBRANCH  31  32
ENDBRANCH  30  31
ENDBRANCH  28  30
ENDBRANCH   3  28
TORSDOF 6
