REMARK  Name = ZINC32995990
REMARK  5 active torsions:
REMARK  status: ('A' for Active; 'I' for Inactive)
REMARK    1  A    between atoms: C_1  and  C_2
REMARK    2  A    between atoms: C_7  and  C_8
REMARK    3  A    between atoms: C_14  and  C_18
REMARK    4  A    between atoms: C_18  and  N_19
REMARK    5  A    between atoms: N_22  and  C_23
REMARK                            x       y       z     vdW  Elec       q    Type
REMARK                         _______ _______ _______ _____ _____    ______ ____
ROOT
ATOM      1  C   UNL     1      -2.281   5.200   0.028  0.00  0.00    +0.133 A 
ATOM      2  N   UNL     1      -2.390   3.898   0.020  0.00  0.00    -0.154 NA
ATOM      3  N   UNL     1      -1.267   3.076   0.008  0.00  0.00    -0.171 N 
ATOM      4  C   UNL     1      -1.244   1.711  -0.007  0.00  0.00    +0.275 A 
ATOM      5  O   UNL     1      -2.291   1.082  -0.011  0.00  0.00    -0.266 OA
ATOM      6  C   UNL     1      -0.023   1.036  -0.012  0.00  0.00    +0.097 A 
ATOM      7  C   UNL     1       1.155   1.753  -0.014  0.00  0.00    +0.066 A 
ATOM      8  N   UNL     1       1.097   3.082  -0.005  0.00  0.00    -0.225 NA
ATOM      9  C   UNL     1      -0.053   3.708   0.006  0.00  0.00    +0.199 A 
ATOM     10  S   UNL     1      -0.510   5.428   0.019  0.00  0.00    -0.028 S 
ENDROOT
BRANCH   1  17
ATOM     11  C   UNL     1      -5.053   4.374   0.027  0.00  0.00    +0.044 C 
ATOM     12  C   UNL     1      -4.690   5.836   0.040  0.00  0.00    -0.041 A 
ATOM     13  C   UNL     1      -5.683   6.795   0.058  0.00  0.00    +0.004 A 
ATOM     14  C   UNL     1      -5.351   8.138   0.064  0.00  0.00    +0.000 A 
ATOM     15  C   UNL     1      -4.023   8.529   0.059  0.00  0.00    +0.001 A 
ATOM     16  C   UNL     1      -3.022   7.580   0.047  0.00  0.00    +0.011 A 
ATOM     17  C   UNL     1      -3.350   6.224   0.041  0.00  0.00    +0.012 A 
ENDBRANCH   1  17
BRANCH   7  18
ATOM     18  C   UNL     1       2.484   1.043  -0.026  0.00  0.00    +0.161 C 
BRANCH  18  19
ATOM     19  N   UNL     1       3.183   1.336  -1.280  0.00  0.00    -0.294 N 
ATOM     20  C   UNL     1       4.400   0.805  -1.513  0.00  0.00    +0.304 C 
ATOM     21  O   UNL     1       4.918   0.084  -0.682  0.00  0.00    -0.252 OA
ATOM     22  N   UNL     1       5.043   1.075  -2.666  0.00  0.00    -0.267 N 
ATOM     23  H   UNL     1       2.715   1.989  -2.031  0.00  0.00    +0.151 HD
ATOM     24  H   UNL     1       4.545   1.667  -3.448  0.00  0.00    +0.156 HD
BRANCH  22  25
ATOM     25  C   UNL     1       6.345   0.601  -2.869  0.00  0.00    +0.070 A 
ATOM     26  C   UNL     1       6.726  -0.629  -2.351  0.00  0.00    +0.026 A 
ATOM     27  C   UNL     1       8.010  -1.097  -2.557  0.00  0.00    +0.002 A 
ATOM     28  C   UNL     1       8.918  -0.337  -3.271  0.00  0.00    +0.003 A 
ATOM     29  C   UNL     1       8.545   0.891  -3.785  0.00  0.00    +0.040 A 
ATOM     30  C   UNL     1       7.260   1.363  -3.587  0.00  0.00    +0.145 A 
ATOM     31  F   UNL     1       6.895   2.563  -4.088  0.00  0.00    -0.204 F 
ENDBRANCH  22  25
ENDBRANCH  18  19
ENDBRANCH   7  18
TORSDOF 4
