REMARK  Name = ZINC01787507
REMARK  6 active torsions:
REMARK  status: ('A' for Active; 'I' for Inactive)
REMARK    1  A    between atoms: C_1  and  C_2
REMARK    2  A    between atoms: N_13  and  C_16
REMARK    3  A    between atoms: C_16  and  C_17
REMARK    4  A    between atoms: N_19  and  C_20
REMARK    5  A    between atoms: C_21  and  C_31
REMARK    6  A    between atoms: C_23  and  C_25
REMARK                            x       y       z     vdW  Elec       q    Type
REMARK                         _______ _______ _______ _____ _____    ______ ____
ROOT
ATOM      1  C   UNL     1      -5.200   3.340   0.060  0.00  0.00    +0.237 C 
ATOM      2  O   UNL     1      -6.122   2.552   0.060  0.00  0.00    -0.273 OA
ATOM      3  N   UNL     1      -3.929   2.890   0.047  0.00  0.00    -0.278 N 
ATOM      4  H   UNL     1      -3.192   3.520   0.048  0.00  0.00    +0.155 HD
ENDROOT
BRANCH   3   5
ATOM      5  C   UNL     1      -3.677   1.528   0.033  0.00  0.00    +0.084 A 
ATOM      6  C   UNL     1      -2.448   0.873   0.018  0.00  0.00    +0.066 A 
ATOM      7  C   UNL     1      -2.457  -0.522   0.011  0.00  0.00    +0.031 A 
ATOM      8  C   UNL     1      -3.667  -1.146   0.014  0.00  0.00    +0.022 A 
ATOM      9  S   UNL     1      -4.813   0.219   0.027  0.00  0.00    -0.073 S 
BRANCH   8  10
ATOM     10  C   UNL     1      -3.957  -2.595   0.008  0.00  0.00    -0.011 A 
ATOM     11  C   UNL     1      -2.912  -3.519  -0.008  0.00  0.00    +0.009 A 
ATOM     12  C   UNL     1      -3.190  -4.871  -0.008  0.00  0.00    +0.001 A 
ATOM     13  C   UNL     1      -4.502  -5.310  -0.004  0.00  0.00    +0.000 A 
ATOM     14  C   UNL     1      -5.543  -4.399   0.006  0.00  0.00    +0.001 A 
ATOM     15  C   UNL     1      -5.279  -3.045   0.012  0.00  0.00    +0.009 A 
ENDBRANCH   8  10
BRANCH   6  16
ATOM     16  C   UNL     1      -1.187   1.624   0.017  0.00  0.00    +0.244 C 
ATOM     17  O   UNL     1      -1.204   2.841   0.023  0.00  0.00    -0.270 OA
ATOM     18  N   UNL     1      -0.011   0.966   0.007  0.00  0.00    -0.325 N 
ATOM     19  H   UNL     1       0.002  -0.004   0.002  0.00  0.00    +0.145 HD
ATOM     20  H   UNL     1       0.822   1.462   0.002  0.00  0.00    +0.145 HD
ENDBRANCH   6  16
ENDBRANCH   3   5
BRANCH   1  21
ATOM     21  C   UNL     1      -5.474   4.822   0.076  0.00  0.00    +0.222 C 
BRANCH  21  33
ATOM     22  C   UNL     1     -12.757   6.021   5.596  0.00  0.00    +0.008 C 
ATOM     23  C   UNL     1     -11.680   6.152   4.518  0.00  0.00    -0.009 C 
ATOM     24  C   UNL     1     -10.571   5.127   4.772  0.00  0.00    +0.008 C 
ATOM     25  C   UNL     1      -9.380   5.411   3.856  0.00  0.00    +0.037 C 
ATOM     26  C   UNL     1      -9.877   5.500   2.416  0.00  0.00    -0.023 A 
ATOM     27  C   UNL     1     -11.184   5.707   2.149  0.00  0.00    -0.004 A 
ATOM     28  S   UNL     1     -11.293   5.737   0.380  0.00  0.00    -0.073 S 
ATOM     29  C   UNL     1      -9.579   5.470   0.004  0.00  0.00    +0.116 A 
ATOM     30  C   UNL     1      -8.980   5.366   1.269  0.00  0.00    +0.076 A 
ATOM     31  C   UNL     1      -7.564   5.142   1.267  0.00  0.00    +0.263 A 
ATOM     32  O   UNL     1      -6.952   5.038   2.316  0.00  0.00    -0.267 OA
ATOM     33  N   UNL     1      -6.921   5.050   0.088  0.00  0.00    -0.290 N 
ATOM     34  C   UNL     1      -7.586   5.170  -1.090  0.00  0.00    +0.203 A 
ATOM     35  N   UNL     1      -8.877   5.368  -1.121  0.00  0.00    -0.230 NA
ATOM     36  C   UNL     1     -12.297   5.877   3.138  0.00  0.00    +0.046 C 
ENDBRANCH  21  33
ENDBRANCH   1  21
TORSDOF 5
