REMARK  Name = ZINC12150275
REMARK  11 active torsions:
REMARK  status: ('A' for Active; 'I' for Inactive)
REMARK    1  A    between atoms: C_1  and  C_2
REMARK    2  A    between atoms: C_3  and  C_7
REMARK    3  A    between atoms: C_7  and  N_71
REMARK    4  A    between atoms: C_8  and  N_71
REMARK    5  A    between atoms: C_9  and  C_10
REMARK    6  A    between atoms: C_9  and  N_71
REMARK    7  A    between atoms: C_12  and  C_33
REMARK    8  A    between atoms: C_15  and  O_16
REMARK    9  A    between atoms: O_16  and  C_17
REMARK   10  A    between atoms: C_17  and  C_18
REMARK   11  A    between atoms: C_25  and  C_27
REMARK                            x       y       z     vdW  Elec       q    Type
REMARK                         _______ _______ _______ _____ _____    ______ ____
ROOT
ATOM      1  C   UNL     1      -3.803   2.096   3.568  0.00  0.00    -0.022 A 
ATOM      2  C   UNL     1      -3.192   2.975   4.438  0.00  0.00    +0.013 A 
ATOM      3  C   UNL     1      -3.621   3.054   5.762  0.00  0.00    -0.017 A 
ATOM      4  C   UNL     1      -4.659   2.236   6.205  0.00  0.00    +0.012 A 
ATOM      5  C   UNL     1      -5.262   1.355   5.332  0.00  0.00    +0.046 A 
ATOM      6  C   UNL     1      -4.836   1.283   4.012  0.00  0.00    +0.123 A 
ENDROOT
BRANCH   3   7
ATOM      7  C   UNL     1      -2.970   4.003   6.699  0.00  0.00    -0.018 A 
ATOM      8  C   UNL     1      -1.929   4.816   6.258  0.00  0.00    +0.011 A 
ATOM      9  C   UNL     1      -1.330   5.701   7.131  0.00  0.00    +0.039 A 
ATOM     10  C   UNL     1      -1.755   5.772   8.448  0.00  0.00    +0.123 A 
ATOM     11  C   UNL     1      -2.787   4.961   8.892  0.00  0.00    +0.039 A 
ATOM     12  C   UNL     1      -3.395   4.078   8.024  0.00  0.00    +0.011 A 
ATOM     13  F   UNL     1      -1.162   6.635   9.301  0.00  0.00    -0.205 F 
ENDBRANCH   3   7
BRANCH   1  14
ATOM     14  C   UNL     1      -3.342   2.013   2.135  0.00  0.00    -0.039 C 
BRANCH  14  16
ATOM     15  C   UNL     1      -5.594   2.159   1.257  0.00  0.00    -0.095 C 
ATOM     16  N   UNL     1      -4.264   2.804   1.292  0.00  0.00    +0.384 N 
ATOM     17  H   UNL     1      -4.360   3.744   1.694  0.00  0.00    -0.081 HD
BRANCH  16  18
ATOM     18  C   UNL     1      -3.722   2.920  -0.078  0.00  0.00    -0.017 C 
BRANCH  18  21
ATOM     19  C   UNL     1      -0.789   1.840   0.318  0.00  0.00    +0.071 C 
ATOM     20  C   UNL     1      -1.167   3.287   0.139  0.00  0.00    +0.103 A 
ATOM     21  C   UNL     1      -2.479   3.770  -0.038  0.00  0.00    +0.091 A 
ATOM     22  N   UNL     1      -2.450   5.064  -0.158  0.00  0.00    -0.056 NA
ATOM     23  O   UNL     1      -1.093   5.468  -0.071  0.00  0.00    -0.242 OA
ATOM     24  N   UNL     1      -0.334   4.284   0.118  0.00  0.00    -0.054 NA
ENDBRANCH  18  21
ENDBRANCH  16  18
ENDBRANCH  14  16
ENDBRANCH   1  14
BRANCH   6  25
ATOM     25  O   UNL     1      -5.432   0.414   3.154  0.00  0.00    -0.483 OA
BRANCH  25  26
ATOM     26  C   UNL     1      -6.489  -0.392   3.678  0.00  0.00    +0.324 C 
BRANCH  26  27
ATOM     27  C   UNL     1      -7.025  -1.287   2.589  0.00  0.00    +0.254 C 
ATOM     28  O   UNL     1      -6.548  -1.238   1.475  0.00  0.00    -0.272 OA
ATOM     29  N   UNL     1      -8.034  -2.141   2.854  0.00  0.00    -0.292 N 
ATOM     30  C   UNL     1      -8.534  -2.305   4.226  0.00  0.00    +0.108 C 
ATOM     31  C   UNL     1     -10.050  -2.079   4.228  0.00  0.00    +0.019 C 
ATOM     32  C   UNL     1     -10.702  -3.012   3.204  0.00  0.00    +0.004 C 
ATOM     33  C   UNL     1     -10.167  -2.691   1.806  0.00  0.00    +0.027 C 
ATOM     34  C   UNL     1      -8.657  -2.920   1.776  0.00  0.00    +0.108 C 
BRANCH  34  35
ATOM     35  C   UNL     1      -8.107  -2.473   0.446  0.00  0.00    -0.009 A 
ATOM     36  C   UNL     1      -8.419  -1.219  -0.057  0.00  0.00    +0.008 A 
ATOM     37  C   UNL     1      -7.890  -0.850  -1.284  0.00  0.00    +0.020 A 
ATOM     38  C   UNL     1      -7.075  -1.739  -1.961  0.00  0.00    +0.111 A 
ATOM     39  N   UNL     1      -6.800  -2.924  -1.452  0.00  0.00    -0.263 NA
ATOM     40  C   UNL     1      -7.281  -3.305  -0.285  0.00  0.00    +0.116 A 
ENDBRANCH  34  35
ENDBRANCH  26  27
ENDBRANCH  25  26
ENDBRANCH   6  25
TORSDOF 9
