REMARK  Name = ZINC08727526
REMARK  8 active torsions:
REMARK  status: ('A' for Active; 'I' for Inactive)
REMARK    1  A    between atoms: C_1  and  C_2
REMARK    2  A    between atoms: C_4  and  C_17
REMARK    3  A    between atoms: C_5  and  C_16
REMARK    4  A    between atoms: N_6  and  C_7
REMARK    5  A    between atoms: C_7  and  C_9
REMARK    6  A    between atoms: C_7  and  C_10
REMARK    7  A    between atoms: C_17  and  C_19
REMARK    8  A    between atoms: C_19  and  N_20
REMARK                            x       y       z     vdW  Elec       q    Type
REMARK                         _______ _______ _______ _____ _____    ______ ____
ROOT
ATOM      1  C   UNL     1       2.738   6.354   3.202  0.00  0.00    +0.197 C 
ENDROOT
BRANCH   1   2
ATOM      2  N   UNL     1       1.623   5.821   2.413  0.00  0.00    -0.216 N 
ATOM      3  C   UNL     1       0.581   5.143   2.936  0.00  0.00    +0.252 C 
ATOM      4  O   UNL     1       0.394   4.869   4.102  0.00  0.00    -0.272 OA
ATOM      5  C   UNL     1      -0.305   4.798   1.762  0.00  0.00    +0.144 C 
ATOM      6  C   UNL     1      -1.678   5.444   1.922  0.00  0.00    +0.081 C 
ATOM      7  C   UNL     1      -2.473   4.641   2.961  0.00  0.00    +0.232 C 
ATOM      8  O   UNL     1      -2.676   3.321   2.454  0.00  0.00    -0.492 OA
ATOM      9  C   UNL     1      -1.596   2.649   1.977  0.00  0.00    +0.126 A 
ATOM     10  C   UNL     1      -0.431   3.307   1.619  0.00  0.00    +0.027 A 
ATOM     11  C   UNL     1       0.642   2.585   1.125  0.00  0.00    +0.010 A 
ATOM     12  C   UNL     1       0.558   1.213   0.992  0.00  0.00    +0.001 A 
ATOM     13  C   UNL     1      -0.602   0.553   1.353  0.00  0.00    +0.004 A 
ATOM     14  C   UNL     1      -1.677   1.267   1.843  0.00  0.00    +0.046 A 
ATOM     15  N   UNL     1       0.397   5.368   0.605  0.00  0.00    -0.281 N 
ATOM     16  C   UNL     1       1.514   5.947   1.085  0.00  0.00    +0.310 C 
ATOM     17  O   UNL     1       2.331   6.519   0.390  0.00  0.00    -0.252 OA
ATOM     18  H   UNL     1       0.112   5.334  -0.322  0.00  0.00    +0.152 HD
ENDBRANCH   1   2
BRANCH   1  19
ATOM     19  C   UNL     1       3.826   5.316   3.298  0.00  0.00    +0.183 C 
ATOM     20  O   UNL     1       3.685   4.237   2.761  0.00  0.00    -0.290 OA
BRANCH  19  24
ATOM     21  C   UNL     1       7.361   7.690   6.096  0.00  0.00    +0.063 C 
ATOM     22  C   UNL     1       6.606   6.674   5.278  0.00  0.00    +0.017 A 
ATOM     23  C   UNL     1       5.389   6.857   4.739  0.00  0.00    +0.034 A 
ATOM     24  C   UNL     1       5.054   5.610   4.040  0.00  0.00    +0.040 A 
ATOM     25  C   UNL     1       6.139   4.772   4.221  0.00  0.00    +0.027 A 
ATOM     26  N   UNL     1       7.053   5.424   4.960  0.00  0.00    -0.341 N 
ATOM     27  C   UNL     1       6.273   3.371   3.682  0.00  0.00    +0.064 C 
BRANCH  26  28
ATOM     28  C   UNL     1       8.346   4.870   5.369  0.00  0.00    +0.114 C 
ATOM     29  C   UNL     1       8.870   3.936   4.276  0.00  0.00    +0.036 C 
BRANCH  28  30
ATOM     30  C   UNL     1       9.329   5.993   5.583  0.00  0.00    -0.025 A 
ATOM     31  C   UNL     1       9.621   6.862   4.549  0.00  0.00    +0.005 A 
ATOM     32  C   UNL     1      10.519   7.894   4.747  0.00  0.00    +0.000 A 
ATOM     33  C   UNL     1      11.131   8.052   5.976  0.00  0.00    +0.000 A 
ATOM     34  C   UNL     1      10.842   7.180   7.009  0.00  0.00    +0.000 A 
ATOM     35  C   UNL     1       9.941   6.150   6.812  0.00  0.00    +0.005 A 
ENDBRANCH  28  30
ENDBRANCH  26  28
ENDBRANCH  19  24
ENDBRANCH   1  19
TORSDOF 5
