REMARK  Name = ZINC39898346
REMARK  10 active torsions:
REMARK  status: ('A' for Active; 'I' for Inactive)
REMARK    1  A    between atoms: C_1  and  C_2
REMARK    2  A    between atoms: C_2  and  C_3
REMARK    3  A    between atoms: C_3  and  N_4
REMARK    4  A    between atoms: C_5  and  C_23
REMARK    5  A    between atoms: C_8  and  C_15
REMARK    6  A    between atoms: C_20  and  O_21
REMARK    7  A    between atoms: C_26  and  O_32
REMARK    8  A    between atoms: C_27  and  O_29
REMARK    9  A    between atoms: O_29  and  C_30
REMARK   10  A    between atoms: C_30  and  C_31
REMARK                            x       y       z     vdW  Elec       q    Type
REMARK                         _______ _______ _______ _____ _____    ______ ____
ROOT
ATOM      1  N   UNL     1      -0.371  -2.284  -0.024  0.00  0.00    -0.285 N 
ATOM      2  C   UNL     1      -0.754  -2.969  -1.265  0.00  0.00    +0.141 C 
ATOM      3  C   UNL     1      -1.134  -4.369  -0.868  0.00  0.00    +0.035 A 
ATOM      4  C   UNL     1      -1.582  -5.630  -1.276  0.00  0.00    +0.102 A 
ATOM      5  N   UNL     1      -1.668  -6.385  -0.198  0.00  0.00    -0.173 NA
ATOM      6  N   UNL     1      -1.319  -5.726   0.849  0.00  0.00    -0.272 N 
ATOM      7  H   UNL     1      -1.305  -6.081   1.751  0.00  0.00    +0.189 HD
ATOM      8  C   UNL     1      -0.971  -4.452   0.502  0.00  0.00    +0.126 A 
ATOM      9  C   UNL     1      -0.495  -3.154   0.994  0.00  0.00    +0.265 C 
ATOM     10  O   UNL     1      -0.250  -2.901   2.158  0.00  0.00    -0.268 OA
ENDROOT
BRANCH   4  11
ATOM     11  C   UNL     1      -1.901  -6.042  -2.665  0.00  0.00    +0.045 A 
ATOM     12  C   UNL     1      -1.879  -5.105  -3.695  0.00  0.00    +0.033 A 
ATOM     13  C   UNL     1      -2.177  -5.493  -4.987  0.00  0.00    +0.042 A 
ATOM     14  C   UNL     1      -2.498  -6.812  -5.261  0.00  0.00    +0.023 A 
ATOM     15  C   UNL     1      -2.523  -7.749  -4.246  0.00  0.00    +0.047 A 
ATOM     16  C   UNL     1      -2.220  -7.373  -2.947  0.00  0.00    +0.126 A 
ATOM     17 CL   UNL     1      -2.149  -4.324  -6.270  0.00  0.00    -0.084 Cl
BRANCH  16  18
ATOM     18  O   UNL     1      -2.239  -8.295  -1.949  0.00  0.00    -0.506 OA
ATOM     19  H   UNL     1      -3.098  -8.388  -1.515  0.00  0.00    +0.292 HD
ENDBRANCH  16  18
ENDBRANCH   4  11
BRANCH   2  20
ATOM     20  C   UNL     1       0.409  -2.997  -2.222  0.00  0.00    -0.019 A 
ATOM     21  C   UNL     1       0.224  -2.639  -3.545  0.00  0.00    +0.009 A 
ATOM     22  C   UNL     1       1.288  -2.664  -4.427  0.00  0.00    +0.049 A 
ATOM     23  C   UNL     1       2.544  -3.047  -3.986  0.00  0.00    +0.158 A 
ATOM     24  C   UNL     1       2.731  -3.407  -2.655  0.00  0.00    +0.162 A 
ATOM     25  C   UNL     1       1.661  -3.375  -1.775  0.00  0.00    +0.055 A 
BRANCH  23  26
ATOM     26  O   UNL     1       3.592  -3.072  -4.852  0.00  0.00    -0.503 OA
ATOM     27  H   UNL     1       4.081  -2.239  -4.902  0.00  0.00    +0.292 HD
ENDBRANCH  23  26
BRANCH  24  28
ATOM     28  O   UNL     1       3.963  -3.784  -2.217  0.00  0.00    -0.489 OA
BRANCH  28  29
ATOM     29  C   UNL     1       4.057  -4.253  -0.871  0.00  0.00    +0.226 C 
ATOM     30  C   UNL     1       5.484  -4.731  -0.597  0.00  0.00    +0.048 C 
ENDBRANCH  28  29
ENDBRANCH  24  28
ENDBRANCH   2  20
BRANCH   1  31
ATOM     31  C   UNL     1       0.076  -0.893   0.086  0.00  0.00    +0.109 C 
BRANCH  31  33
ATOM     32  C   UNL     1       2.064   0.620   0.045  0.00  0.00    +0.005 C 
ATOM     33  C   UNL     1       1.597  -0.832  -0.070  0.00  0.00    +0.016 C 
ENDBRANCH  31  33
ENDBRANCH   1  31
TORSDOF 8
