REMARK  Name = ZINC20036278
REMARK  5 active torsions:
REMARK  status: ('A' for Active; 'I' for Inactive)
REMARK    1  A    between atoms: C_5  and  C_7
REMARK    2  A    between atoms: C_7  and  N_8
REMARK    3  A    between atoms: C_12  and  C_13
REMARK    4  A    between atoms: N_15  and  C_22
REMARK    5  A    between atoms: C_22  and  C_23
REMARK                            x       y       z     vdW  Elec       q    Type
REMARK                         _______ _______ _______ _____ _____    ______ ____
ROOT
ATOM      1  N   UNL     1       4.617  -0.165  -1.368  0.00  0.00    -0.216 N 
ATOM      2  C   UNL     1       3.888  -1.141  -1.944  0.00  0.00    +0.269 C 
ATOM      3  O   UNL     1       3.609  -2.221  -1.456  0.00  0.00    -0.268 OA
ATOM      4  C   UNL     1       3.504  -0.670  -3.229  0.00  0.00    +0.098 C 
ATOM      5  C   UNL     1       2.755  -1.331  -4.154  0.00  0.00    +0.038 C 
ATOM      6  N   UNL     1       4.058   0.613  -3.351  0.00  0.00    -0.265 N 
ATOM      7  C   UNL     1       4.720   0.877  -2.208  0.00  0.00    +0.313 C 
ATOM      8  O   UNL     1       5.322   1.907  -1.973  0.00  0.00    -0.252 OA
ATOM      9  H   UNL     1       3.904   1.194  -4.272  0.00  0.00    +0.157 HD
ENDROOT
BRANCH   5  10
ATOM     10  C   UNL     1       2.124  -2.605  -3.809  0.00  0.00    +0.002 A 
ATOM     11  C   UNL     1       1.531  -2.930  -2.621  0.00  0.00    +0.095 A 
ATOM     12  N   UNL     1       1.059  -4.201  -2.679  0.00  0.00    -0.342 N 
ATOM     13  C   UNL     1       1.326  -4.759  -3.912  0.00  0.00    +0.050 A 
ATOM     14  C   UNL     1       1.996  -3.791  -4.678  0.00  0.00    +0.007 A 
ATOM     15  C   UNL     1       2.386  -4.079  -5.982  0.00  0.00    +0.010 A 
ATOM     16  C   UNL     1       2.109  -5.318  -6.519  0.00  0.00    +0.001 A 
ATOM     17  C   UNL     1       1.444  -6.274  -5.766  0.00  0.00    +0.002 A 
ATOM     18  C   UNL     1       1.059  -6.005  -4.470  0.00  0.00    +0.026 A 
BRANCH  12  19
ATOM     19  C   UNL     1       0.364  -4.885  -1.585  0.00  0.00    +0.157 C 
BRANCH  19  20
ATOM     20  C   UNL     1       1.354  -5.702  -0.795  0.00  0.00    -0.028 A 
ATOM     21  C   UNL     1       1.599  -7.017  -1.145  0.00  0.00    +0.008 A 
ATOM     22  C   UNL     1       2.510  -7.766  -0.424  0.00  0.00    +0.038 A 
ATOM     23  C   UNL     1       3.169  -7.202   0.656  0.00  0.00    +0.123 A 
ATOM     24  C   UNL     1       2.917  -5.887   1.009  0.00  0.00    +0.038 A 
ATOM     25  C   UNL     1       2.010  -5.139   0.283  0.00  0.00    +0.008 A 
ATOM     26  F   UNL     1       4.055  -7.935   1.365  0.00  0.00    -0.205 F 
ENDBRANCH  19  20
ENDBRANCH  12  19
ENDBRANCH   5  10
BRANCH   1  27
ATOM     27  C   UNL     1       5.212  -0.234  -0.031  0.00  0.00    +0.156 C 
BRANCH  27  32
ATOM     28  C   UNL     1       3.475   2.092   2.383  0.00  0.00    +0.000 A 
ATOM     29  C   UNL     1       2.442   1.296   2.840  0.00  0.00    +0.003 A 
ATOM     30  C   UNL     1       2.300   0.006   2.366  0.00  0.00    +0.038 A 
ATOM     31  C   UNL     1       3.200  -0.493   1.439  0.00  0.00    +0.128 A 
ATOM     32  C   UNL     1       4.235   0.305   0.982  0.00  0.00    +0.006 A 
ATOM     33  C   UNL     1       4.372   1.597   1.454  0.00  0.00    +0.008 A 
ATOM     34  F   UNL     1       3.066  -1.755   0.978  0.00  0.00    -0.205 F 
ENDBRANCH  27  32
ENDBRANCH   1  27
TORSDOF 5
