REMARK  Name = ZINC16007246
REMARK  6 active torsions:
REMARK  status: ('A' for Active; 'I' for Inactive)
REMARK    1  A    between atoms: C_1  and  C_2
REMARK    2  A    between atoms: C_2  and  C_4
REMARK    3  A    between atoms: C_7  and  N_10
REMARK    4  A    between atoms: C_25  and  C_31
REMARK    5  A    between atoms: C_31  and  C_33
REMARK    6  A    between atoms: C_36  and  N_39
REMARK                            x       y       z     vdW  Elec       q    Type
REMARK                         _______ _______ _______ _____ _____    ______ ____
ROOT
ATOM      1  N   UNL     1       3.234  -3.205   1.829  0.00  0.00    -0.210 N 
ATOM      2  C   UNL     1       2.649  -2.428   0.903  0.00  0.00    +0.232 C 
ATOM      3  O   UNL     1       1.482  -2.100   0.887  0.00  0.00    -0.274 OA
ATOM      4  C   UNL     1       3.695  -2.031  -0.116  0.00  0.00    +0.113 C 
ATOM      5  C   UNL     1       3.674  -0.524  -0.359  0.00  0.00    +0.100 C 
ATOM      6  C   UNL     1       2.295   0.053  -0.172  0.00  0.00    -0.021 A 
ATOM      7  C   UNL     1       1.171  -0.663  -0.508  0.00  0.00    +0.006 A 
ATOM      8  C   UNL     1      -0.084  -0.109  -0.320  0.00  0.00    +0.000 A 
ATOM      9  C   UNL     1      -0.212   1.164   0.208  0.00  0.00    +0.001 A 
ATOM     10  C   UNL     1       0.908   1.892   0.550  0.00  0.00    +0.008 A 
ATOM     11  C   UNL     1       2.177   1.343   0.361  0.00  0.00    -0.019 A 
ATOM     12  C   UNL     1       3.384   2.116   0.716  0.00  0.00    +0.022 C 
ATOM     13  C   UNL     1       4.559   1.475   0.869  0.00  0.00    +0.054 C 
ATOM     14  C   UNL     1       5.274  -0.929   1.380  0.00  0.00    +0.141 C 
ATOM     15  C   UNL     1       5.020  -2.274   0.670  0.00  0.00    +0.116 C 
ATOM     16  C   UNL     1       4.570  -3.281   1.717  0.00  0.00    +0.232 C 
ATOM     17  O   UNL     1       5.293  -4.025   2.343  0.00  0.00    -0.274 OA
ATOM     18  N   UNL     1       4.769   0.052   0.383  0.00  0.00    -0.384 NA
ATOM     19  H   UNL     1       5.528   0.138  -0.303  0.00  0.00    +0.127 HD
ENDROOT
BRANCH   1  23
ATOM     20  C   UNL     1       1.093  -5.208   4.792  0.00  0.00    +0.017 A 
ATOM     21  C   UNL     1       0.795  -5.426   3.441  0.00  0.00    +0.013 A 
ATOM     22  C   UNL     1       1.504  -4.762   2.467  0.00  0.00    +0.024 A 
ATOM     23  C   UNL     1       2.517  -3.876   2.821  0.00  0.00    +0.044 A 
ATOM     24  C   UNL     1       2.820  -3.660   4.162  0.00  0.00    +0.024 A 
ATOM     25  C   UNL     1       2.112  -4.315   5.144  0.00  0.00    +0.013 A 
BRANCH  20  27
ATOM     26  C   UNL     1       0.661  -5.678   7.289  0.00  0.00    +0.091 C 
ATOM     27  C   UNL     1       0.338  -5.914   5.836  0.00  0.00    +0.160 C 
ATOM     28  O   UNL     1      -0.544  -6.688   5.529  0.00  0.00    -0.292 OA
ENDBRANCH  20  27
ENDBRANCH   1  23
BRANCH  14  29
ATOM     29  C   UNL     1       6.748  -0.616   1.369  0.00  0.00    +0.183 C 
ATOM     30  O   UNL     1       7.209   0.101   0.506  0.00  0.00    -0.290 OA
BRANCH  29  31
ATOM     31  C   UNL     1       7.629  -1.180   2.404  0.00  0.00    +0.019 A 
ATOM     32  C   UNL     1       7.084  -1.890   3.479  0.00  0.00    +0.013 A 
ATOM     33  C   UNL     1       7.916  -2.419   4.444  0.00  0.00    +0.033 A 
ATOM     34  C   UNL     1       9.285  -2.241   4.354  0.00  0.00    +0.126 A 
ATOM     35  C   UNL     1       9.832  -1.536   3.296  0.00  0.00    +0.033 A 
ATOM     36  C   UNL     1       9.014  -1.005   2.322  0.00  0.00    +0.013 A 
BRANCH  34  37
ATOM     37  N   UNL     1      10.171  -2.808   5.396  0.00  0.00    +0.056 N 
ATOM     38  O   UNL     1      11.376  -2.654   5.321  0.00  0.00    -0.126 OA
ATOM     39  O   UNL     1       9.693  -3.430   6.329  0.00  0.00    -0.126 OA
ENDBRANCH  34  37
ENDBRANCH  29  31
ENDBRANCH  14  29
TORSDOF 5
