REMARK  Name = ZINC21162438
REMARK  8 active torsions:
REMARK  status: ('A' for Active; 'I' for Inactive)
REMARK    1  A    between atoms: C_1  and  C_2
REMARK    2  A    between atoms: C_2  and  O_3
REMARK    3  A    between atoms: O_3  and  C_4
REMARK    4  A    between atoms: C_9  and  C_10
REMARK    5  A    between atoms: C_10  and  N_11
REMARK    6  A    between atoms: C_12  and  C_14
REMARK    7  A    between atoms: N_28  and  C_29
REMARK    8  A    between atoms: C_29  and  C_30
REMARK                            x       y       z     vdW  Elec       q    Type
REMARK                         _______ _______ _______ _____ _____    ______ ____
ROOT
ATOM      1  C   UNL     1       1.961   8.772  -1.648  0.00  0.00    +0.078 C 
ATOM      2  C   UNL     1       1.165   8.614  -0.350  0.00  0.00    +0.032 C 
ATOM      3  C   UNL     1       0.614   7.188  -0.266  0.00  0.00    +0.108 C 
ATOM      4  N   UNL     1       1.726   6.230  -0.300  0.00  0.00    -0.302 N 
ATOM      5  C   UNL     1       2.477   6.331  -1.557  0.00  0.00    +0.108 C 
ATOM      6  C   UNL     1       3.083   7.731  -1.679  0.00  0.00    +0.032 C 
ATOM      7  C   UNL     1       1.275   4.942  -0.096  0.00  0.00    +0.177 A 
ATOM      8  N   UNL     1       0.138   4.465  -0.536  0.00  0.00    -0.327 N 
ATOM      9  C   UNL     1       0.011   3.166  -0.156  0.00  0.00    +0.065 A 
ATOM     10  C   UNL     1      -0.982   2.202  -0.351  0.00  0.00    +0.028 A 
ATOM     11  C   UNL     1      -0.817   0.937   0.167  0.00  0.00    +0.002 A 
ATOM     12  C   UNL     1       0.322   0.616   0.892  0.00  0.00    +0.002 A 
ATOM     13  C   UNL     1       1.311   1.557   1.093  0.00  0.00    +0.028 A 
ATOM     14  C   UNL     1       1.164   2.834   0.573  0.00  0.00    +0.068 A 
ATOM     15  N   UNL     1       1.948   3.976   0.596  0.00  0.00    -0.309 N 
ATOM     16  H   UNL     1      -0.539   5.106  -1.119  0.00  0.00    +0.169 HD
ENDROOT
BRANCH   1  18
ATOM     17  N   UNL     1       3.303  10.523  -2.767  0.00  0.00    -0.311 N 
ATOM     18  C   UNL     1       2.556  10.156  -1.707  0.00  0.00    +0.216 C 
ATOM     19  O   UNL     1       2.363  10.938  -0.801  0.00  0.00    -0.276 OA
ATOM     20  H   UNL     1       3.479   9.813  -3.589  0.00  0.00    +0.149 HD
BRANCH  17  21
ATOM     21  C   UNL     1       3.882  11.868  -2.825  0.00  0.00    +0.143 C 
BRANCH  21  27
ATOM     22  C   UNL     1       4.007  12.293  -5.293  0.00  0.00    +0.125 A 
ATOM     23  C   UNL     1       4.731  12.436  -6.468  0.00  0.00    +0.046 A 
ATOM     24  C   UNL     1       6.106  12.309  -6.449  0.00  0.00    +0.004 A 
ATOM     25  C   UNL     1       6.761  12.039  -5.261  0.00  0.00    +0.001 A 
ATOM     26  C   UNL     1       6.042  11.902  -4.089  0.00  0.00    +0.009 A 
ATOM     27  C   UNL     1       4.666  12.023  -4.103  0.00  0.00    +0.011 A 
BRANCH  22  28
ATOM     28  O   UNL     1       2.653  12.418  -5.309  0.00  0.00    -0.492 OA
BRANCH  28  30
ATOM     29  C   UNL     1       0.526  12.802  -6.390  0.00  0.00    +0.048 C 
ATOM     30  C   UNL     1       2.042  12.696  -6.570  0.00  0.00    +0.225 C 
ENDBRANCH  28  30
ENDBRANCH  22  28
ENDBRANCH  21  27
ENDBRANCH  17  21
ENDBRANCH   1  18
BRANCH  15  31
ATOM     31  C   UNL     1       3.254   4.120   1.243  0.00  0.00    +0.163 C 
BRANCH  31  32
ATOM     32  C   UNL     1       3.060   4.455   2.699  0.00  0.00    +0.007 A 
ATOM     33  C   UNL     1       3.053   3.447   3.645  0.00  0.00    +0.008 A 
ATOM     34  C   UNL     1       2.875   3.754   4.981  0.00  0.00    +0.000 A 
ATOM     35  C   UNL     1       2.705   5.069   5.373  0.00  0.00    +0.003 A 
ATOM     36  C   UNL     1       2.712   6.078   4.429  0.00  0.00    +0.039 A 
ATOM     37  C   UNL     1       2.894   5.772   3.091  0.00  0.00    +0.128 A 
ATOM     38  F   UNL     1       2.907   6.759   2.168  0.00  0.00    -0.205 F 
ENDBRANCH  31  32
ENDBRANCH  15  31
TORSDOF 7
