REMARK  Name = ZINC17222927
REMARK  10 active torsions:
REMARK  status: ('A' for Active; 'I' for Inactive)
REMARK    1  A    between atoms: C_1  and  C_2
REMARK    2  A    between atoms: N_5  and  N_6
REMARK    3  A    between atoms: N_6  and  C_7
REMARK    4  A    between atoms: C_7  and  N_9
REMARK    5  A    between atoms: C_10  and  C_16
REMARK    6  A    between atoms: C_12  and  C_14
REMARK    7  A    between atoms: C_12  and  C_15
REMARK    8  A    between atoms: C_16  and  C_17
REMARK    9  A    between atoms: C_16  and  C_21
REMARK   10  A    between atoms: C_16  and  O_25
REMARK                            x       y       z     vdW  Elec       q    Type
REMARK                         _______ _______ _______ _____ _____    ______ ____
ROOT
ATOM      1  C   UNL     1      -1.062   5.850   1.705  0.00  0.00    +0.039 C 
ATOM      2  C   UNL     1      -0.176   4.658   1.446  0.00  0.00    -0.070 C 
ATOM      3  C   UNL     1       0.788   4.775   0.546  0.00  0.00    +0.024 C 
ATOM      4  C   UNL     1       1.687   3.645   0.262  0.00  0.00    +0.066 C 
ATOM      5  N   UNL     1       2.764   3.805  -0.449  0.00  0.00    -0.185 NA
ATOM      6  C   UNL     1       1.315   2.290   0.827  0.00  0.00    +0.095 C 
ATOM      7  C   UNL     1       0.816   2.513   2.262  0.00  0.00    -0.020 C 
ATOM      8  C   UNL     1      -0.430   3.400   2.221  0.00  0.00    +0.037 C 
ATOM      9  C   UNL     1       0.469   1.166   2.899  0.00  0.00    +0.012 C 
ATOM     10  C   UNL     1       1.908   3.203   3.082  0.00  0.00    +0.012 C 
ENDROOT
BRANCH   5  11
ATOM     11  N   UNL     1       3.603   2.713  -0.704  0.00  0.00    -0.218 N 
ATOM     12  H   UNL     1       3.381   1.838  -0.351  0.00  0.00    +0.176 HD
BRANCH  11  13
ATOM     13  C   UNL     1       4.719   2.879  -1.441  0.00  0.00    +0.147 C 
ATOM     14  S   UNL     1       5.745   1.545  -1.753  0.00  0.00    -0.017 S 
BRANCH  13  15
ATOM     15  N   UNL     1       5.028   4.096  -1.933  0.00  0.00    -0.339 N 
ATOM     16  H   UNL     1       4.446   4.852  -1.756  0.00  0.00    +0.144 HD
ATOM     17  H   UNL     1       5.831   4.215  -2.463  0.00  0.00    +0.144 HD
ENDBRANCH  13  15
ENDBRANCH  11  13
ENDBRANCH   5  11
BRANCH   6  18
ATOM     18  C   UNL     1       0.206   1.660  -0.018  0.00  0.00    +0.265 C 
BRANCH  18  19
ATOM     19  C   UNL     1       0.174   0.150   0.227  0.00  0.00    +0.427 C 
ATOM     20  F   UNL     1       0.575  -0.520  -0.933  0.00  0.00    -0.167 F 
ATOM     21  F   UNL     1       1.043  -0.171   1.276  0.00  0.00    -0.167 F 
ATOM     22  F   UNL     1      -1.127  -0.240   0.564  0.00  0.00    -0.167 F 
ENDBRANCH  18  19
BRANCH  18  23
ATOM     23  C   UNL     1       0.478   1.930  -1.499  0.00  0.00    +0.427 C 
ATOM     24  F   UNL     1       0.378   3.303  -1.749  0.00  0.00    -0.167 F 
ATOM     25  F   UNL     1       1.765   1.489  -1.825  0.00  0.00    -0.167 F 
ATOM     26  F   UNL     1      -0.461   1.245  -2.278  0.00  0.00    -0.167 F 
ENDBRANCH  18  23
BRANCH  18  27
ATOM     27  O   UNL     1      -1.052   2.229   0.347  0.00  0.00    -0.373 OA
ATOM     28  H   UNL     1      -1.527   1.731   1.027  0.00  0.00    +0.211 HD
ENDBRANCH  18  27
ENDBRANCH   6  18
TORSDOF 7
