REMARK  Name = ZINC35831036
REMARK  7 active torsions:
REMARK  status: ('A' for Active; 'I' for Inactive)
REMARK    1  A    between atoms: C_3  and  C_10
REMARK    2  A    between atoms: C_5  and  N_7
REMARK    3  A    between atoms: C_10  and  N_11
REMARK    4  A    between atoms: C_14  and  N_17
REMARK    5  A    between atoms: N_17  and  C_18
REMARK    6  A    between atoms: N_17  and  S_25
REMARK    7  A    between atoms: S_25  and  C_28
REMARK                            x       y       z     vdW  Elec       q    Type
REMARK                         _______ _______ _______ _____ _____    ______ ____
ROOT
ATOM      1  N   UNL     1       6.335   2.596   4.933  0.00  0.00    -0.200 N 
ENDROOT
BRANCH   1   5
ATOM      2  N   UNL     1       3.739   1.668   1.745  0.00  0.00    +0.382 N 
ATOM      3  C   UNL     1       4.295   0.535   2.495  0.00  0.00    -0.077 C 
ATOM      4  C   UNL     1       4.805   1.019   3.854  0.00  0.00    +0.006 C 
ATOM      5  C   UNL     1       5.895   2.074   3.637  0.00  0.00    +0.095 C 
ATOM      6  C   UNL     1       5.325   3.216   2.791  0.00  0.00    +0.006 C 
ATOM      7  C   UNL     1       4.795   2.650   1.471  0.00  0.00    -0.077 C 
ATOM      8  H   UNL     1       3.009   2.103   2.288  0.00  0.00    -0.081 HD
BRANCH   2   9
ATOM      9  C   UNL     1       3.180   1.185   0.475  0.00  0.00    -0.043 C 
BRANCH   9  12
ATOM     10  C   UNL     1      -0.331  -0.049   1.107  0.00  0.00    +0.002 A 
ATOM     11  C   UNL     1       0.738   0.790   0.852  0.00  0.00    +0.002 A 
ATOM     12  C   UNL     1       2.015   0.271   0.754  0.00  0.00    -0.062 A 
ATOM     13  C   UNL     1       2.224  -1.086   0.911  0.00  0.00    +0.034 A 
ATOM     14  C   UNL     1       1.155  -1.925   1.166  0.00  0.00    +0.126 A 
ATOM     15  C   UNL     1      -0.122  -1.406   1.264  0.00  0.00    +0.033 A 
BRANCH  14  16
ATOM     16  N   UNL     1       1.379  -3.378   1.333  0.00  0.00    +0.056 N 
ATOM     17  O   UNL     1       2.496  -3.833   1.246  0.00  0.00    -0.126 OA
ATOM     18  O   UNL     1       0.444  -4.112   1.557  0.00  0.00    -0.126 OA
ENDBRANCH  14  16
ENDBRANCH   9  12
ENDBRANCH   2   9
ENDBRANCH   1   5
BRANCH   1  19
ATOM     19  C   UNL     1       5.402   3.143   5.819  0.00  0.00    +0.052 A 
ATOM     20  C   UNL     1       4.832   4.382   5.553  0.00  0.00    +0.027 A 
ATOM     21  C   UNL     1       3.911   4.920   6.429  0.00  0.00    +0.040 A 
ATOM     22  C   UNL     1       3.554   4.226   7.573  0.00  0.00    +0.124 A 
ATOM     23  C   UNL     1       4.121   2.991   7.841  0.00  0.00    +0.040 A 
ATOM     24  C   UNL     1       5.039   2.447   6.965  0.00  0.00    +0.027 A 
ATOM     25  F   UNL     1       2.653   4.755   8.430  0.00  0.00    -0.205 F 
ENDBRANCH   1  19
BRANCH   1  26
ATOM     26  S   UNL     1       7.937   2.540   5.348  0.00  0.00    +0.075 S 
ATOM     27  O   UNL     1       7.997   2.697   6.759  0.00  0.00    -0.150 OA
ATOM     28  O   UNL     1       8.489   1.412   4.683  0.00  0.00    -0.150 OA
BRANCH  26  29
ATOM     29  C   UNL     1       8.707   3.963   4.650  0.00  0.00    +0.109 A 
ATOM     30  C   UNL     1       9.240   3.904   3.376  0.00  0.00    +0.030 A 
ATOM     31  C   UNL     1       9.844   5.020   2.827  0.00  0.00    +0.022 A 
ATOM     32  C   UNL     1       9.915   6.196   3.554  0.00  0.00    +0.041 A 
ATOM     33  C   UNL     1       9.380   6.253   4.829  0.00  0.00    +0.022 A 
ATOM     34  C   UNL     1       8.772   5.138   5.374  0.00  0.00    +0.030 A 
ATOM     35 CL   UNL     1      10.673   7.597   2.866  0.00  0.00    -0.084 Cl
ENDBRANCH  26  29
ENDBRANCH   1  26
TORSDOF 7
