REMARK  Name = ZINC38756563
REMARK  9 active torsions:
REMARK  status: ('A' for Active; 'I' for Inactive)
REMARK    1  A    between atoms: C_1  and  C_2
REMARK    2  A    between atoms: C_5  and  S_8
REMARK    3  A    between atoms: S_8  and  N_11
REMARK    4  A    between atoms: C_13  and  C_22
REMARK    5  A    between atoms: N_24  and  C_25
REMARK    6  A    between atoms: C_25  and  C_27
REMARK    7  A    between atoms: C_25  and  C_28
REMARK    8  A    between atoms: C_31  and  C_35
REMARK    9  A    between atoms: C_33  and  C_34
REMARK                            x       y       z     vdW  Elec       q    Type
REMARK                         _______ _______ _______ _____ _____    ______ ____
ROOT
ATOM      1  N   UNL     1       2.424  -4.538   0.390  0.00  0.00    -0.195 N 
ATOM      2  C   UNL     1       2.874  -4.944  -0.953  0.00  0.00    +0.186 C 
ATOM      3  C   UNL     1       4.343  -4.522  -1.097  0.00  0.00    +0.277 C 
ATOM      4  O   UNL     1       5.105  -5.146  -0.061  0.00  0.00    -0.476 OA
ATOM      5  C   UNL     1       4.641  -5.048   1.213  0.00  0.00    +0.144 A 
ATOM      6  C   UNL     1       3.307  -4.742   1.462  0.00  0.00    +0.093 A 
ATOM      7  C   UNL     1       2.849  -4.644   2.766  0.00  0.00    +0.028 A 
ATOM      8  C   UNL     1       3.722  -4.843   3.820  0.00  0.00    +0.002 A 
ATOM      9  C   UNL     1       5.050  -5.139   3.573  0.00  0.00    +0.004 A 
ATOM     10  C   UNL     1       5.507  -5.250   2.276  0.00  0.00    +0.047 A 
ENDROOT
BRANCH   3  11
ATOM     11  C   UNL     1       4.864  -4.958  -2.443  0.00  0.00    +0.256 C 
ATOM     12  O   UNL     1       5.745  -5.789  -2.512  0.00  0.00    -0.272 OA
ATOM     13  N   UNL     1       4.350  -4.425  -3.569  0.00  0.00    -0.306 N 
ATOM     14  H   UNL     1       3.645  -3.761  -3.514  0.00  0.00    +0.149 HD
BRANCH  13  15
ATOM     15  C   UNL     1       4.856  -4.849  -4.877  0.00  0.00    +0.100 C 
ATOM     16  C   UNL     1       4.046  -6.048  -5.373  0.00  0.00    +0.033 C 
BRANCH  15  17
ATOM     17  C   UNL     1       4.724  -3.713  -5.859  0.00  0.00    -0.025 A 
ATOM     18  C   UNL     1       3.749  -2.750  -5.675  0.00  0.00    +0.006 A 
ATOM     19  C   UNL     1       3.628  -1.708  -6.575  0.00  0.00    +0.004 A 
ATOM     20  C   UNL     1       4.482  -1.629  -7.659  0.00  0.00    -0.050 A 
ATOM     21  C   UNL     1       5.457  -2.591  -7.843  0.00  0.00    +0.007 A 
ATOM     22  C   UNL     1       5.581  -3.631  -6.940  0.00  0.00    -0.045 A 
ATOM     23  C   UNL     1       6.648  -4.677  -7.137  0.00  0.00    +0.044 C 
ATOM     24  C   UNL     1       4.350  -0.494  -8.641  0.00  0.00    +0.044 C 
ENDBRANCH  15  17
ENDBRANCH  13  15
ENDBRANCH   3  11
BRANCH   1  25
ATOM     25  S   UNL     1       0.933  -3.858   0.625  0.00  0.00    +0.075 S 
ATOM     26  O   UNL     1       0.496  -3.389  -0.644  0.00  0.00    -0.150 OA
ATOM     27  O   UNL     1       1.049  -3.004   1.754  0.00  0.00    -0.150 OA
BRANCH  25  32
ATOM     28  C   UNL     1      -2.829  -8.302   2.206  0.00  0.00    +0.044 C 
ATOM     29  C   UNL     1      -1.889  -7.192   1.811  0.00  0.00    -0.050 A 
ATOM     30  C   UNL     1      -1.192  -6.499   2.782  0.00  0.00    +0.005 A 
ATOM     31  C   UNL     1      -0.330  -5.481   2.420  0.00  0.00    +0.029 A 
ATOM     32  C   UNL     1      -0.165  -5.156   1.086  0.00  0.00    +0.109 A 
ATOM     33  C   UNL     1      -0.862  -5.851   0.115  0.00  0.00    +0.029 A 
ATOM     34  C   UNL     1      -1.721  -6.871   0.477  0.00  0.00    +0.005 A 
ENDBRANCH  25  32
ENDBRANCH   1  25
TORSDOF 5
