REMARK  Name = ZINC38630811
REMARK  10 active torsions:
REMARK  status: ('A' for Active; 'I' for Inactive)
REMARK    1  A    between atoms: C_1  and  C_2
REMARK    2  A    between atoms: C_5  and  N_25
REMARK    3  A    between atoms: C_7  and  S_8
REMARK    4  A    between atoms: S_8  and  N_11
REMARK    5  A    between atoms: N_11  and  C_12
REMARK    6  A    between atoms: C_12  and  C_13
REMARK    7  A    between atoms: C_13  and  C_15
REMARK    8  A    between atoms: C_13  and  N_22
REMARK    9  A    between atoms: N_22  and  C_23
REMARK   10  A    between atoms: N_22  and  C_24
REMARK                            x       y       z     vdW  Elec       q    Type
REMARK                         _______ _______ _______ _____ _____    ______ ____
ROOT
ATOM      1  N   UNL     1       1.147   1.231   2.318  0.00  0.00    -0.191 NA
ATOM      2  H   UNL     1       1.798   0.874   2.943  0.00  0.00    +0.148 HD
ENDROOT
BRANCH   1   3
ATOM      3  S   UNL     1      -0.108   0.283   1.799  0.00  0.00    +0.059 S 
ATOM      4  O   UNL     1      -1.294   1.045   1.980  0.00  0.00    -0.153 OA
ATOM      5  O   UNL     1       0.075  -0.994   2.393  0.00  0.00    -0.153 OA
BRANCH   3  12
ATOM      6  C   UNL     1       2.197  -1.204   0.524  0.00  0.00    +0.046 C 
ATOM      7  C   UNL     1       1.179  -0.632  -0.428  0.00  0.00    -0.024 A 
ATOM      8  C   UNL     1       1.331  -0.809  -1.790  0.00  0.00    +0.007 A 
ATOM      9  C   UNL     1       0.397  -0.285  -2.664  0.00  0.00    +0.033 A 
ATOM     10  C   UNL     1      -0.690   0.416  -2.175  0.00  0.00    +0.128 A 
ATOM     11  C   UNL     1      -0.843   0.592  -0.812  0.00  0.00    +0.061 A 
ATOM     12  C   UNL     1       0.090   0.064   0.061  0.00  0.00    +0.110 A 
BRANCH  10  13
ATOM     13  N   UNL     1      -1.690   0.978  -3.110  0.00  0.00    +0.056 N 
ATOM     14  O   UNL     1      -1.557   0.824  -4.302  0.00  0.00    -0.126 OA
ATOM     15  O   UNL     1      -2.640   1.591  -2.682  0.00  0.00    -0.126 OA
ENDBRANCH  10  13
ENDBRANCH   3  12
ENDBRANCH   1   3
BRANCH   1  16
ATOM     16  C   UNL     1       1.275   2.607   1.834  0.00  0.00    +0.095 C 
BRANCH  16  17
ATOM     17  C   UNL     1       2.273   3.366   2.711  0.00  0.00    -0.021 C 
BRANCH  17  18
ATOM     18  C   UNL     1       1.720   3.494   4.106  0.00  0.00    -0.041 A 
ATOM     19  C   UNL     1       2.155   2.640   5.103  0.00  0.00    +0.003 A 
ATOM     20  C   UNL     1       1.647   2.757   6.383  0.00  0.00    +0.000 A 
ATOM     21  C   UNL     1       0.704   3.728   6.668  0.00  0.00    +0.001 A 
ATOM     22  C   UNL     1       0.269   4.582   5.672  0.00  0.00    +0.020 A 
ATOM     23  C   UNL     1       0.781   4.469   4.392  0.00  0.00    +0.043 A 
ATOM     24 CL   UNL     1       0.239   5.545   3.142  0.00  0.00    -0.083 Cl
ENDBRANCH  17  18
BRANCH  17  25
ATOM     25  N   UNL     1       3.545   2.632   2.753  0.00  0.00    +0.381 N 
ATOM     26  C   UNL     1       4.022   2.400   1.384  0.00  0.00    -0.096 C 
ATOM     27  C   UNL     1       4.541   3.419   3.492  0.00  0.00    -0.096 C 
ATOM     28  H   UNL     1       3.406   1.746   3.216  0.00  0.00    -0.082 HD
ENDBRANCH  17  25
ENDBRANCH  16  17
ENDBRANCH   1  16
TORSDOF 7
