REMARK  Name = ZINC12892275
REMARK  13 active torsions:
REMARK  status: ('A' for Active; 'I' for Inactive)
REMARK    1  A    between atoms: C_1  and  C_2
REMARK    2  A    between atoms: C_9  and  C_36
REMARK    3  A    between atoms: C_10  and  C_16
REMARK    4  A    between atoms: C_16  and  C_17
REMARK    5  A    between atoms: C_17  and  C_18
REMARK    6  A    between atoms: N_20  and  C_21
REMARK    7  A    between atoms: C_21  and  C_23
REMARK    8  A    between atoms: C_21  and  C_26
REMARK    9  A    between atoms: C_23  and  C_24
REMARK   10  A    between atoms: C_29  and  O_34
REMARK   11  A    between atoms: C_30  and  O_32
REMARK   12  A    between atoms: O_32  and  C_33
REMARK   13  A    between atoms: O_34  and  C_35
REMARK                            x       y       z     vdW  Elec       q    Type
REMARK                         _______ _______ _______ _____ _____    ______ ____
ROOT
ATOM      1  C   UNL     1       4.305   0.374  -1.291  0.00  0.00    +0.214 C 
ATOM      2  O   UNL     1       4.922  -0.030  -0.328  0.00  0.00    -0.276 OA
ATOM      3  N   UNL     1       4.811   0.216  -2.530  0.00  0.00    -0.308 N 
ATOM      4  H   UNL     1       4.287   0.475  -3.304  0.00  0.00    +0.149 HD
ENDROOT
BRANCH   1   5
ATOM      5  C   UNL     1       2.973   1.053  -1.101  0.00  0.00    +0.100 C 
BRANCH   5   6
ATOM      6  C   UNL     1       2.634   1.103   0.390  0.00  0.00    +0.052 C 
BRANCH   6  16
ATOM      7  C   UNL     1      -5.485  -0.033   0.875  0.00  0.00    +0.047 C 
ATOM      8  C   UNL     1      -4.924   1.359   1.008  0.00  0.00    -0.005 A 
ATOM      9  C   UNL     1      -5.615   2.489   1.204  0.00  0.00    +0.199 A 
ATOM     10  O   UNL     1      -4.780   3.541   1.273  0.00  0.00    -0.463 OA
ATOM     11  C   UNL     1      -3.498   3.150   1.124  0.00  0.00    +0.139 A 
ATOM     12  C   UNL     1      -3.509   1.751   0.948  0.00  0.00    +0.024 A 
ATOM     13  C   UNL     1      -2.322   1.055   0.768  0.00  0.00    +0.023 A 
ATOM     14  C   UNL     1      -1.115   1.754   0.758  0.00  0.00    +0.022 A 
ATOM     15  C   UNL     1       0.158   1.051   0.575  0.00  0.00    -0.030 A 
ATOM     16  C   UNL     1       1.302   1.782   0.579  0.00  0.00    +0.041 A 
ATOM     17  C   UNL     1       1.240   3.180   0.761  0.00  0.00    +0.341 A 
ATOM     18  O   UNL     1       2.274   3.824   0.762  0.00  0.00    -0.245 OA
ATOM     19  O   UNL     1       0.073   3.819   0.932  0.00  0.00    -0.422 OA
ATOM     20  C   UNL     1      -1.104   3.153   0.939  0.00  0.00    +0.143 A 
ATOM     21  C   UNL     1      -2.294   3.837   1.118  0.00  0.00    +0.093 A 
ATOM     22  C   UNL     1       0.196  -0.443   0.382  0.00  0.00    +0.045 C 
ENDBRANCH   6  16
ENDBRANCH   5   6
ENDBRANCH   1   5
BRANCH   3  23
ATOM     23  C   UNL     1       6.152  -0.346  -2.707  0.00  0.00    +0.114 C 
BRANCH  23  24
ATOM     24  C   UNL     1       6.287  -0.892  -4.106  0.00  0.00    -0.023 A 
ATOM     25  C   UNL     1       5.742  -0.200  -5.171  0.00  0.00    +0.009 A 
ATOM     26  C   UNL     1       5.863  -0.696  -6.456  0.00  0.00    +0.050 A 
ATOM     27  C   UNL     1       6.532  -1.889  -6.678  0.00  0.00    +0.162 A 
ATOM     28  C   UNL     1       7.081  -2.585  -5.605  0.00  0.00    +0.162 A 
ATOM     29  C   UNL     1       6.960  -2.080  -4.321  0.00  0.00    +0.055 A 
BRANCH  28  30
ATOM     30  O   UNL     1       7.739  -3.757  -5.817  0.00  0.00    -0.491 OA
ATOM     31  C   UNL     1       8.275  -4.417  -4.669  0.00  0.00    +0.277 C 
ENDBRANCH  28  30
BRANCH  27  32
ATOM     32  O   UNL     1       6.653  -2.378  -7.941  0.00  0.00    -0.491 OA
ATOM     33  C   UNL     1       6.065  -1.611  -8.993  0.00  0.00    +0.277 C 
ENDBRANCH  27  32
ENDBRANCH  23  24
BRANCH  23  34
ATOM     34  C   UNL     1       7.198   0.748  -2.484  0.00  0.00    +0.152 C 
BRANCH  34  35
ATOM     35  C   UNL     1       8.576   0.137  -2.502  0.00  0.00    +0.358 C 
ATOM     36  O   UNL     1       8.704  -1.063  -2.555  0.00  0.00    -0.246 OA
ATOM     37  O   UNL     1       9.660   0.927  -2.458  0.00  0.00    -0.246 OA
ENDBRANCH  34  35
ENDBRANCH  23  34
ENDBRANCH   3  23
TORSDOF 9
