REMARK  Name = ZINC10980766
REMARK  9 active torsions:
REMARK  status: ('A' for Active; 'I' for Inactive)
REMARK    1  A    between atoms: C_1  and  C_2
REMARK    2  A    between atoms: C_5  and  C_9
REMARK    3  A    between atoms: C_7  and  O_8
REMARK    4  A    between atoms: C_9  and  O_11
REMARK    5  A    between atoms: O_11  and  C_12
REMARK    6  A    between atoms: C_12  and  C_14
REMARK    7  A    between atoms: C_12  and  C_15
REMARK    8  A    between atoms: C_15  and  C_17
REMARK    9  A    between atoms: C_18  and  C_27
REMARK                            x       y       z     vdW  Elec       q    Type
REMARK                         _______ _______ _______ _____ _____    ______ ____
ROOT
ATOM      1  C   UNL     1       2.691   0.446   0.078  0.00  0.00    +0.244 C 
ATOM      2  C   UNL     1       2.796   0.038  -1.393  0.00  0.00    +0.061 C 
ENDROOT
BRANCH   1   3
ATOM      3  C   UNL     1       2.389   1.919   0.170  0.00  0.00    +0.205 C 
ATOM      4  O   UNL     1       3.274   2.704   0.441  0.00  0.00    -0.288 OA
BRANCH   3   5
ATOM      5  C   UNL     1       1.072   2.389  -0.060  0.00  0.00    +0.049 A 
ATOM      6  C   UNL     1       0.043   2.451   0.856  0.00  0.00    +0.025 A 
ATOM      7  N   UNL     1      -1.060   2.948   0.264  0.00  0.00    -0.358 N 
ATOM      8  H   UNL     1      -1.911   3.082   0.709  0.00  0.00    +0.166 HD
ATOM      9  C   UNL     1      -0.811   3.245  -1.061  0.00  0.00    +0.047 A 
ATOM     10  C   UNL     1       0.525   2.908  -1.329  0.00  0.00    +0.011 A 
ATOM     11  C   UNL     1       1.052   3.099  -2.603  0.00  0.00    +0.011 A 
ATOM     12  C   UNL     1       0.255   3.620  -3.600  0.00  0.00    +0.001 A 
ATOM     13  C   UNL     1      -1.065   3.953  -3.337  0.00  0.00    +0.002 A 
ATOM     14  C   UNL     1      -1.599   3.770  -2.080  0.00  0.00    +0.026 A 
ATOM     15  C   UNL     1       0.137   2.023   2.297  0.00  0.00    +0.064 C 
ENDBRANCH   3   5
ENDBRANCH   1   3
BRANCH   1  16
ATOM     16  O   UNL     1       3.948   0.166   0.749  0.00  0.00    -0.450 OA
BRANCH  16  17
ATOM     17  C   UNL     1       4.085  -1.051   1.308  0.00  0.00    +0.340 C 
ATOM     18  O   UNL     1       3.179  -1.858   1.238  0.00  0.00    -0.245 OA
BRANCH  17  23
ATOM     19  C   UNL     1       8.969  -2.423   4.032  0.00  0.00    +0.047 C 
ATOM     20  C   UNL     1       7.690  -2.066   3.319  0.00  0.00    -0.009 A 
ATOM     21  C   UNL     1       7.548  -0.816   2.745  0.00  0.00    +0.008 A 
ATOM     22  C   UNL     1       6.382  -0.483   2.086  0.00  0.00    +0.015 A 
ATOM     23  C   UNL     1       5.337  -1.406   2.008  0.00  0.00    +0.062 A 
ATOM     24  C   UNL     1       5.482  -2.667   2.589  0.00  0.00    +0.060 A 
ATOM     25  C   UNL     1       6.659  -2.992   3.242  0.00  0.00    +0.121 A 
BRANCH  25  26
ATOM     26  O   UNL     1       6.804  -4.219   3.809  0.00  0.00    -0.506 OA
ATOM     27  H   UNL     1       7.180  -4.884   3.217  0.00  0.00    +0.292 HD
ENDBRANCH  25  26
ENDBRANCH  17  23
ENDBRANCH  16  17
ENDBRANCH   1  16
TORSDOF 6
