REMARK  Name = ZINC39639410
REMARK  7 active torsions:
REMARK  status: ('A' for Active; 'I' for Inactive)
REMARK    1  A    between atoms: C_1  and  C_2
REMARK    2  A    between atoms: C_5  and  C_8
REMARK    3  A    between atoms: C_8  and  C_10
REMARK    4  A    between atoms: C_8  and  N_11
REMARK    5  A    between atoms: C_12  and  C_14
REMARK    6  A    between atoms: C_25  and  C_27
REMARK    7  A    between atoms: C_30  and  C_32
REMARK                            x       y       z     vdW  Elec       q    Type
REMARK                         _______ _______ _______ _____ _____    ______ ____
ROOT
ATOM      1  C   UNL     1       2.460  -6.468   1.999  0.00  0.00    +0.100 C 
ATOM      2  C   UNL     1       1.730  -6.497   3.361  0.00  0.00    +0.121 C 
ATOM      3  N   UNL     1       1.236  -7.888   3.492  0.00  0.00    -0.294 N 
ATOM      4  C   UNL     1       2.335  -8.722   2.948  0.00  0.00    +0.115 C 
ATOM      5  C   UNL     1       2.858  -7.930   1.734  0.00  0.00    -0.004 C 
ATOM      6  C   UNL     1       4.375  -8.055   1.635  0.00  0.00    -0.010 C 
ATOM      7  C   UNL     1       4.744  -9.505   1.313  0.00  0.00    -0.082 C 
ATOM      8  N   UNL     1       4.118  -9.901   0.046  0.00  0.00    +0.379 N 
ATOM      9  C   UNL     1       2.656  -9.868   0.178  0.00  0.00    -0.082 C 
ATOM     10  C   UNL     1       2.199  -8.432   0.453  0.00  0.00    -0.010 C 
ATOM     11  C   UNL     1       0.055  -8.302   3.992  0.00  0.00    +0.282 C 
ATOM     12  O   UNL     1      -0.206  -9.490   4.033  0.00  0.00    -0.267 OA
ATOM     13  H   UNL     1       4.403  -9.264  -0.682  0.00  0.00    -0.086 HD
ATOM     14  H   UNL     1       4.411 -10.836  -0.195  0.00  0.00    -0.086 HD
ENDROOT
BRANCH  11  15
ATOM     15  C   UNL     1      -0.914  -7.321   4.488  0.00  0.00    +0.190 A 
ATOM     16  C   UNL     1      -2.149  -7.606   5.027  0.00  0.00    +0.055 A 
ATOM     17  C   UNL     1      -2.734  -6.382   5.365  0.00  0.00    +0.051 A 
ATOM     18  C   UNL     1      -1.844  -5.404   5.023  0.00  0.00    +0.139 A 
ATOM     19  O   UNL     1      -0.750  -5.981   4.501  0.00  0.00    -0.450 OA
BRANCH  18  20
ATOM     20  C   UNL     1      -2.049  -3.953   5.204  0.00  0.00    +0.052 A 
ATOM     21  C   UNL     1      -3.228  -3.350   4.759  0.00  0.00    +0.014 A 
ATOM     22  C   UNL     1      -3.413  -1.994   4.931  0.00  0.00    +0.001 A 
ATOM     23  C   UNL     1      -2.434  -1.230   5.542  0.00  0.00    +0.003 A 
ATOM     24  C   UNL     1      -1.263  -1.817   5.984  0.00  0.00    +0.039 A 
ATOM     25  C   UNL     1      -1.066  -3.176   5.825  0.00  0.00    +0.134 A 
ATOM     26  F   UNL     1       0.075  -3.751   6.264  0.00  0.00    -0.205 F 
ENDBRANCH  18  20
ENDBRANCH  11  15
BRANCH   1  28
ATOM     27  N   UNL     1       2.036  -5.337  -0.159  0.00  0.00    -0.308 N 
ATOM     28  C   UNL     1       1.534  -5.972   0.919  0.00  0.00    +0.219 C 
ATOM     29  O   UNL     1       0.338  -6.144   1.019  0.00  0.00    -0.275 OA
ATOM     30  H   UNL     1       2.993  -5.199  -0.239  0.00  0.00    +0.149 HD
BRANCH  27  31
ATOM     31  C   UNL     1       1.136  -4.854  -1.209  0.00  0.00    +0.100 C 
ATOM     32  C   UNL     1       0.600  -3.473  -0.827  0.00  0.00    +0.033 C 
BRANCH  31  37
ATOM     33  C   UNL     1       4.023  -4.484  -6.202  0.00  0.00    +0.044 C 
ATOM     34  C   UNL     1       3.270  -4.580  -4.900  0.00  0.00    -0.050 A 
ATOM     35  C   UNL     1       1.970  -5.051  -4.886  0.00  0.00    +0.004 A 
ATOM     36  C   UNL     1       1.280  -5.140  -3.692  0.00  0.00    +0.006 A 
ATOM     37  C   UNL     1       1.889  -4.758  -2.511  0.00  0.00    -0.027 A 
ATOM     38  C   UNL     1       3.189  -4.288  -2.525  0.00  0.00    +0.006 A 
ATOM     39  C   UNL     1       3.881  -4.204  -3.718  0.00  0.00    +0.004 A 
ENDBRANCH  31  37
ENDBRANCH  27  31
ENDBRANCH   1  28
TORSDOF 5
