REMARK  Name = ZINC39946612
REMARK  11 active torsions:
REMARK  status: ('A' for Active; 'I' for Inactive)
REMARK    1  A    between atoms: C_1  and  C_2
REMARK    2  A    between atoms: C_2  and  C_3
REMARK    3  A    between atoms: C_2  and  C_4
REMARK    4  A    between atoms: C_2  and  C_5
REMARK    5  A    between atoms: C_8  and  O_11
REMARK    6  A    between atoms: O_11  and  C_12
REMARK    7  A    between atoms: C_12  and  C_13
REMARK    8  A    between atoms: C_16  and  C_19
REMARK    9  A    between atoms: N_21  and  N_22
REMARK   10  A    between atoms: C_23  and  C_24
REMARK   11  A    between atoms: C_32  and  C_34
REMARK                            x       y       z     vdW  Elec       q    Type
REMARK                         _______ _______ _______ _____ _____    ______ ____
ROOT
ATOM      1  C   UNL     1       6.046  -3.626  -9.708  0.00  0.00    +0.263 C 
ATOM      2  O   UNL     1       6.574  -4.720  -9.709  0.00  0.00    -0.268 OA
ATOM      3  N   UNL     1       5.939  -2.928 -10.856  0.00  0.00    -0.203 N 
ATOM      4  H   UNL     1       5.518  -2.054 -10.855  0.00  0.00    +0.178 HD
ENDROOT
BRANCH   1   8
ATOM      5  C   UNL     1       4.536  -2.000  -6.087  0.00  0.00    -0.010 A 
ATOM      6  C   UNL     1       5.136  -3.247  -6.084  0.00  0.00    +0.008 A 
ATOM      7  C   UNL     1       5.629  -3.781  -7.257  0.00  0.00    +0.013 A 
ATOM      8  C   UNL     1       5.520  -3.060  -8.448  0.00  0.00    +0.038 A 
ATOM      9  C   UNL     1       4.913  -1.803  -8.443  0.00  0.00    +0.013 A 
ATOM     10  C   UNL     1       4.420  -1.283  -7.264  0.00  0.00    +0.008 A 
BRANCH   5  11
ATOM     11  C   UNL     1       4.000  -1.423  -4.801  0.00  0.00    +0.264 C 
BRANCH  11  12
ATOM     12  O   UNL     1       2.639  -1.822  -4.631  0.00  0.00    -0.487 OA
BRANCH  12  16
ATOM     13  C   UNL     1       0.707  -0.490  -1.238  0.00  0.00    -0.042 A 
ATOM     14  C   UNL     1       0.035  -1.284  -2.148  0.00  0.00    +0.008 A 
ATOM     15  C   UNL     1       0.679  -1.732  -3.285  0.00  0.00    +0.046 A 
ATOM     16  C   UNL     1       2.002  -1.383  -3.514  0.00  0.00    +0.121 A 
ATOM     17  C   UNL     1       2.675  -0.585  -2.599  0.00  0.00    +0.046 A 
ATOM     18  C   UNL     1       2.024  -0.136  -1.466  0.00  0.00    +0.008 A 
BRANCH  13  20
ATOM     19  C   UNL     1      -0.019   1.526   0.010  0.00  0.00    +0.015 C 
ATOM     20  C   UNL     1       0.002  -0.004   0.002  0.00  0.00    -0.013 C 
ATOM     21  C   UNL     1       0.742  -0.511   1.242  0.00  0.00    +0.015 C 
ATOM     22  C   UNL     1      -1.433  -0.534   0.013  0.00  0.00    +0.015 C 
ENDBRANCH  13  20
ENDBRANCH  12  16
ENDBRANCH  11  12
ENDBRANCH   5  11
ENDBRANCH   1   8
BRANCH   3  23
ATOM     23  N   UNL     1       6.438  -3.464 -12.050  0.00  0.00    -0.188 NA
ATOM     24  C   UNL     1       6.334  -2.785 -13.166  0.00  0.00    +0.137 C 
BRANCH  24  25
ATOM     25  C   UNL     1       6.832  -3.322 -14.361  0.00  0.00    +0.008 C 
ATOM     26  C   UNL     1       7.456  -4.556 -14.535  0.00  0.00    +0.005 A 
ATOM     27  C   UNL     1       7.772  -5.600 -13.639  0.00  0.00    +0.010 A 
ATOM     28  C   UNL     1       8.396  -6.714 -14.097  0.00  0.00    +0.001 A 
ATOM     29  C   UNL     1       8.739  -6.860 -15.444  0.00  0.00    +0.002 A 
ATOM     30  C   UNL     1       8.468  -5.899 -16.360  0.00  0.00    +0.026 A 
ATOM     31  C   UNL     1       7.815  -4.704 -15.956  0.00  0.00    +0.044 A 
ATOM     32  N   UNL     1       7.446  -3.640 -16.638  0.00  0.00    -0.373 N 
ATOM     33  C   UNL     1       6.801  -2.685 -15.733  0.00  0.00    +0.142 C 
ATOM     34  H   UNL     1       7.578  -3.510 -17.590  0.00  0.00    +0.161 HD
BRANCH  33  35
ATOM     35  C   UNL     1       7.567  -1.387 -15.720  0.00  0.00    -0.021 A 
ATOM     36  C   UNL     1       8.946  -1.398 -15.811  0.00  0.00    +0.006 A 
ATOM     37  C   UNL     1       9.649  -0.207 -15.799  0.00  0.00    +0.000 A 
ATOM     38  C   UNL     1       8.972   0.994 -15.698  0.00  0.00    +0.000 A 
ATOM     39  C   UNL     1       7.593   1.004 -15.609  0.00  0.00    +0.000 A 
ATOM     40  C   UNL     1       6.890  -0.186 -15.625  0.00  0.00    +0.006 A 
ENDBRANCH  33  35
ENDBRANCH  24  25
ENDBRANCH   3  23
TORSDOF 8
