REMARK  Name = ZINC40425496
REMARK  9 active torsions:
REMARK  status: ('A' for Active; 'I' for Inactive)
REMARK    1  A    between atoms: C_1  and  C_2
REMARK    2  A    between atoms: C_5  and  C_24
REMARK    3  A    between atoms: C_6  and  C_8
REMARK    4  A    between atoms: N_11  and  C_14
REMARK    5  A    between atoms: C_14  and  C_15
REMARK    6  A    between atoms: C_19  and  N_21
REMARK    7  A    between atoms: N_26  and  C_27
REMARK    8  A    between atoms: C_27  and  C_28
REMARK    9  A    between atoms: C_28  and  C_29
REMARK                            x       y       z     vdW  Elec       q    Type
REMARK                         _______ _______ _______ _____ _____    ______ ____
ROOT
ATOM      1  C   UNL     1      -0.647   1.420  -0.181  0.00  0.00    +0.065 C 
ATOM      2  C   UNL     1      -0.295  -0.043  -0.088  0.00  0.00    +0.039 A 
ATOM      3  C   UNL     1       0.086  -0.725  -1.230  0.00  0.00    +0.024 A 
ATOM      4  C   UNL     1       0.408  -2.067  -1.141  0.00  0.00    +0.016 A 
ATOM      5  C   UNL     1       0.335  -2.686   0.114  0.00  0.00    +0.058 A 
ATOM      6  C   UNL     1      -0.059  -1.927   1.217  0.00  0.00    +0.057 A 
ATOM      7  N   UNL     1      -0.350  -0.650   1.082  0.00  0.00    -0.256 NA
ENDROOT
BRANCH   6   8
ATOM      8  C   UNL     1      -0.144  -2.574   2.575  0.00  0.00    +0.035 C 
ATOM      9  C   UNL     1       0.972  -2.031   3.472  0.00  0.00    -0.009 C 
ATOM     10  C   UNL     1       0.832  -2.631   4.872  0.00  0.00    -0.078 C 
ATOM     11  N   UNL     1      -0.473  -2.265   5.437  0.00  0.00    +0.382 N 
ATOM     12  C   UNL     1      -1.548  -2.843   4.622  0.00  0.00    -0.078 C 
ATOM     13  C   UNL     1      -1.499  -2.251   3.212  0.00  0.00    -0.009 C 
ATOM     14  H   UNL     1      -0.563  -1.260   5.448  0.00  0.00    -0.081 HD
BRANCH  11  15
ATOM     15  C   UNL     1      -0.572  -2.777   6.810  0.00  0.00    -0.043 C 
BRANCH  15  16
ATOM     16  C   UNL     1      -1.858  -2.299   7.433  0.00  0.00    -0.062 A 
ATOM     17  C   UNL     1      -1.888  -1.099   8.120  0.00  0.00    +0.002 A 
ATOM     18  C   UNL     1      -3.068  -0.660   8.691  0.00  0.00    +0.002 A 
ATOM     19  C   UNL     1      -4.217  -1.420   8.577  0.00  0.00    +0.033 A 
ATOM     20  C   UNL     1      -4.186  -2.619   7.890  0.00  0.00    +0.126 A 
ATOM     21  C   UNL     1      -3.007  -3.056   7.314  0.00  0.00    +0.034 A 
BRANCH  20  22
ATOM     22  N   UNL     1      -5.416  -3.433   7.767  0.00  0.00    +0.056 N 
ATOM     23  O   UNL     1      -6.447  -3.050   8.268  0.00  0.00    -0.126 OA
ATOM     24  O   UNL     1      -5.389  -4.482   7.167  0.00  0.00    -0.126 OA
ENDBRANCH  20  22
ENDBRANCH  15  16
ENDBRANCH  11  15
ENDBRANCH   6   8
BRANCH   5  25
ATOM     25  C   UNL     1       0.668  -4.118   0.266  0.00  0.00    +0.246 C 
ATOM     26  O   UNL     1       1.277  -4.499   1.246  0.00  0.00    -0.270 OA
ATOM     27  N   UNL     1       0.295  -5.001  -0.682  0.00  0.00    -0.311 N 
ATOM     28  H   UNL     1      -0.192  -4.697  -1.464  0.00  0.00    +0.149 HD
BRANCH  27  29
ATOM     29  C   UNL     1       0.625  -6.420  -0.530  0.00  0.00    +0.109 C 
BRANCH  29  30
ATOM     30  C   UNL     1       0.092  -7.199  -1.735  0.00  0.00    +0.061 C 
BRANCH  30  31
ATOM     31  C   UNL     1       0.431  -8.659  -1.579  0.00  0.00    -0.009 A 
ATOM     32  C   UNL     1      -0.289  -9.645  -0.991  0.00  0.00    +0.011 A 
ATOM     33  C   UNL     1       0.225 -10.928  -0.966  0.00  0.00    +0.008 A 
ATOM     34  C   UNL     1       1.435 -11.161  -1.530  0.00  0.00    +0.045 A 
ATOM     35  S   UNL     1       1.883  -9.540  -2.129  0.00  0.00    -0.102 S 
ENDBRANCH  30  31
ENDBRANCH  29  30
ENDBRANCH  27  29
ENDBRANCH   5  25
TORSDOF 8
