REMARK  Name = ZINC16383938
REMARK  4 active torsions:
REMARK  status: ('A' for Active; 'I' for Inactive)
REMARK    1  A    between atoms: C_3  and  C_9
REMARK    2  A    between atoms: C_12  and  C_14
REMARK    3  A    between atoms: C_15  and  C_16
REMARK    4  A    between atoms: N_18  and  C_19
REMARK                            x       y       z     vdW  Elec       q    Type
REMARK                         _______ _______ _______ _____ _____    ______ ____
ROOT
ATOM      1  C   UNL     1       6.223  -4.725   2.940  0.00  0.00    +0.241 C 
ATOM      2  O   UNL     1       7.400  -4.918   2.692  0.00  0.00    -0.270 OA
ATOM      3  N   UNL     1       5.590  -5.495   3.847  0.00  0.00    -0.282 N 
ATOM      4  H   UNL     1       4.676  -5.294   4.101  0.00  0.00    +0.155 HD
ENDROOT
BRANCH   3   5
ATOM      5  C   UNL     1       6.253  -6.585   4.424  0.00  0.00    +0.036 A 
ATOM      6  C   UNL     1       5.981  -6.945   5.739  0.00  0.00    +0.025 A 
ATOM      7  C   UNL     1       6.632  -8.019   6.314  0.00  0.00    +0.029 A 
ATOM      8  C   UNL     1       7.559  -8.741   5.577  0.00  0.00    +0.067 A 
ATOM      9  C   UNL     1       7.834  -8.381   4.256  0.00  0.00    +0.069 A 
ATOM     10  C   UNL     1       7.176  -7.306   3.681  0.00  0.00    +0.051 A 
ATOM     11  N   UNL     1       8.792  -9.277   3.786  0.00  0.00    -0.306 N 
ATOM     12  H   UNL     1       9.180  -9.278   2.897  0.00  0.00    +0.170 HD
ATOM     13  C   UNL     1       9.086 -10.142   4.775  0.00  0.00    +0.325 A 
ATOM     14  O   UNL     1       9.887 -11.054   4.693  0.00  0.00    -0.247 OA
ATOM     15  N   UNL     1       8.359  -9.845   5.869  0.00  0.00    -0.306 N 
ATOM     16  H   UNL     1       8.387 -10.319   6.715  0.00  0.00    +0.170 HD
ENDBRANCH   3   5
BRANCH   1  18
ATOM     17  C   UNL     1       6.157  -2.918   1.360  0.00  0.00    +0.051 C 
ATOM     18  C   UNL     1       5.520  -3.694   2.275  0.00  0.00    +0.071 C 
BRANCH  17  22
ATOM     19  C   UNL     1       3.831  -0.539   0.078  0.00  0.00    +0.137 A 
ATOM     20  C   UNL     1       4.946  -0.175  -0.642  0.00  0.00    +0.050 A 
ATOM     21  C   UNL     1       5.981  -1.029  -0.252  0.00  0.00    +0.050 A 
ATOM     22  C   UNL     1       5.455  -1.887   0.696  0.00  0.00    +0.129 A 
ATOM     23  O   UNL     1       4.157  -1.567   0.881  0.00  0.00    -0.455 OA
BRANCH  19  26
ATOM     24  C   UNL     1       1.133   2.071  -0.006  0.00  0.00    +0.002 A 
ATOM     25  C   UNL     1       2.379   1.484   0.079  0.00  0.00    +0.013 A 
ATOM     26  C   UNL     1       2.501   0.095  -0.013  0.00  0.00    +0.037 A 
ATOM     27  C   UNL     1       1.359  -0.691  -0.190  0.00  0.00    +0.070 A 
ATOM     28  C   UNL     1       0.118  -0.089  -0.275  0.00  0.00    +0.060 A 
ATOM     29  C   UNL     1       0.006   1.288  -0.182  0.00  0.00    +0.021 A 
ATOM     30 CL   UNL     1      -1.304  -1.061  -0.495  0.00  0.00    -0.082 Cl
ATOM     31 CL   UNL     1       1.498  -2.417  -0.306  0.00  0.00    -0.081 Cl
ENDBRANCH  19  26
ENDBRANCH  17  22
ENDBRANCH   1  18
TORSDOF 4
