REMARK  Name = ZINC63515479
REMARK  10 active torsions:
REMARK  status: ('A' for Active; 'I' for Inactive)
REMARK    1  A    between atoms: C_1  and  C_2
REMARK    2  A    between atoms: C_2  and  C_3
REMARK    3  A    between atoms: C_3  and  C_4
REMARK    4  A    between atoms: C_4  and  C_5
REMARK    5  A    between atoms: C_9  and  N_12
REMARK    6  A    between atoms: C_13  and  C_15
REMARK    7  A    between atoms: N_20  and  C_22
REMARK    8  A    between atoms: C_22  and  C_23
REMARK    9  A    between atoms: C_23  and  C_24
REMARK   10  A    between atoms: C_27  and  C_33
REMARK                            x       y       z     vdW  Elec       q    Type
REMARK                         _______ _______ _______ _____ _____    ______ ____
ROOT
ATOM      1  C   UNL     1      -8.052  -4.979   1.201  0.00  0.00    +0.101 C 
ATOM      2  C   UNL     1      -8.895  -3.914   1.941  0.00  0.00    +0.110 C 
ATOM      3  C   UNL     1     -10.230  -4.589   2.166  0.00  0.00    +0.216 C 
ATOM      4  O   UNL     1     -11.258  -4.016   2.460  0.00  0.00    -0.276 OA
ATOM      5  N   UNL     1     -10.112  -5.917   1.993  0.00  0.00    -0.300 N 
ATOM      6  C   UNL     1      -8.734  -6.290   1.652  0.00  0.00    +0.121 C 
ENDROOT
BRANCH   1   8
ATOM      7  N   UNL     1      -5.865  -3.844   1.409  0.00  0.00    -0.284 N 
ATOM      8  C   UNL     1      -6.615  -4.937   1.651  0.00  0.00    +0.220 C 
ATOM      9  O   UNL     1      -6.133  -5.887   2.232  0.00  0.00    -0.275 OA
ATOM     10  H   UNL     1      -6.250  -3.084   0.945  0.00  0.00    +0.152 HD
BRANCH   7  14
ATOM     11  C   UNL     1      -2.848  -2.593   0.015  0.00  0.00    +0.188 C 
ATOM     12  N   UNL     1      -2.878  -4.068   0.141  0.00  0.00    -0.175 NA
ATOM     13  N   UNL     1      -3.599  -4.607   0.957  0.00  0.00    -0.157 NA
ATOM     14  C   UNL     1      -4.467  -3.802   1.847  0.00  0.00    +0.275 C 
ATOM     15  S   UNL     1      -3.725  -2.130   1.575  0.00  0.00    -0.085 S 
BRANCH  11  16
ATOM     16  C   UNL     1      -1.413  -2.063   0.004  0.00  0.00    +0.040 C 
BRANCH  16  17
ATOM     17  C   UNL     1      -1.433  -0.534   0.013  0.00  0.00    +0.003 C 
BRANCH  17  19
ATOM     18  C   UNL     1      -0.019   1.526   0.010  0.00  0.00    +0.004 C 
ATOM     19  C   UNL     1       0.002  -0.004   0.002  0.00  0.00    -0.003 C 
ENDBRANCH  17  19
ENDBRANCH  16  17
ENDBRANCH  11  16
ENDBRANCH   7  14
ENDBRANCH   1   8
BRANCH   5  20
ATOM     20  C   UNL     1     -11.217  -6.870   2.127  0.00  0.00    +0.112 C 
BRANCH  20  21
ATOM     21  C   UNL     1     -11.906  -7.046   0.773  0.00  0.00    +0.052 C 
BRANCH  21  22
ATOM     22  C   UNL     1     -13.043  -8.026   0.911  0.00  0.00    -0.040 C 
ATOM     23  C   UNL     1     -14.346  -7.734   1.123  0.00  0.00    -0.001 A 
ATOM     24  C   UNL     1     -15.068  -6.466   1.284  0.00  0.00    +0.013 A 
ATOM     25  C   UNL     1     -16.404  -6.494   1.490  0.00  0.00    -0.050 A 
ATOM     26  C   UNL     1     -17.116  -7.700   1.553  0.00  0.00    +0.005 A 
ATOM     27  C   UNL     1     -16.522  -8.905   1.415  0.00  0.00    +0.026 A 
ATOM     28  C   UNL     1     -15.120  -8.994   1.194  0.00  0.00    +0.043 A 
ATOM     29  N   UNL     1     -14.326 -10.025   1.032  0.00  0.00    -0.380 N 
ATOM     30  C   UNL     1     -12.957  -9.534   0.833  0.00  0.00    +0.144 C 
ATOM     31  C   UNL     1     -17.148  -5.194   1.655  0.00  0.00    +0.044 C 
ATOM     32  H   UNL     1     -14.598 -10.956   1.038  0.00  0.00    +0.160 HD
ENDBRANCH  21  22
ENDBRANCH  20  21
ENDBRANCH   5  20
TORSDOF 8
