REMARK  Name = ZINC24904239
REMARK  6 active torsions:
REMARK  status: ('A' for Active; 'I' for Inactive)
REMARK    1  A    between atoms: C_3  and  C_8
REMARK    2  A    between atoms: C_8  and  N_9
REMARK    3  A    between atoms: N_9  and  C_10
REMARK    4  A    between atoms: C_13  and  N_16
REMARK    5  A    between atoms: C_21  and  C_32
REMARK    6  A    between atoms: C_24  and  C_27
REMARK                            x       y       z     vdW  Elec       q    Type
REMARK                         _______ _______ _______ _____ _____    ______ ____
ROOT
ATOM      1  N   UNL     1      -2.103   1.072   1.277  0.00  0.00    -0.326 N 
ATOM      2  C   UNL     1      -2.777   0.924   2.477  0.00  0.00    +0.128 A 
ATOM      3  C   UNL     1      -4.104   0.441   2.486  0.00  0.00    +0.041 A 
ATOM      4  C   UNL     1      -4.779   0.098   1.304  0.00  0.00    +0.015 A 
ATOM      5  C   UNL     1      -6.064  -0.362   1.407  0.00  0.00    +0.033 A 
ATOM      6  C   UNL     1      -6.662  -0.478   2.658  0.00  0.00    +0.144 A 
ATOM      7  N   UNL     1      -6.021  -0.167   3.762  0.00  0.00    -0.242 NA
ATOM      8  C   UNL     1      -4.772   0.292   3.726  0.00  0.00    +0.084 A 
ATOM      9  C   UNL     1      -4.070   0.651   4.906  0.00  0.00    +0.027 A 
ATOM     10  C   UNL     1      -2.775   1.120   4.789  0.00  0.00    +0.123 A 
ATOM     11  N   UNL     1      -2.181   1.240   3.612  0.00  0.00    -0.239 NA
ATOM     12  H   UNL     1      -2.599   0.809   0.332  0.00  0.00    +0.148 HD
ENDROOT
BRANCH   1  16
ATOM     13  C   UNL     1      -0.773   3.123  -1.223  0.00  0.00    -0.071 C 
ATOM     14  C   UNL     1      -0.753   1.593  -1.232  0.00  0.00    -0.014 C 
ATOM     15  C   UNL     1      -0.013   1.086   0.008  0.00  0.00    +0.020 C 
ATOM     16  C   UNL     1      -0.729   1.579   1.267  0.00  0.00    +0.072 C 
ATOM     17  C   UNL     1      -0.750   3.109   1.275  0.00  0.00    +0.020 C 
ATOM     18  C   UNL     1      -1.490   3.616   0.036  0.00  0.00    -0.014 C 
BRANCH  13  19
ATOM     19  N   UNL     1      -1.484   3.609  -2.413  0.00  0.00    +0.384 N 
ATOM     20  H   UNL     1      -2.563   3.617  -2.201  0.00  0.00    -0.085 HD
ATOM     21  H   UNL     1      -1.280   2.925  -3.250  0.00  0.00    -0.085 HD
BRANCH  19  22
ATOM     22  C   UNL     1      -1.045   4.965  -2.771  0.00  0.00    -0.046 C 
BRANCH  22  25
ATOM     23  C   UNL     1      -3.681   6.530  -4.975  0.00  0.00    +0.003 A 
ATOM     24  C   UNL     1      -2.992   6.104  -3.855  0.00  0.00    +0.002 A 
ATOM     25  C   UNL     1      -1.794   5.429  -3.993  0.00  0.00    -0.062 A 
ATOM     26  C   UNL     1      -1.279   5.185  -5.253  0.00  0.00    +0.040 A 
ATOM     27  C   UNL     1      -1.970   5.607  -6.376  0.00  0.00    +0.124 A 
ATOM     28  C   UNL     1      -3.171   6.283  -6.236  0.00  0.00    +0.038 A 
ATOM     29  F   UNL     1      -1.470   5.365  -7.608  0.00  0.00    -0.205 F 
ENDBRANCH  22  25
ENDBRANCH  19  22
ENDBRANCH  13  19
ENDBRANCH   1  16
BRANCH   9  30
ATOM     30  C   UNL     1      -4.713   0.524   6.236  0.00  0.00    -0.007 A 
ATOM     31  C   UNL     1      -4.066  -0.133   7.279  0.00  0.00    +0.016 A 
ATOM     32  C   UNL     1      -4.682  -0.223   8.479  0.00  0.00    +0.046 A 
ATOM     33  S   UNL     1      -6.228   0.617   8.176  0.00  0.00    -0.104 S 
ATOM     34  C   UNL     1      -5.956   1.046   6.465  0.00  0.00    +0.053 A 
ENDBRANCH   9  30
BRANCH   6  35
ATOM     35  C   UNL     1      -8.078  -0.987   2.750  0.00  0.00    +0.434 C 
ATOM     36  F   UNL     1      -8.065  -2.380   2.880  0.00  0.00    -0.164 F 
ATOM     37  F   UNL     1      -8.705  -0.421   3.865  0.00  0.00    -0.164 F 
ATOM     38  F   UNL     1      -8.777  -0.633   1.591  0.00  0.00    -0.164 F 
ENDBRANCH   6  35
TORSDOF 6
