REMARK  Name = ZINC12659897
REMARK  12 active torsions:
REMARK  status: ('A' for Active; 'I' for Inactive)
REMARK    1  A    between atoms: C_1  and  C_2
REMARK    2  A    between atoms: C_6  and  C_8
REMARK    3  A    between atoms: C_8  and  C_10
REMARK    4  A    between atoms: C_8  and  C_11
REMARK    5  A    between atoms: C_13  and  O_40
REMARK    6  A    between atoms: C_18  and  C_39
REMARK    7  A    between atoms: C_28  and  C_38
REMARK    8  A    between atoms: C_31  and  O_34
REMARK    9  A    between atoms: O_34  and  C_35
REMARK   10  A    between atoms: C_35  and  C_37
REMARK   11  A    between atoms: O_40  and  C_41
REMARK   12  A    between atoms: C_41  and  C_43
REMARK                            x       y       z     vdW  Elec       q    Type
REMARK                         _______ _______ _______ _____ _____    ______ ____
ROOT
ATOM      1  C   UNL     1      -1.366   3.062  -0.908  0.00  0.00    +0.044 C 
ATOM      2  C   UNL     1      -0.578   2.124  -1.842  0.00  0.00    +0.181 C 
ATOM      3  C   UNL     1       0.424   1.377  -0.940  0.00  0.00    +0.049 C 
ATOM      4  C   UNL     1      -0.262   1.313   0.451  0.00  0.00    +0.003 C 
ATOM      5  C   UNL     1      -1.119   2.579   0.518  0.00  0.00    -0.022 C 
ATOM      6  C   UNL     1      -2.338   2.486   1.396  0.00  0.00    +0.007 C 
ATOM      7  C   UNL     1      -3.074   1.155   1.327  0.00  0.00    +0.005 C 
ATOM      8  C   UNL     1      -2.073   0.043   1.650  0.00  0.00    +0.003 C 
ATOM      9  C   UNL     1      -1.035   0.004   0.534  0.00  0.00    +0.000 C 
ATOM     10  C   UNL     1      -1.723  -0.327  -0.788  0.00  0.00    +0.031 C 
ATOM     11  C   UNL     1      -2.533  -1.583  -0.633  0.00  0.00    -0.027 C 
ATOM     12  C   UNL     1      -2.996  -2.001   0.507  0.00  0.00    -0.064 C 
ATOM     13  C   UNL     1      -2.771  -1.296   1.813  0.00  0.00    -0.008 C 
ATOM     14  C   UNL     1      -4.106  -1.117   2.538  0.00  0.00    +0.015 C 
ATOM     15  C   UNL     1      -4.860  -2.443   2.627  0.00  0.00    +0.046 C 
ATOM     16  C   UNL     1      -5.150  -2.974   1.222  0.00  0.00    +0.180 C 
ATOM     17  C   UNL     1      -3.825  -3.275   0.514  0.00  0.00    +0.075 C 
ATOM     18  C   UNL     1      -1.869  -2.179   2.684  0.00  0.00    +0.016 C 
ATOM     19  C   UNL     1      -0.220   3.663   1.179  0.00  0.00    +0.012 C 
ENDROOT
BRANCH   1  20
ATOM     20  C   UNL     1      -2.839   3.093  -1.297  0.00  0.00    +0.035 C 
ATOM     21  C   UNL     1      -3.493   4.349  -0.718  0.00  0.00    +0.014 C 
BRANCH  20  26
ATOM     22  C   UNL     1      -3.154   3.032  -7.042  0.00  0.00    +0.009 C 
ATOM     23  C   UNL     1      -3.139   2.731  -5.542  0.00  0.00    +0.005 C 
ATOM     24  C   UNL     1      -4.305   3.457  -4.857  0.00  0.00    +0.011 C 
ATOM     25  C   UNL     1      -4.339   3.024  -3.389  0.00  0.00    +0.049 C 
ATOM     26  C   UNL     1      -2.962   3.109  -2.799  0.00  0.00    -0.008 C 
ATOM     27  C   UNL     1      -1.831   3.235  -4.928  0.00  0.00    +0.115 C 
ATOM     28  N   UNL     1      -1.811   3.203  -3.418  0.00  0.00    -0.390 N 
ATOM     29  H   UNL     1      -0.928   3.252  -2.896  0.00  0.00    +0.159 HD
ENDBRANCH  20  26
ENDBRANCH   1  20
BRANCH  16  30
ATOM     30  O   UNL     1      -5.940  -4.188   1.313  0.00  0.00    -0.461 OA
BRANCH  30  31
ATOM     31  C   UNL     1      -6.781  -4.445   0.299  0.00  0.00    +0.304 C 
ATOM     32  O   UNL     1      -6.854  -3.681  -0.634  0.00  0.00    -0.251 OA
ATOM     33  C   UNL     1      -7.633  -5.687   0.324  0.00  0.00    +0.136 C 
ENDBRANCH  30  31
ENDBRANCH  16  30
BRANCH   2  34
ATOM     34  O   UNL     1       0.138   2.905  -2.838  0.00  0.00    -0.461 OA
BRANCH  34  35
ATOM     35  C   UNL     1       0.389   2.310  -4.014  0.00  0.00    +0.304 C 
ATOM     36  O   UNL     1       0.025   1.174  -4.207  0.00  0.00    -0.251 OA
ATOM     37  C   UNL     1       1.126   3.058  -5.095  0.00  0.00    +0.136 C 
ENDBRANCH  34  35
ENDBRANCH   2  34
TORSDOF 6
