REMARK  Name = ZINC17960594
REMARK  10 active torsions:
REMARK  status: ('A' for Active; 'I' for Inactive)
REMARK    1  A    between atoms: C_1  and  C_2
REMARK    2  A    between atoms: C_4  and  C_35
REMARK    3  A    between atoms: C_5  and  N_9
REMARK    4  A    between atoms: C_6  and  C_8
REMARK    5  A    between atoms: C_10  and  C_12
REMARK    6  A    between atoms: C_12  and  N_13
REMARK    7  A    between atoms: C_14  and  C_16
REMARK    8  A    between atoms: C_16  and  N_17
REMARK    9  A    between atoms: C_20  and  C_24
REMARK   10  A    between atoms: C_20  and  C_25
REMARK                            x       y       z     vdW  Elec       q    Type
REMARK                         _______ _______ _______ _____ _____    ______ ____
ROOT
ATOM      1  C   UNL     1       5.263  -1.521   3.412  0.00  0.00    +0.213 C 
ENDROOT
BRANCH   1   2
ATOM      2  N   UNL     1       4.236  -1.822   2.412  0.00  0.00    -0.215 N 
ATOM      3  C   UNL     1       3.296  -0.946   2.005  0.00  0.00    +0.251 C 
ATOM      4  O   UNL     1       3.148   0.197   2.381  0.00  0.00    -0.272 OA
ATOM      5  C   UNL     1       2.463  -1.686   0.978  0.00  0.00    +0.135 C 
ATOM      6  N   UNL     1       3.089  -3.019   0.920  0.00  0.00    -0.281 N 
ATOM      7  C   UNL     1       4.114  -3.001   1.791  0.00  0.00    +0.310 C 
ATOM      8  O   UNL     1       4.846  -3.949   1.992  0.00  0.00    -0.252 OA
ATOM      9  C   UNL     1       2.543  -0.995  -0.385  0.00  0.00    +0.047 C 
ATOM     10  H   UNL     1       2.815  -3.764   0.362  0.00  0.00    +0.152 HD
BRANCH   5  11
ATOM     11  C   UNL     1       1.031  -1.793   1.433  0.00  0.00    -0.015 A 
ATOM     12  C   UNL     1       0.465  -0.752   2.168  0.00  0.00    +0.007 A 
ATOM     13  C   UNL     1      -0.826  -0.817   2.595  0.00  0.00    +0.009 A 
ATOM     14  C   UNL     1      -1.603  -1.948   2.291  0.00  0.00    -0.018 A 
ATOM     15  C   UNL     1      -2.939  -2.051   2.715  0.00  0.00    +0.008 A 
ATOM     16  C   UNL     1      -3.661  -3.162   2.403  0.00  0.00    +0.001 A 
ATOM     17  C   UNL     1      -3.095  -4.202   1.668  0.00  0.00    +0.001 A 
ATOM     18  C   UNL     1      -1.804  -4.138   1.242  0.00  0.00    +0.008 A 
ATOM     19  C   UNL     1      -1.029  -3.003   1.539  0.00  0.00    -0.018 A 
ATOM     20  C   UNL     1       0.309  -2.904   1.121  0.00  0.00    +0.014 A 
ENDBRANCH   5  11
ENDBRANCH   1   2
BRANCH   1  22
ATOM     21  N   UNL     1       7.564  -0.614   3.451  0.00  0.00    -0.305 N 
ATOM     22  C   UNL     1       6.484  -0.965   2.725  0.00  0.00    +0.231 C 
ATOM     23  O   UNL     1       6.495  -0.833   1.520  0.00  0.00    -0.274 OA
ATOM     24  H   UNL     1       7.556  -0.720   4.415  0.00  0.00    +0.149 HD
BRANCH  21  25
ATOM     25  C   UNL     1       8.751  -0.073   2.783  0.00  0.00    +0.200 C 
BRANCH  25  27
ATOM     26  N   UNL     1      10.995   0.747   3.426  0.00  0.00    -0.284 N 
ATOM     27  C   UNL     1       9.809   0.236   3.812  0.00  0.00    +0.234 C 
ATOM     28  O   UNL     1       9.592   0.026   4.986  0.00  0.00    -0.274 OA
ATOM     29  H   UNL     1      11.188   0.866   2.483  0.00  0.00    +0.155 HD
BRANCH  26  34
ATOM     30  C   UNL     1      14.858   2.200   7.318  0.00  0.00    +0.044 C 
ATOM     31  C   UNL     1      13.832   1.814   6.284  0.00  0.00    -0.050 A 
ATOM     32  C   UNL     1      14.184   0.978   5.240  0.00  0.00    +0.008 A 
ATOM     33  C   UNL     1      13.246   0.622   4.291  0.00  0.00    -0.029 A 
ATOM     34  C   UNL     1      11.948   1.105   4.386  0.00  0.00    +0.039 A 
ATOM     35  C   UNL     1      11.598   1.949   5.432  0.00  0.00    -0.029 A 
ATOM     36  C   UNL     1      12.540   2.296   6.381  0.00  0.00    +0.008 A 
ATOM     37  C   UNL     1      10.192   2.480   5.535  0.00  0.00    +0.045 C 
ATOM     38  C   UNL     1      13.632  -0.288   3.154  0.00  0.00    +0.045 C 
ENDBRANCH  26  34
ENDBRANCH  25  27
ENDBRANCH  21  25
ENDBRANCH   1  22
TORSDOF 6
