REMARK  Name = ZINC39676265
REMARK  6 active torsions:
REMARK  status: ('A' for Active; 'I' for Inactive)
REMARK    1  A    between atoms: C_11  and  C_13
REMARK    2  A    between atoms: C_13  and  N_14
REMARK    3  A    between atoms: C_15  and  C_17
REMARK    4  A    between atoms: C_28  and  C_30
REMARK    5  A    between atoms: C_30  and  O_31
REMARK    6  A    between atoms: O_31  and  C_32
REMARK                            x       y       z     vdW  Elec       q    Type
REMARK                         _______ _______ _______ _____ _____    ______ ____
ROOT
ATOM      1  C   UNL     1       8.431  -0.891  -0.090  0.00  0.00    +0.100 C 
ATOM      2  C   UNL     1       8.297   0.028   1.145  0.00  0.00    +0.121 C 
ATOM      3  N   UNL     1       9.214  -0.558   2.150  0.00  0.00    -0.297 N 
ATOM      4  C   UNL     1      10.399  -0.982   1.365  0.00  0.00    +0.115 C 
ATOM      5  C   UNL     1       9.813  -1.549   0.057  0.00  0.00    -0.004 C 
ATOM      6  C   UNL     1      10.704  -1.177  -1.125  0.00  0.00    -0.010 C 
ATOM      7  C   UNL     1      12.052  -1.891  -0.987  0.00  0.00    -0.082 C 
ATOM      8  N   UNL     1      11.838  -3.342  -0.948  0.00  0.00    +0.379 N 
ATOM      9  C   UNL     1      11.059  -3.701   0.244  0.00  0.00    -0.082 C 
ATOM     10  C   UNL     1       9.669  -3.065   0.158  0.00  0.00    -0.010 C 
ATOM     11  C   UNL     1       9.017  -0.678   3.478  0.00  0.00    +0.253 C 
ATOM     12  O   UNL     1       9.871  -1.185   4.174  0.00  0.00    -0.272 OA
ATOM     13  H   UNL     1      11.337  -3.630  -1.775  0.00  0.00    -0.086 HD
ATOM     14  H   UNL     1      12.731  -3.812  -0.918  0.00  0.00    -0.086 HD
ENDROOT
BRANCH   1  16
ATOM     15  N   UNL     1       6.905  -2.456  -1.247  0.00  0.00    -0.308 N 
ATOM     16  C   UNL     1       7.348  -1.939  -0.084  0.00  0.00    +0.219 C 
ATOM     17  O   UNL     1       6.874  -2.316   0.967  0.00  0.00    -0.275 OA
ATOM     18  H   UNL     1       7.284  -2.155  -2.088  0.00  0.00    +0.149 HD
BRANCH  15  19
ATOM     19  C   UNL     1       5.852  -3.475  -1.242  0.00  0.00    +0.178 C 
BRANCH  19  30
ATOM     20  C   UNL     1       5.468  -4.338  -7.562  0.00  0.00    +0.001 A 
ATOM     21  C   UNL     1       6.430  -3.382  -7.263  0.00  0.00    +0.002 A 
ATOM     22  C   UNL     1       6.691  -3.029  -5.958  0.00  0.00    +0.028 A 
ATOM     23  C   UNL     1       5.979  -3.636  -4.922  0.00  0.00    +0.078 A 
ATOM     24  C   UNL     1       5.001  -4.607  -5.230  0.00  0.00    +0.065 A 
ATOM     25  C   UNL     1       4.753  -4.951  -6.557  0.00  0.00    +0.015 A 
ATOM     26  C   UNL     1       4.269  -5.228  -4.116  0.00  0.00    +0.259 A 
ATOM     27  O   UNL     1       3.414  -6.072  -4.313  0.00  0.00    -0.267 OA
ATOM     28  N   UNL     1       4.585  -4.826  -2.863  0.00  0.00    -0.309 N 
ATOM     29  H   UNL     1       4.123  -5.214  -2.103  0.00  0.00    +0.170 HD
ATOM     30  C   UNL     1       5.542  -3.884  -2.659  0.00  0.00    +0.128 A 
ATOM     31  N   UNL     1       6.204  -3.318  -3.622  0.00  0.00    -0.232 NA
ENDBRANCH  19  30
ENDBRANCH  15  19
ENDBRANCH   1  16
BRANCH  11  32
ATOM     32  C   UNL     1       7.735  -0.183   4.097  0.00  0.00    +0.324 C 
BRANCH  32  33
ATOM     33  O   UNL     1       7.764  -0.421   5.506  0.00  0.00    -0.483 OA
BRANCH  33  34
ATOM     34  C   UNL     1       6.676  -0.030   6.220  0.00  0.00    +0.123 A 
ATOM     35  C   UNL     1       5.600   0.565   5.576  0.00  0.00    +0.046 A 
ATOM     36  C   UNL     1       4.494   0.961   6.304  0.00  0.00    +0.005 A 
ATOM     37  C   UNL     1       4.458   0.765   7.672  0.00  0.00    +0.020 A 
ATOM     38  C   UNL     1       5.530   0.172   8.316  0.00  0.00    +0.044 A 
ATOM     39  C   UNL     1       6.636  -0.231   7.591  0.00  0.00    +0.065 A 
ATOM     40 CL   UNL     1       5.482  -0.072  10.034  0.00  0.00    -0.083 Cl
ENDBRANCH  33  34
ENDBRANCH  32  33
ENDBRANCH  11  32
TORSDOF 6
