REMARK  Name = ZINC35065820
REMARK  9 active torsions:
REMARK  status: ('A' for Active; 'I' for Inactive)
REMARK    1  A    between atoms: C_1  and  C_2
REMARK    2  A    between atoms: C_6  and  N_8
REMARK    3  A    between atoms: N_11  and  C_12
REMARK    4  A    between atoms: N_11  and  C_18
REMARK    5  A    between atoms: C_12  and  C_13
REMARK    6  A    between atoms: C_18  and  C_20
REMARK    7  A    between atoms: C_18  and  C_21
REMARK    8  A    between atoms: N_31  and  C_32
REMARK    9  A    between atoms: C_36  and  C_38
REMARK                            x       y       z     vdW  Elec       q    Type
REMARK                         _______ _______ _______ _____ _____    ______ ____
ROOT
ATOM      1  C   UNL     1      -0.337  -6.130   3.163  0.00  0.00    +0.141 C 
ATOM      2  C   UNL     1       1.137  -6.354   3.507  0.00  0.00    +0.036 C 
ENDROOT
BRANCH   1   3
ATOM      3  C   UNL     1      -1.190  -7.071   3.973  0.00  0.00    +0.138 A 
ATOM      4  N   UNL     1      -0.661  -7.642   5.013  0.00  0.00    -0.231 NA
ATOM      5  C   UNL     1      -1.368  -8.500   5.789  0.00  0.00    +0.078 A 
ATOM      6  C   UNL     1      -0.800  -9.114   6.908  0.00  0.00    +0.028 A 
ATOM      7  C   UNL     1      -1.555  -9.978   7.668  0.00  0.00    +0.002 A 
ATOM      8  C   UNL     1      -2.876 -10.249   7.337  0.00  0.00    +0.001 A 
ATOM      9  C   UNL     1      -3.459  -9.656   6.239  0.00  0.00    +0.015 A 
ATOM     10  C   UNL     1      -2.713  -8.777   5.456  0.00  0.00    +0.065 A 
ATOM     11  C   UNL     1      -3.282  -8.115   4.274  0.00  0.00    +0.266 A 
ATOM     12  O   UNL     1      -4.434  -8.311   3.932  0.00  0.00    -0.267 OA
ATOM     13  N   UNL     1      -2.477  -7.275   3.582  0.00  0.00    -0.263 N 
BRANCH  13  14
ATOM     14  C   UNL     1      -2.971  -6.614   2.450  0.00  0.00    +0.051 A 
ATOM     15  C   UNL     1      -2.512  -6.961   1.186  0.00  0.00    +0.026 A 
ATOM     16  C   UNL     1      -3.002  -6.308   0.072  0.00  0.00    +0.002 A 
ATOM     17  C   UNL     1      -3.949  -5.310   0.215  0.00  0.00    +0.003 A 
ATOM     18  C   UNL     1      -4.408  -4.962   1.472  0.00  0.00    -0.048 A 
ATOM     19  C   UNL     1      -3.926  -5.616   2.590  0.00  0.00    +0.029 A 
ATOM     20  C   UNL     1      -5.439  -3.874   1.622  0.00  0.00    +0.044 C 
ENDBRANCH  13  14
ENDBRANCH   1   3
BRANCH   1  24
ATOM     21  N   UNL     1      -1.357  -2.620   2.761  0.00  0.00    -0.269 N 
ATOM     22  C   UNL     1      -1.017  -3.893   2.476  0.00  0.00    +0.307 C 
ATOM     23  O   UNL     1      -0.992  -4.272   1.321  0.00  0.00    -0.252 OA
ATOM     24  N   UNL     1      -0.706  -4.746   3.472  0.00  0.00    -0.268 N 
ATOM     25  H   UNL     1      -1.315  -2.300   3.676  0.00  0.00    +0.156 HD
BRANCH  21  31
ATOM     26  C   UNL     1      -3.490  -1.976  -1.621  0.00  0.00    +0.044 C 
ATOM     27  C   UNL     1      -2.806  -1.421  -0.398  0.00  0.00    -0.049 A 
ATOM     28  C   UNL     1      -2.586  -0.060  -0.287  0.00  0.00    +0.003 A 
ATOM     29  C   UNL     1      -1.958   0.452   0.833  0.00  0.00    +0.002 A 
ATOM     30  C   UNL     1      -1.550  -0.394   1.845  0.00  0.00    +0.023 A 
ATOM     31  C   UNL     1      -1.770  -1.760   1.737  0.00  0.00    +0.035 A 
ATOM     32  C   UNL     1      -2.405  -2.272   0.613  0.00  0.00    +0.026 A 
ENDBRANCH  21  31
BRANCH  24  33
ATOM     33  C   UNL     1      -0.737  -4.290   4.864  0.00  0.00    +0.184 C 
BRANCH  33  34
ATOM     34  C   UNL     1      -2.148  -4.368   5.387  0.00  0.00    +0.122 A 
ATOM     35  C   UNL     1      -2.669  -5.385   6.097  0.00  0.00    +0.046 A 
ATOM     36  C   UNL     1      -4.012  -5.043   6.377  0.00  0.00    +0.041 A 
ATOM     37  C   UNL     1      -4.231  -3.838   5.821  0.00  0.00    +0.195 A 
ATOM     38  O   UNL     1      -3.097  -3.432   5.228  0.00  0.00    -0.466 OA
ENDBRANCH  33  34
ENDBRANCH  24  33
ENDBRANCH   1  24
TORSDOF 6
