REMARK  Name = ZINC39469175
REMARK  2 active torsions:
REMARK  status: ('A' for Active; 'I' for Inactive)
REMARK    1  A    between atoms: C_4  and  O_27
REMARK    2  A    between atoms: C_5  and  C_7
REMARK                            x       y       z     vdW  Elec       q    Type
REMARK                         _______ _______ _______ _____ _____    ______ ____
ROOT
ATOM      1  C   UNL     1       1.245  -2.165  -0.022  0.00  0.00    -0.005 C 
ATOM      2  C   UNL     1       0.950  -2.843  -1.148  0.00  0.00    -0.015 C 
ATOM      3  C   UNL     1       1.000  -4.346  -1.118  0.00  0.00    +0.005 C 
ATOM      4  C   UNL     1       1.197  -4.929  -2.512  0.00  0.00    -0.046 C 
ATOM      5  N   UNL     1       1.198  -6.401  -2.441  0.00  0.00    +0.399 N 
ATOM      6  C   UNL     1       2.275  -6.894  -1.583  0.00  0.00    -0.020 C 
ATOM      7  C   UNL     1       2.168  -6.308  -0.168  0.00  0.00    -0.003 C 
ATOM      8  C   UNL     1       2.185  -4.785  -0.248  0.00  0.00    +0.017 C 
ATOM      9  C   UNL     1       2.050  -4.161   1.113  0.00  0.00    -0.008 C 
ATOM     10  C   UNL     1       1.601  -2.912   1.205  0.00  0.00    +0.017 C 
ATOM     11  I   UNL     1       1.392  -2.010   3.084  0.00  0.00    -0.044 I 
ATOM     12  C   UNL     1       2.217  -8.419  -1.430  0.00  0.00    +0.159 C 
ATOM     13  O   UNL     1       2.390  -9.035  -2.719  0.00  0.00    -0.297 OA
ATOM     14  P   UNL     1       1.462  -8.500  -3.944  0.00  0.00    +0.421 P 
ATOM     15  O   UNL     1       0.058  -9.140  -3.872  0.00  0.00    -0.239 OA
ATOM     16  N   UNL     1       1.369  -6.849  -3.734  0.00  0.00    -0.267 NA
ATOM     17  O   UNL     1       2.127  -8.823  -5.301  0.00  0.00    -0.128 OA
ATOM     18  H   UNL     1       1.416  -6.230  -4.479  0.00  0.00    +0.113 HD
ATOM     19  H   UNL     1       0.309  -6.722  -2.087  0.00  0.00    -0.055 HD
ENDROOT
BRANCH   1  24
ATOM     20  C   UNL     1      -0.017   1.376   0.010  0.00  0.00    +0.001 A 
ATOM     21  C   UNL     1       1.169   2.089   0.002  0.00  0.00    +0.004 A 
ATOM     22  C   UNL     1       2.382   1.426  -0.013  0.00  0.00    +0.046 A 
ATOM     23  C   UNL     1       2.415   0.041  -0.021  0.00  0.00    +0.125 A 
ATOM     24  C   UNL     1       1.219  -0.683  -0.013  0.00  0.00    +0.024 A 
ATOM     25  C   UNL     1       0.002  -0.004   0.002  0.00  0.00    +0.012 A 
BRANCH  23  26
ATOM     26  O   UNL     1       3.607  -0.612  -0.037  0.00  0.00    -0.506 OA
ATOM     27  H   UNL     1       3.961  -0.806   0.842  0.00  0.00    +0.292 HD
ENDBRANCH  23  26
ENDBRANCH   1  24
TORSDOF 2
