REMARK  Name = ZINC08828086
REMARK  12 active torsions:
REMARK  status: ('A' for Active; 'I' for Inactive)
REMARK    1  A    between atoms: C_1  and  C_2
REMARK    2  A    between atoms: C_2  and  O_3
REMARK    3  A    between atoms: O_3  and  C_4
REMARK    4  A    between atoms: C_7  and  C_12
REMARK    5  A    between atoms: C_9  and  O_10
REMARK    6  A    between atoms: O_10  and  C_11
REMARK    7  A    between atoms: N_16  and  C_34
REMARK    8  A    between atoms: C_18  and  C_19
REMARK    9  A    between atoms: C_18  and  C_21
REMARK   10  A    between atoms: N_23  and  C_24
REMARK   11  A    between atoms: C_24  and  C_26
REMARK   12  A    between atoms: C_24  and  C_27
REMARK                            x       y       z     vdW  Elec       q    Type
REMARK                         _______ _______ _______ _____ _____    ______ ____
ROOT
ATOM      1  C   UNL     1      -2.916   0.897   0.491  0.00  0.00    +0.028 C 
ATOM      2  C   UNL     1      -2.701  -0.402   0.155  0.00  0.00    +0.079 A 
ATOM      3  C   UNL     1      -1.513  -1.244   0.385  0.00  0.00    +0.270 A 
ATOM      4  O   UNL     1      -0.526  -0.811   0.950  0.00  0.00    -0.266 OA
ATOM      5  N   UNL     1      -1.571  -2.493  -0.047  0.00  0.00    -0.269 N 
ATOM      6  C   UNL     1      -2.690  -2.963  -0.688  0.00  0.00    +0.111 A 
ATOM      7  C   UNL     1      -2.921  -4.239  -1.211  0.00  0.00    +0.144 C 
ATOM      8  S   UNL     1      -3.779  -1.548  -0.692  0.00  0.00    -0.064 S 
ENDROOT
BRANCH   1  12
ATOM      9  C   UNL     1       0.267   3.243   2.031  0.00  0.00    +0.162 A 
ATOM     10  C   UNL     1       0.512   2.312   1.030  0.00  0.00    +0.050 A 
ATOM     11  C   UNL     1      -0.517   1.545   0.530  0.00  0.00    +0.012 A 
ATOM     12  C   UNL     1      -1.816   1.708   1.026  0.00  0.00    -0.020 A 
ATOM     13  C   UNL     1      -2.062   2.644   2.039  0.00  0.00    +0.057 A 
ATOM     14  C   UNL     1      -1.023   3.408   2.534  0.00  0.00    +0.162 A 
BRANCH  14  15
ATOM     15  O   UNL     1      -1.259   4.322   3.514  0.00  0.00    -0.491 OA
ATOM     16  C   UNL     1      -2.604   4.438   3.982  0.00  0.00    +0.277 C 
ENDBRANCH  14  15
BRANCH   9  17
ATOM     17  O   UNL     1       1.286   3.996   2.520  0.00  0.00    -0.489 OA
BRANCH  17  19
ATOM     18  C   UNL     1       3.592   4.708   2.631  0.00  0.00    +0.048 C 
ATOM     19  C   UNL     1       2.582   3.776   1.959  0.00  0.00    +0.226 C 
ENDBRANCH  17  19
ENDBRANCH   9  17
ENDBRANCH   1  12
BRANCH   5  20
ATOM     20  C   UNL     1      -0.476  -3.344   0.147  0.00  0.00    +0.051 A 
ATOM     21  C   UNL     1      -0.437  -4.188   1.249  0.00  0.00    +0.026 A 
ATOM     22  C   UNL     1       0.642  -5.030   1.434  0.00  0.00    +0.002 A 
ATOM     23  C   UNL     1       1.688  -5.025   0.530  0.00  0.00    +0.000 A 
ATOM     24  C   UNL     1       1.655  -4.181  -0.566  0.00  0.00    +0.002 A 
ATOM     25  C   UNL     1       0.576  -3.341  -0.759  0.00  0.00    +0.026 A 
ENDBRANCH   5  20
BRANCH   7  26
ATOM     26  C   UNL     1      -4.216  -4.561  -1.807  0.00  0.00    +0.257 C 
ATOM     27  O   UNL     1      -5.094  -3.718  -1.849  0.00  0.00    -0.269 OA
ATOM     28  N   UNL     1      -4.439  -5.791  -2.311  0.00  0.00    -0.304 N 
ATOM     29  H   UNL     1      -3.739  -6.463  -2.277  0.00  0.00    +0.150 HD
BRANCH  28  30
ATOM     30  C   UNL     1      -5.737  -6.114  -2.908  0.00  0.00    +0.100 C 
ATOM     31  C   UNL     1      -5.748  -5.673  -4.373  0.00  0.00    +0.033 C 
BRANCH  30  32
ATOM     32  C   UNL     1      -5.969  -7.601  -2.830  0.00  0.00    -0.027 A 
ATOM     33  C   UNL     1      -4.928  -8.477  -3.072  0.00  0.00    +0.005 A 
ATOM     34  C   UNL     1      -5.141  -9.841  -2.997  0.00  0.00    +0.000 A 
ATOM     35  C   UNL     1      -6.397 -10.329  -2.688  0.00  0.00    +0.000 A 
ATOM     36  C   UNL     1      -7.439  -9.453  -2.451  0.00  0.00    +0.000 A 
ATOM     37  C   UNL     1      -7.226  -8.089  -2.522  0.00  0.00    +0.005 A 
ENDBRANCH  30  32
ENDBRANCH  28  30
ENDBRANCH   7  26
BRANCH   7  38
ATOM     38  C   UNL     1      -1.889  -5.230  -1.162  0.00  0.00    +0.107 C 
ATOM     39  N   UNL     1      -1.070  -6.016  -1.123  0.00  0.00    -0.191 NA
ENDBRANCH   7  38
TORSDOF 9
