REMARK  Name = ZINC15956633
REMARK  8 active torsions:
REMARK  status: ('A' for Active; 'I' for Inactive)
REMARK    1  A    between atoms: C_1  and  C_2
REMARK    2  A    between atoms: C_2  and  C_3
REMARK    3  A    between atoms: C_3  and  C_4
REMARK    4  A    between atoms: C_4  and  C_5
REMARK    5  A    between atoms: C_8  and  N_11
REMARK    6  A    between atoms: C_16  and  C_35
REMARK    7  A    between atoms: C_26  and  C_34
REMARK    8  A    between atoms: C_35  and  C_36
REMARK                            x       y       z     vdW  Elec       q    Type
REMARK                         _______ _______ _______ _____ _____    ______ ____
ROOT
ATOM      1  N   UNL     1      -7.027  -3.676  -0.487  0.00  0.00    -0.210 N 
ATOM      2  C   UNL     1      -7.502  -4.354   0.565  0.00  0.00    +0.232 C 
ATOM      3  O   UNL     1      -6.855  -4.680   1.537  0.00  0.00    -0.274 OA
ATOM      4  C   UNL     1      -8.969  -4.649   0.352  0.00  0.00    +0.108 C 
ATOM      5  C   UNL     1      -9.804  -3.848   1.373  0.00  0.00    +0.076 C 
ATOM      6  N   UNL     1     -10.029  -2.526   0.730  0.00  0.00    -0.295 NA
ATOM      7  C   UNL     1     -10.251  -2.851  -0.692  0.00  0.00    +0.136 C 
ATOM      8  C   UNL     1      -9.269  -4.000  -1.029  0.00  0.00    +0.123 C 
ATOM      9  C   UNL     1      -7.933  -3.421  -1.438  0.00  0.00    +0.233 C 
ATOM     10  O   UNL     1      -7.716  -2.821  -2.469  0.00  0.00    -0.274 OA
ATOM     11  C   UNL     1     -10.028  -1.654  -1.572  0.00  0.00    +0.005 A 
ATOM     12  C   UNL     1      -8.947  -0.831  -1.799  0.00  0.00    +0.011 A 
ATOM     13  C   UNL     1      -9.051   0.220  -2.692  0.00  0.00    -0.049 A 
ATOM     14  C   UNL     1     -10.243   0.443  -3.357  0.00  0.00    +0.025 A 
ATOM     15  C   UNL     1     -11.329  -0.379  -3.134  0.00  0.00    +0.063 A 
ATOM     16  C   UNL     1     -11.232  -1.441  -2.236  0.00  0.00    +0.057 A 
ATOM     17  N   UNL     1     -12.173  -2.398  -1.849  0.00  0.00    -0.282 N 
ATOM     18  C   UNL     1     -11.675  -3.263  -0.945  0.00  0.00    +0.243 C 
ATOM     19  O   UNL     1     -12.261  -4.194  -0.434  0.00  0.00    -0.273 OA
ATOM     20 CL   UNL     1     -12.820  -0.090  -3.974  0.00  0.00    -0.082 Cl
ATOM     21  C   UNL     1      -7.869   1.121  -2.939  0.00  0.00    +0.044 C 
ATOM     22  H   UNL     1     -10.835  -2.064   1.125  0.00  0.00    +0.124 HD
ATOM     23  H   UNL     1     -13.080  -2.435  -2.191  0.00  0.00    +0.155 HD
ENDROOT
BRANCH   1  27
ATOM     24  C   UNL     1      -3.054  -2.448  -0.770  0.00  0.00    -0.047 A 
ATOM     25  C   UNL     1      -3.881  -1.893   0.189  0.00  0.00    +0.005 A 
ATOM     26  C   UNL     1      -5.198  -2.298   0.285  0.00  0.00    +0.024 A 
ATOM     27  C   UNL     1      -5.691  -3.263  -0.583  0.00  0.00    +0.044 A 
ATOM     28  C   UNL     1      -4.858  -3.818  -1.544  0.00  0.00    +0.024 A 
ATOM     29  C   UNL     1      -3.543  -3.405  -1.639  0.00  0.00    +0.005 A 
BRANCH  24  30
ATOM     30  C   UNL     1      -1.617  -2.003  -0.872  0.00  0.00    +0.035 C 
BRANCH  30  31
ATOM     31  C   UNL     1      -1.517  -0.816  -1.831  0.00  0.00    +0.004 C 
BRANCH  31  33
ATOM     32  C   UNL     1       0.041   0.822  -2.895  0.00  0.00    +0.004 C 
ATOM     33  C   UNL     1      -0.059  -0.365  -1.935  0.00  0.00    -0.003 C 
ENDBRANCH  31  33
ENDBRANCH  30  31
ENDBRANCH  24  30
ENDBRANCH   1  27
BRANCH   5  34
ATOM     34  C   UNL     1     -11.138  -4.549   1.636  0.00  0.00    +0.115 C 
BRANCH  34  35
ATOM     35  C   UNL     1     -10.997  -5.469   2.821  0.00  0.00    +0.212 C 
ATOM     36  O   UNL     1      -9.934  -5.555   3.399  0.00  0.00    -0.276 OA
ATOM     37  N   UNL     1     -12.052  -6.196   3.240  0.00  0.00    -0.329 N 
ATOM     38  H   UNL     1     -12.902  -6.127   2.778  0.00  0.00    +0.145 HD
ATOM     39  H   UNL     1     -11.961  -6.787   4.003  0.00  0.00    +0.145 HD
ENDBRANCH  34  35
ENDBRANCH   5  34
TORSDOF 6
