REMARK  Name = ZINC38602695
REMARK  10 active torsions:
REMARK  status: ('A' for Active; 'I' for Inactive)
REMARK    1  A    between atoms: C_1  and  C_2
REMARK    2  A    between atoms: C_2  and  C_4
REMARK    3  A    between atoms: C_2  and  N_24
REMARK    4  A    between atoms: C_4  and  C_6
REMARK    5  A    between atoms: C_4  and  N_11
REMARK    6  A    between atoms: N_14  and  C_17
REMARK    7  A    between atoms: C_17  and  C_18
REMARK    8  A    between atoms: C_25  and  C_27
REMARK    9  A    between atoms: N_29  and  C_30
REMARK   10  A    between atoms: C_35  and  N_36
REMARK                            x       y       z     vdW  Elec       q    Type
REMARK                         _______ _______ _______ _____ _____    ______ ____
ROOT
ATOM      1  C   UNL     1       0.739  -0.450   1.219  0.00  0.00    +0.113 C 
ENDROOT
BRANCH   1   2
ATOM      2  N   UNL     1       2.069   0.171   1.269  0.00  0.00    -0.297 NA
ATOM      3  C   UNL     1       2.820  -0.092   0.033  0.00  0.00    +0.066 C 
ATOM      4  C   UNL     1       4.173   0.620   0.101  0.00  0.00    -0.063 C 
ATOM      5  N   UNL     1       4.926   0.132   1.264  0.00  0.00    +0.384 N 
ATOM      6  C   UNL     1       4.175   0.423   2.493  0.00  0.00    -0.063 C 
ATOM      7  C   UNL     1       2.822  -0.290   2.445  0.00  0.00    +0.066 C 
ATOM      8  H   UNL     1       5.062  -0.864   1.182  0.00  0.00    -0.081 HD
BRANCH   5   9
ATOM      9  C   UNL     1       6.231   0.803   1.318  0.00  0.00    -0.043 C 
BRANCH   9  10
ATOM     10  C   UNL     1       7.052   0.215   2.438  0.00  0.00    -0.064 A 
ATOM     11  C   UNL     1       6.975   0.755   3.708  0.00  0.00    +0.002 A 
ATOM     12  C   UNL     1       7.727   0.216   4.735  0.00  0.00    +0.000 A 
ATOM     13  C   UNL     1       8.556  -0.863   4.491  0.00  0.00    +0.000 A 
ATOM     14  C   UNL     1       8.632  -1.404   3.221  0.00  0.00    +0.000 A 
ATOM     15  C   UNL     1       7.877  -0.868   2.195  0.00  0.00    +0.002 A 
ENDBRANCH   9  10
ENDBRANCH   5   9
ENDBRANCH   1   2
BRANCH   1  16
ATOM     16  C   UNL     1      -0.033  -0.085   2.461  0.00  0.00    +0.009 A 
ATOM     17  C   UNL     1      -0.851  -0.859   3.216  0.00  0.00    +0.013 A 
ATOM     18  C   UNL     1      -1.460  -0.305   4.326  0.00  0.00    +0.008 A 
ATOM     19  C   UNL     1      -1.223   0.995   4.627  0.00  0.00    +0.045 A 
ATOM     20  S   UNL     1      -0.102   1.477   3.323  0.00  0.00    -0.100 S 
ENDBRANCH   1  16
BRANCH   1  22
ATOM     21  C   UNL     1      -0.053   1.582   0.001  0.00  0.00    +0.030 C 
ATOM     22  C   UNL     1      -0.012   0.053  -0.015  0.00  0.00    +0.092 C 
BRANCH  22  23
ATOM     23  N   UNL     1      -1.380  -0.473  -0.002  0.00  0.00    -0.303 N 
ATOM     24  C   UNL     1      -2.061  -0.608  -1.157  0.00  0.00    +0.300 C 
ATOM     25  O   UNL     1      -1.542  -0.294  -2.208  0.00  0.00    -0.265 OA
ATOM     26  H   UNL     1      -1.795  -0.723   0.838  0.00  0.00    +0.149 HD
BRANCH  24  27
ATOM     27  C   UNL     1      -3.455  -1.143  -1.143  0.00  0.00    +0.303 C 
ATOM     28  O   UNL     1      -3.975  -1.457  -0.092  0.00  0.00    -0.265 OA
ATOM     29  N   UNL     1      -4.137  -1.278  -2.298  0.00  0.00    -0.276 N 
ATOM     30  H   UNL     1      -3.747  -0.968  -3.131  0.00  0.00    +0.155 HD
BRANCH  29  31
ATOM     31  C   UNL     1      -5.404  -1.865  -2.297  0.00  0.00    +0.064 A 
ATOM     32  C   UNL     1      -6.266  -1.659  -1.227  0.00  0.00    +0.025 A 
ATOM     33  C   UNL     1      -7.519  -2.240  -1.229  0.00  0.00    +0.002 A 
ATOM     34  C   UNL     1      -7.916  -3.027  -2.295  0.00  0.00    +0.002 A 
ATOM     35  C   UNL     1      -7.060  -3.235  -3.362  0.00  0.00    +0.034 A 
ATOM     36  C   UNL     1      -5.808  -2.652  -3.368  0.00  0.00    +0.147 A 
BRANCH  36  37
ATOM     37  N   UNL     1      -4.896  -2.870  -4.513  0.00  0.00    +0.058 N 
ATOM     38  O   UNL     1      -5.281  -3.473  -5.487  0.00  0.00    -0.126 OA
ATOM     39  O   UNL     1      -3.764  -2.446  -4.473  0.00  0.00    -0.126 OA
ENDBRANCH  36  37
ENDBRANCH  29  31
ENDBRANCH  24  27
ENDBRANCH  22  23
ENDBRANCH   1  22
TORSDOF 9
