REMARK  Name = ZINC09642247
REMARK  8 active torsions:
REMARK  status: ('A' for Active; 'I' for Inactive)
REMARK    1  A    between atoms: C_1  and  N_62
REMARK    2  A    between atoms: C_2  and  C_3
REMARK    3  A    between atoms: C_2  and  N_62
REMARK    4  A    between atoms: C_3  and  O_4
REMARK    5  A    between atoms: C_5  and  C_6
REMARK    6  A    between atoms: C_5  and  N_62
REMARK    7  A    between atoms: C_8  and  N_23
REMARK    8  A    between atoms: C_29  and  C_31
REMARK                            x       y       z     vdW  Elec       q    Type
REMARK                         _______ _______ _______ _____ _____    ______ ____
ROOT
ATOM      1  C   UNL     1       0.128   0.181  -0.128  0.00  0.00    -0.033 A 
ATOM      2  C   UNL     1       1.215  -0.523   0.282  0.00  0.00    +0.027 A 
ATOM      3  C   UNL     1       1.291  -1.930   0.352  0.00  0.00    +0.042 A 
ATOM      4  C   UNL     1       0.190  -2.700  -0.030  0.00  0.00    +0.056 A 
ATOM      5  C   UNL     1      -0.976  -1.985  -0.473  0.00  0.00    +0.062 A 
ATOM      6  C   UNL     1      -1.075  -0.532  -0.549  0.00  0.00    +0.116 A 
ATOM      7  N   UNL     1      -2.289  -0.354  -0.997  0.00  0.00    -0.077 NA
ATOM      8  O   UNL     1      -2.892  -1.409  -1.188  0.00  0.00    -0.353 OA
ATOM      9  C   UNL     1      -2.174  -2.501  -0.896  0.00  0.00    +0.176 A 
ATOM     10  C   UNL     1      -2.283  -3.960  -0.895  0.00  0.00    +0.031 A 
ATOM     11  C   UNL     1      -3.468  -4.580  -1.306  0.00  0.00    +0.012 A 
ATOM     12  C   UNL     1      -3.565  -5.952  -1.306  0.00  0.00    +0.001 A 
ATOM     13  C   UNL     1      -2.491  -6.733  -0.898  0.00  0.00    +0.001 A 
ATOM     14  C   UNL     1      -1.316  -6.148  -0.488  0.00  0.00    +0.012 A 
ATOM     15  C   UNL     1      -1.189  -4.754  -0.477  0.00  0.00    +0.033 A 
ATOM     16  C   UNL     1       0.091  -4.158  -0.027  0.00  0.00    +0.196 C 
ATOM     17  O   UNL     1       1.025  -4.856   0.331  0.00  0.00    -0.287 OA
ENDROOT
BRANCH   3  18
ATOM     18  N   UNL     1       2.446  -2.542   0.789  0.00  0.00    -0.326 N 
ATOM     19  C   UNL     1       2.716  -2.212   2.195  0.00  0.00    +0.124 C 
ATOM     20  C   UNL     1       3.898  -3.049   2.694  0.00  0.00    +0.127 C 
ATOM     21  N   UNL     1       5.032  -2.847   1.780  0.00  0.00    -0.292 N 
ATOM     22  C   UNL     1       4.803  -3.026   0.338  0.00  0.00    +0.127 C 
ATOM     23  C   UNL     1       3.585  -2.190  -0.069  0.00  0.00    +0.124 C 
ATOM     24  C   UNL     1       6.249  -2.509   2.250  0.00  0.00    +0.282 C 
ATOM     25  O   UNL     1       7.192  -2.414   1.486  0.00  0.00    -0.267 OA
BRANCH  24  26
ATOM     26  C   UNL     1       6.437  -2.255   3.682  0.00  0.00    +0.189 A 
ATOM     27  C   UNL     1       7.574  -1.780   4.271  0.00  0.00    +0.054 A 
ATOM     28  C   UNL     1       7.310  -1.691   5.646  0.00  0.00    +0.042 A 
ATOM     29  C   UNL     1       6.039  -2.110   5.835  0.00  0.00    +0.196 A 
ATOM     30  O   UNL     1       5.514  -2.444   4.648  0.00  0.00    -0.458 OA
ENDBRANCH  24  26
ENDBRANCH   3  18
BRANCH   1  31
ATOM     31  C   UNL     1       0.166   1.687  -0.155  0.00  0.00    -0.041 C 
BRANCH  31  33
ATOM     32  C   UNL     1      -1.950   1.901   1.002  0.00  0.00    -0.096 C 
ATOM     33  N   UNL     1      -0.504   2.203   1.057  0.00  0.00    +0.382 N 
ATOM     34  H   UNL     1      -0.099   1.745   1.882  0.00  0.00    -0.082 HD
BRANCH  33  35
ATOM     35  C   UNL     1      -0.296   3.662   1.168  0.00  0.00    -0.051 C 
BRANCH  35  36
ATOM     36  C   UNL     1      -0.802   4.130   2.533  0.00  0.00    +0.137 C 
BRANCH  36  37
ATOM     37  O   UNL     1      -0.015   3.532   3.564  0.00  0.00    -0.397 OA
ATOM     38  H   UNL     1      -0.280   3.785   4.459  0.00  0.00    +0.209 HD
ENDBRANCH  36  37
ENDBRANCH  35  36
ENDBRANCH  33  35
ENDBRANCH  31  33
ENDBRANCH   1  31
TORSDOF 7
