REMARK  Name = ZINC39228537
REMARK  4 active torsions:
REMARK  status: ('A' for Active; 'I' for Inactive)
REMARK    1  A    between atoms: C_8  and  C_27
REMARK    2  A    between atoms: N_10  and  C_16
REMARK    3  A    between atoms: C_16  and  C_17
REMARK    4  A    between atoms: N_19  and  C_20
REMARK                            x       y       z     vdW  Elec       q    Type
REMARK                         _______ _______ _______ _____ _____    ______ ____
ROOT
ATOM      1  C   UNL     1      -0.070   1.929  -1.073  0.00  0.00    +0.001 A 
ATOM      2  C   UNL     1       0.040   0.547  -1.014  0.00  0.00    +0.002 A 
ATOM      3  C   UNL     1      -1.076  -0.239  -0.827  0.00  0.00    +0.026 A 
ATOM      4  C   UNL     1      -2.326   0.355  -0.695  0.00  0.00    +0.047 A 
ATOM      5  N   UNL     1      -3.596  -0.146  -0.504  0.00  0.00    -0.359 N 
ATOM      6  C   UNL     1      -4.495   0.878  -0.441  0.00  0.00    +0.011 A 
ATOM      7  H   UNL     1      -3.818  -1.087  -0.426  0.00  0.00    +0.166 HD
ATOM      8  C   UNL     1      -5.989   0.783  -0.237  0.00  0.00    +0.015 C 
ATOM      9  N   UNL     1      -6.488   2.099   0.190  0.00  0.00    +0.394 N 
ATOM     10  C   UNL     1      -6.049   3.139  -0.750  0.00  0.00    -0.072 C 
ATOM     11  C   UNL     1      -4.545   3.392  -0.569  0.00  0.00    +0.019 C 
ATOM     12  C   UNL     1      -3.850   2.054  -0.587  0.00  0.00    -0.022 A 
ATOM     13  C   UNL     1      -2.434   1.759  -0.755  0.00  0.00    +0.003 A 
ATOM     14  C   UNL     1      -1.288   2.535  -0.940  0.00  0.00    +0.010 A 
ATOM     15  H   UNL     1      -6.133   2.309   1.110  0.00  0.00    -0.080 HD
ENDROOT
BRANCH   8  16
ATOM     16  C   UNL     1      -6.291  -0.245   0.823  0.00  0.00    -0.008 A 
ATOM     17  C   UNL     1      -6.580   0.158   2.114  0.00  0.00    +0.026 A 
ATOM     18  C   UNL     1      -6.858  -0.783   3.089  0.00  0.00    +0.045 A 
ATOM     19  C   UNL     1      -6.849  -2.131   2.776  0.00  0.00    +0.069 A 
ATOM     20  C   UNL     1      -6.561  -2.540   1.484  0.00  0.00    +0.168 A 
ATOM     21  C   UNL     1      -6.286  -1.592   0.502  0.00  0.00    +0.168 A 
ATOM     22  O   UNL     1      -6.043  -2.241  -0.675  0.00  0.00    -0.452 OA
ATOM     23  C   UNL     1      -5.776  -3.609  -0.311  0.00  0.00    +0.466 C 
ATOM     24  O   UNL     1      -6.487  -3.783   0.925  0.00  0.00    -0.453 OA
ATOM     25 CL   UNL     1      -7.219  -0.271   4.708  0.00  0.00    -0.083 Cl
ENDBRANCH   8  16
BRANCH   9  26
ATOM     26  C   UNL     1      -7.956   2.073   0.233  0.00  0.00    +0.020 C 
BRANCH  26  27
ATOM     27  C   UNL     1      -8.466   3.378   0.787  0.00  0.00    +0.201 C 
ATOM     28  O   UNL     1      -7.684   4.246   1.113  0.00  0.00    -0.278 OA
ATOM     29  N   UNL     1      -9.792   3.582   0.919  0.00  0.00    -0.287 N 
ATOM     30  H   UNL     1     -10.420   2.921   0.589  0.00  0.00    +0.155 HD
BRANCH  29  31
ATOM     31  C   UNL     1     -10.263   4.748   1.535  0.00  0.00    +0.033 A 
ATOM     32  C   UNL     1     -11.458   5.320   1.118  0.00  0.00    +0.026 A 
ATOM     33  C   UNL     1     -11.921   6.470   1.727  0.00  0.00    +0.040 A 
ATOM     34  C   UNL     1     -11.194   7.053   2.751  0.00  0.00    +0.124 A 
ATOM     35  C   UNL     1     -10.002   6.485   3.168  0.00  0.00    +0.040 A 
ATOM     36  C   UNL     1      -9.539   5.331   2.567  0.00  0.00    +0.026 A 
ATOM     37  F   UNL     1     -11.648   8.179   3.344  0.00  0.00    -0.205 F 
ENDBRANCH  29  31
ENDBRANCH  26  27
ENDBRANCH   9  26
TORSDOF 4
