REMARK  Name = ZINC35450533
REMARK  13 active torsions:
REMARK  status: ('A' for Active; 'I' for Inactive)
REMARK    1  A    between atoms: C_1  and  C_2
REMARK    2  A    between atoms: C_2  and  C_3
REMARK    3  A    between atoms: C_3  and  C_5
REMARK    4  A    between atoms: C_3  and  S_6
REMARK    5  A    between atoms: S_6  and  C_7
REMARK    6  A    between atoms: C_14  and  C_26
REMARK    7  A    between atoms: C_20  and  C_24
REMARK    8  A    between atoms: C_20  and  C_25
REMARK    9  A    between atoms: C_28  and  O_35
REMARK   10  A    between atoms: C_29  and  O_34
REMARK   11  A    between atoms: C_30  and  O_32
REMARK   12  A    between atoms: O_32  and  C_33
REMARK   13  A    between atoms: O_35  and  C_36
REMARK                            x       y       z     vdW  Elec       q    Type
REMARK                         _______ _______ _______ _____ _____    ______ ____
ROOT
ATOM      1  C   UNL     1       0.774  -0.523  -4.074  0.00  0.00    +0.171 A 
ATOM      2  N   UNL     1       1.933  -1.102  -3.832  0.00  0.00    -0.208 NA
ATOM      3  C   UNL     1       2.730  -1.495  -4.832  0.00  0.00    +0.135 A 
ATOM      4  C   UNL     1       2.341  -1.292  -6.144  0.00  0.00    +0.069 A 
ATOM      5  C   UNL     1       1.109  -0.677  -6.395  0.00  0.00    +0.258 A 
ATOM      6  O   UNL     1       0.732  -0.484  -7.540  0.00  0.00    -0.267 OA
ATOM      7  N   UNL     1       0.342  -0.307  -5.348  0.00  0.00    -0.302 N 
ATOM      8  C   UNL     1       3.222  -1.716  -7.280  0.00  0.00    +0.093 C 
ATOM      9  C   UNL     1       4.261  -2.710  -6.827  0.00  0.00    +0.024 C 
ATOM     10  C   UNL     1       4.571  -2.852  -5.521  0.00  0.00    +0.017 C 
ATOM     11  N   UNL     1       3.939  -2.106  -4.564  0.00  0.00    -0.302 N 
ATOM     12  C   UNL     1       5.628  -3.833  -5.076  0.00  0.00    +0.058 C 
ATOM     13  C   UNL     1       5.655  -5.028  -6.031  0.00  0.00    -0.023 C 
ATOM     14  C   UNL     1       5.938  -4.512  -7.446  0.00  0.00    +0.086 C 
ATOM     15  C   UNL     1       4.897  -3.489  -7.811  0.00  0.00    +0.162 C 
ATOM     16  O   UNL     1       4.600  -3.332  -8.978  0.00  0.00    -0.292 OA
ATOM     17  C   UNL     1       4.301  -5.740  -6.004  0.00  0.00    +0.011 C 
ATOM     18  C   UNL     1       6.758  -6.001  -5.608  0.00  0.00    +0.011 C 
ATOM     19  H   UNL     1       4.345  -2.006  -3.688  0.00  0.00    +0.153 HD
ATOM     20  H   UNL     1      -0.517   0.116  -5.502  0.00  0.00    +0.171 HD
ENDROOT
BRANCH   8  21
ATOM     21  C   UNL     1       3.916  -0.503  -7.846  0.00  0.00    -0.028 A 
ATOM     22  C   UNL     1       4.747   0.254  -7.041  0.00  0.00    +0.054 A 
ATOM     23  C   UNL     1       5.387   1.370  -7.557  0.00  0.00    +0.165 A 
ATOM     24  C   UNL     1       5.192   1.728  -8.886  0.00  0.00    +0.201 A 
ATOM     25  C   UNL     1       4.356   0.964  -9.692  0.00  0.00    +0.165 A 
ATOM     26  C   UNL     1       3.724  -0.154  -9.170  0.00  0.00    +0.054 A 
BRANCH  25  27
ATOM     27  O   UNL     1       4.163   1.310 -10.993  0.00  0.00    -0.491 OA
ATOM     28  C   UNL     1       3.291   0.479 -11.762  0.00  0.00    +0.277 C 
ENDBRANCH  25  27
BRANCH  24  29
ATOM     29  O   UNL     1       5.818   2.823  -9.397  0.00  0.00    -0.501 OA
ATOM     30  H   UNL     1       6.686   2.638  -9.780  0.00  0.00    +0.292 HD
ENDBRANCH  24  29
BRANCH  23  31
ATOM     31  O   UNL     1       6.203   2.115  -6.764  0.00  0.00    -0.491 OA
ATOM     32  C   UNL     1       6.356   1.688  -5.409  0.00  0.00    +0.277 C 
ENDBRANCH  23  31
ENDBRANCH   8  21
BRANCH   1  33
ATOM     33  S   UNL     1      -0.239  -0.022  -2.723  0.00  0.00    -0.085 S 
BRANCH  33  34
ATOM     34  C   UNL     1       0.718  -0.497  -1.257  0.00  0.00    +0.051 C 
ATOM     35  C   UNL     1       0.849  -2.021  -1.205  0.00  0.00    +0.019 C 
BRANCH  34  37
ATOM     36  C   UNL     1      -0.019   1.526   0.010  0.00  0.00    +0.005 C 
ATOM     37  C   UNL     1       0.002  -0.004   0.002  0.00  0.00    +0.011 C 
ENDBRANCH  34  37
ENDBRANCH  33  34
ENDBRANCH   1  33
TORSDOF 7
