REMARK  Name = ZINC18053031
REMARK  8 active torsions:
REMARK  status: ('A' for Active; 'I' for Inactive)
REMARK    1  A    between atoms: C_1  and  C_2
REMARK    2  A    between atoms: C_2  and  C_4
REMARK    3  A    between atoms: C_2  and  O_25
REMARK    4  A    between atoms: N_6  and  N_7
REMARK    5  A    between atoms: C_8  and  C_10
REMARK    6  A    between atoms: C_10  and  C_11
REMARK    7  A    between atoms: C_11  and  N_12
REMARK    8  A    between atoms: O_25  and  C_26
REMARK                            x       y       z     vdW  Elec       q    Type
REMARK                         _______ _______ _______ _____ _____    ______ ____
ROOT
ATOM      1  N   UNL     1       7.326   5.358  -2.697  0.00  0.00    -0.234 N 
ATOM      2  C   UNL     1       6.780   4.940  -1.538  0.00  0.00    +0.231 C 
ATOM      3  O   UNL     1       7.178   5.390  -0.484  0.00  0.00    -0.274 OA
ATOM      4  H   UNL     1       7.008   4.998  -3.540  0.00  0.00    +0.173 HD
ENDROOT
BRANCH   1   7
ATOM      5  C   UNL     1       8.898   6.728  -3.845  0.00  0.00    +0.270 C 
ATOM      6  O   UNL     1       8.500   6.278  -4.899  0.00  0.00    -0.270 OA
ATOM      7  N   UNL     1       8.352   6.311  -2.686  0.00  0.00    -0.231 N 
ATOM      8  H   UNL     1       8.670   6.671  -1.843  0.00  0.00    +0.173 HD
BRANCH   5  10
ATOM      9  C   UNL     1      11.236   7.165  -3.146  0.00  0.00    +0.062 C 
ATOM     10  C   UNL     1      10.002   7.753  -3.832  0.00  0.00    +0.257 C 
BRANCH  10  11
ATOM     11  O   UNL     1      10.331   8.116  -5.175  0.00  0.00    -0.480 OA
BRANCH  11  12
ATOM     12  C   UNL     1      10.896   9.337  -5.363  0.00  0.00    +0.122 A 
ATOM     13  C   UNL     1      11.230  10.121  -4.255  0.00  0.00    +0.046 A 
ATOM     14  C   UNL     1      11.797  11.348  -4.411  0.00  0.00    +0.012 A 
ATOM     15  C   UNL     1      12.053  11.838  -5.704  0.00  0.00    -0.018 A 
ATOM     16  C   UNL     1      12.638  13.100  -5.901  0.00  0.00    +0.008 A 
ATOM     17  C   UNL     1      12.871  13.544  -7.167  0.00  0.00    +0.001 A 
ATOM     18  C   UNL     1      12.539  12.764  -8.273  0.00  0.00    +0.001 A 
ATOM     19  C   UNL     1      11.972  11.537  -8.120  0.00  0.00    +0.008 A 
ATOM     20  C   UNL     1      11.715  11.045  -6.829  0.00  0.00    -0.014 A 
ATOM     21  C   UNL     1      11.136   9.780  -6.633  0.00  0.00    +0.054 A 
ENDBRANCH  11  12
ENDBRANCH  10  11
ENDBRANCH   5  10
ENDBRANCH   1   7
BRANCH   2  22
ATOM     22  C   UNL     1       5.676   3.915  -1.551  0.00  0.00    +0.119 C 
BRANCH  22  23
ATOM     23  C   UNL     1       5.238   3.619  -0.115  0.00  0.00    +0.136 C 
BRANCH  23  24
ATOM     24  N   UNL     1       4.164   2.622  -0.127  0.00  0.00    -0.288 N 
ATOM     25  C   UNL     1       4.478   1.310  -0.067  0.00  0.00    +0.262 A 
ATOM     26  O   UNL     1       5.637   0.948  -0.002  0.00  0.00    -0.267 OA
ATOM     27  C   UNL     1       3.379   0.328  -0.081  0.00  0.00    +0.063 A 
ATOM     28  C   UNL     1       3.620  -1.043  -0.022  0.00  0.00    +0.015 A 
ATOM     29  C   UNL     1       2.557  -1.921  -0.038  0.00  0.00    +0.001 A 
ATOM     30  C   UNL     1       1.256  -1.447  -0.113  0.00  0.00    +0.002 A 
ATOM     31  C   UNL     1       1.003  -0.091  -0.173  0.00  0.00    +0.026 A 
ATOM     32  C   UNL     1       2.060   0.807  -0.158  0.00  0.00    +0.053 A 
ATOM     33  N   UNL     1       1.849   2.177  -0.215  0.00  0.00    -0.335 N 
ATOM     34  H   UNL     1       0.945   2.522  -0.268  0.00  0.00    +0.168 HD
ATOM     35  C   UNL     1       2.888   3.031  -0.199  0.00  0.00    +0.161 A 
ATOM     36  S   UNL     1       2.568   4.711  -0.273  0.00  0.00    -0.013 S 
ENDBRANCH  23  24
ENDBRANCH  22  23
ENDBRANCH   2  22
TORSDOF 7
