REMARK  Name = ZINC08793567
REMARK  7 active torsions:
REMARK  status: ('A' for Active; 'I' for Inactive)
REMARK    1  A    between atoms: C_1  and  C_2
REMARK    2  A    between atoms: C_4  and  S_7
REMARK    3  A    between atoms: S_7  and  C_8
REMARK    4  A    between atoms: C_11  and  C_20
REMARK    5  A    between atoms: N_12  and  C_13
REMARK    6  A    between atoms: C_20  and  N_21
REMARK    7  A    between atoms: C_22  and  C_24
REMARK                            x       y       z     vdW  Elec       q    Type
REMARK                         _______ _______ _______ _____ _____    ______ ____
ROOT
ATOM      1  C   UNL     1      -2.157  -0.746  -0.970  0.00  0.00    +0.202 A 
ATOM      2  N   UNL     1      -3.113  -1.544  -0.556  0.00  0.00    -0.122 NA
ATOM      3  N   UNL     1      -2.819  -2.014   0.604  0.00  0.00    -0.132 NA
ATOM      4  C   UNL     1      -1.664  -1.552   0.995  0.00  0.00    +0.156 A 
ATOM      5  N   UNL     1      -1.202  -0.723   0.009  0.00  0.00    -0.273 N 
ENDROOT
BRANCH   5   6
ATOM      6  C   UNL     1       0.002  -0.004   0.002  0.00  0.00    +0.052 A 
ATOM      7  C   UNL     1      -0.017   1.384   0.010  0.00  0.00    +0.026 A 
ATOM      8  C   UNL     1       1.170   2.090   0.002  0.00  0.00    +0.003 A 
ATOM      9  C   UNL     1       2.377   1.416  -0.013  0.00  0.00    +0.020 A 
ATOM     10  C   UNL     1       2.400   0.033  -0.021  0.00  0.00    +0.043 A 
ATOM     11  C   UNL     1       1.214  -0.679  -0.013  0.00  0.00    +0.046 A 
ATOM     12 CL   UNL     1       3.917  -0.810  -0.039  0.00  0.00    -0.083 Cl
ENDBRANCH   5   6
BRANCH   1  13
ATOM     13  S   UNL     1      -2.112   0.130  -2.498  0.00  0.00    -0.027 S 
BRANCH  13  17
ATOM     14  C   UNL     1      -6.351  -0.638  -5.653  0.00  0.00    +0.089 C 
ATOM     15  C   UNL     1      -5.357  -0.676  -4.520  0.00  0.00    +0.135 A 
ATOM     16  C   UNL     1      -4.181  -0.013  -4.455  0.00  0.00    +0.082 A 
ATOM     17  C   UNL     1      -3.643  -0.393  -3.196  0.00  0.00    +0.147 A 
ATOM     18  N   UNL     1      -4.511  -1.213  -2.661  0.00  0.00    -0.071 NA
ATOM     19  O   UNL     1      -5.468  -1.375  -3.381  0.00  0.00    -0.359 OA
ENDBRANCH  13  17
ENDBRANCH   1  13
BRANCH   4  20
ATOM     20  C   UNL     1      -0.969  -1.871   2.294  0.00  0.00    +0.181 C 
BRANCH  20  21
ATOM     21  N   UNL     1      -1.378  -0.905   3.316  0.00  0.00    -0.308 N 
ATOM     22  C   UNL     1      -0.879  -0.994   4.566  0.00  0.00    +0.220 C 
ATOM     23  O   UNL     1      -0.092  -1.874   4.843  0.00  0.00    -0.275 OA
ATOM     24  H   UNL     1      -2.007  -0.201   3.095  0.00  0.00    +0.149 HD
BRANCH  22  25
ATOM     25  C   UNL     1      -1.300  -0.000   5.617  0.00  0.00    +0.048 C 
ATOM     26  C   UNL     1      -0.919   1.411   5.167  0.00  0.00    +0.019 C 
ATOM     27  C   UNL     1      -1.346   2.420   6.235  0.00  0.00    -0.009 C 
ATOM     28  C   UNL     1      -0.640   2.097   7.553  0.00  0.00    +0.007 C 
ATOM     29  C   UNL     1      -1.021   0.685   8.004  0.00  0.00    -0.009 C 
ATOM     30  C   UNL     1      -0.594  -0.323   6.936  0.00  0.00    +0.019 C 
ATOM     31  C   UNL     1      -2.536   0.606   8.204  0.00  0.00    +0.007 C 
ATOM     32  C   UNL     1      -3.242   0.929   6.885  0.00  0.00    -0.009 C 
ATOM     33  C   UNL     1      -2.861   2.341   6.435  0.00  0.00    +0.007 C 
ATOM     34  C   UNL     1      -2.815  -0.080   5.817  0.00  0.00    +0.019 C 
ENDBRANCH  22  25
ENDBRANCH  20  21
ENDBRANCH   4  20
TORSDOF 6
