REMARK  Name = ZINC02954974
REMARK  9 active torsions:
REMARK  status: ('A' for Active; 'I' for Inactive)
REMARK    1  A    between atoms: C_1  and  O_2
REMARK    2  A    between atoms: O_2  and  C_3
REMARK    3  A    between atoms: C_6  and  C_20
REMARK    4  A    between atoms: C_8  and  C_9
REMARK    5  A    between atoms: C_9  and  O_10
REMARK    6  A    between atoms: O_10  and  C_11
REMARK    7  A    between atoms: C_14  and  N_17
REMARK    8  A    between atoms: N_31  and  C_32
REMARK    9  A    between atoms: C_32  and  C_33
REMARK                            x       y       z     vdW  Elec       q    Type
REMARK                         _______ _______ _______ _____ _____    ______ ____
ROOT
ATOM      1  C   UNL     1      -1.275  -0.527  -0.000  0.00  0.00    +0.126 A 
ATOM      2  C   UNL     1      -2.442   0.168   0.284  0.00  0.00    +0.046 A 
ATOM      3  C   UNL     1      -3.654  -0.494   0.297  0.00  0.00    +0.010 A 
ATOM      4  C   UNL     1      -3.705  -1.849   0.026  0.00  0.00    -0.009 A 
ATOM      5  C   UNL     1      -2.544  -2.545  -0.257  0.00  0.00    +0.017 A 
ATOM      6  C   UNL     1      -1.330  -1.885  -0.277  0.00  0.00    +0.032 A 
ENDROOT
BRANCH   4   7
ATOM      7  C   UNL     1      -5.029  -2.569   0.040  0.00  0.00    +0.193 C 
ATOM      8  N   UNL     1      -5.856  -2.089  -1.073  0.00  0.00    -0.321 N 
ATOM      9  C   UNL     1      -6.463  -0.843  -0.960  0.00  0.00    +0.041 A 
ATOM     10  C   UNL     1      -6.726  -0.053  -2.066  0.00  0.00    +0.024 A 
ATOM     11  C   UNL     1      -7.329   1.179  -1.897  0.00  0.00    +0.002 A 
ATOM     12  C   UNL     1      -7.671   1.629  -0.631  0.00  0.00    +0.001 A 
ATOM     13  C   UNL     1      -7.416   0.853   0.481  0.00  0.00    +0.015 A 
ATOM     14  C   UNL     1      -6.811  -0.391   0.325  0.00  0.00    +0.058 A 
ATOM     15  C   UNL     1      -6.524  -1.264   1.478  0.00  0.00    +0.250 C 
ATOM     16  O   UNL     1      -7.022  -1.034   2.563  0.00  0.00    -0.270 OA
ATOM     17  N   UNL     1      -5.703  -2.318   1.314  0.00  0.00    -0.268 N 
ATOM     18  H   UNL     1      -5.975  -2.628  -1.871  0.00  0.00    +0.148 HD
BRANCH  17  19
ATOM     19  C   UNL     1      -5.481  -3.231   2.438  0.00  0.00    +0.184 C 
BRANCH  19  20
ATOM     20  C   UNL     1      -4.393  -2.683   3.323  0.00  0.00    +0.122 A 
ATOM     21  C   UNL     1      -4.576  -1.911   4.409  0.00  0.00    +0.046 A 
ATOM     22  C   UNL     1      -3.294  -1.628   4.933  0.00  0.00    +0.041 A 
ATOM     23  C   UNL     1      -2.403  -2.245   4.136  0.00  0.00    +0.195 A 
ATOM     24  O   UNL     1      -3.074  -2.886   3.166  0.00  0.00    -0.466 OA
ENDBRANCH  19  20
ENDBRANCH  17  19
ENDBRANCH   4   7
BRANCH   1  26
ATOM     25  C   UNL     1      -0.100   1.520   0.280  0.00  0.00    +0.277 C 
ATOM     26  O   UNL     1      -0.081   0.122  -0.014  0.00  0.00    -0.495 OA
ENDBRANCH   1  26
BRANCH   6  27
ATOM     27  C   UNL     1      -0.066  -2.643  -0.592  0.00  0.00    +0.268 C 
BRANCH  27  28
ATOM     28  O   UNL     1      -0.381  -4.015  -0.839  0.00  0.00    -0.487 OA
BRANCH  28  29
ATOM     29  C   UNL     1       0.654  -4.841  -1.140  0.00  0.00    +0.121 A 
ATOM     30  C   UNL     1       1.948  -4.344  -1.191  0.00  0.00    +0.048 A 
ATOM     31  C   UNL     1       3.000  -5.186  -1.496  0.00  0.00    +0.036 A 
ATOM     32  C   UNL     1       2.763  -6.524  -1.752  0.00  0.00    +0.126 A 
ATOM     33  C   UNL     1       1.474  -7.023  -1.702  0.00  0.00    +0.036 A 
ATOM     34  C   UNL     1       0.420  -6.186  -1.391  0.00  0.00    +0.048 A 
BRANCH  32  35
ATOM     35  N   UNL     1       3.891  -7.425  -2.079  0.00  0.00    +0.056 N 
ATOM     36  O   UNL     1       5.018  -6.990  -2.123  0.00  0.00    -0.126 OA
ATOM     37  O   UNL     1       3.685  -8.595  -2.302  0.00  0.00    -0.126 OA
ENDBRANCH  32  35
ENDBRANCH  28  29
ENDBRANCH  27  28
ENDBRANCH   6  27
TORSDOF 8
