REMARK  Name = ZINC08643542
REMARK  10 active torsions:
REMARK  status: ('A' for Active; 'I' for Inactive)
REMARK    1  A    between atoms: C_1  and  C_2
REMARK    2  A    between atoms: C_5  and  C_8
REMARK    3  A    between atoms: C_8  and  C_32
REMARK    4  A    between atoms: N_11  and  C_15
REMARK    5  A    between atoms: C_15  and  C_16
REMARK    6  A    between atoms: C_16  and  C_18
REMARK    7  A    between atoms: C_20  and  C_31
REMARK    8  A    between atoms: N_21  and  C_24
REMARK    9  A    between atoms: C_22  and  C_23
REMARK   10  A    between atoms: C_27  and  C_30
REMARK                            x       y       z     vdW  Elec       q    Type
REMARK                         _______ _______ _______ _____ _____    ______ ____
ROOT
ATOM      1  C   UNL     1       6.661  -0.797  -0.941  0.00  0.00    +0.197 C 
ENDROOT
BRANCH   1   5
ATOM      2  C   UNL     1       9.094  -1.520  -3.652  0.00  0.00    +0.135 C 
ATOM      3  C   UNL     1       7.816  -1.815  -2.893  0.00  0.00    +0.251 C 
ATOM      4  O   UNL     1       7.020  -2.702  -3.115  0.00  0.00    -0.272 OA
ATOM      5  N   UNL     1       7.747  -0.886  -1.919  0.00  0.00    -0.216 N 
ATOM      6  C   UNL     1       8.798  -0.057  -1.953  0.00  0.00    +0.310 C 
ATOM      7  O   UNL     1       8.960   0.860  -1.172  0.00  0.00    -0.252 OA
ATOM      8  N   UNL     1       9.654  -0.353  -2.948  0.00  0.00    -0.281 N 
ATOM      9  C   UNL     1      10.054  -2.708  -3.571  0.00  0.00    +0.047 C 
ATOM     10  H   UNL     1      10.478   0.112  -3.160  0.00  0.00    +0.152 HD
BRANCH   2  15
ATOM     11  C   UNL     1       7.948  -0.211  -9.163  0.00  0.00    +0.044 C 
ATOM     12  C   UNL     1       8.247  -0.552  -7.726  0.00  0.00    -0.050 A 
ATOM     13  C   UNL     1       9.298   0.064  -7.073  0.00  0.00    +0.004 A 
ATOM     14  C   UNL     1       9.572  -0.249  -5.755  0.00  0.00    +0.006 A 
ATOM     15  C   UNL     1       8.795  -1.178  -5.089  0.00  0.00    -0.015 A 
ATOM     16  C   UNL     1       7.747  -1.798  -5.743  0.00  0.00    +0.006 A 
ATOM     17  C   UNL     1       7.470  -1.482  -7.060  0.00  0.00    +0.004 A 
ENDBRANCH   2  15
ENDBRANCH   1   5
BRANCH   1  18
ATOM     18  C   UNL     1       5.575   0.101  -1.476  0.00  0.00    +0.183 C 
ATOM     19  O   UNL     1       5.697   0.616  -2.568  0.00  0.00    -0.290 OA
BRANCH  18  20
ATOM     20  C   UNL     1       4.373   0.351  -0.678  0.00  0.00    +0.040 A 
ATOM     21  C   UNL     1       4.066  -0.188   0.653  0.00  0.00    +0.034 A 
ATOM     22  C   UNL     1       2.867   0.311   0.998  0.00  0.00    +0.022 A 
ATOM     23  N   UNL     1       2.404   1.105  -0.014  0.00  0.00    -0.317 N 
ATOM     24  C   UNL     1       3.294   1.144  -1.024  0.00  0.00    +0.031 A 
ATOM     25  C   UNL     1       3.141   1.917  -2.309  0.00  0.00    +0.064 C 
ATOM     26  C   UNL     1       2.146   0.035   2.292  0.00  0.00    +0.064 C 
BRANCH  23  27
ATOM     27  C   UNL     1       1.180   1.787   0.000  0.00  0.00    +0.047 A 
ATOM     28  C   UNL     1      -0.013   1.076   0.008  0.00  0.00    +0.026 A 
ATOM     29  C   UNL     1      -1.218   1.751   0.017  0.00  0.00    +0.005 A 
ATOM     30  C   UNL     1      -1.237   3.133   0.030  0.00  0.00    -0.050 A 
ATOM     31  C   UNL     1      -0.051   3.845   0.022  0.00  0.00    +0.005 A 
ATOM     32  C   UNL     1       1.157   3.175   0.008  0.00  0.00    +0.026 A 
ATOM     33  C   UNL     1      -2.554   3.867   0.045  0.00  0.00    +0.044 C 
ENDBRANCH  23  27
ENDBRANCH  18  20
ENDBRANCH   1  18
TORSDOF 5
