REMARK  Name = ZINC08893931
REMARK  8 active torsions:
REMARK  status: ('A' for Active; 'I' for Inactive)
REMARK    1  A    between atoms: C_1  and  C_2
REMARK    2  A    between atoms: C_2  and  N_3
REMARK    3  A    between atoms: C_7  and  S_30
REMARK    4  A    between atoms: C_11  and  S_12
REMARK    5  A    between atoms: S_12  and  C_13
REMARK    6  A    between atoms: C_13  and  C_14
REMARK    7  A    between atoms: C_27  and  C_29
REMARK    8  A    between atoms: S_30  and  N_33
REMARK                            x       y       z     vdW  Elec       q    Type
REMARK                         _______ _______ _______ _____ _____    ______ ____
ROOT
ATOM      1  S   UNL     1      -1.696  -0.631   0.015  0.00  0.00    -0.078 S 
ENDROOT
BRANCH   1  10
ATOM      2  N   UNL     1      -2.343  -3.336   0.012  0.00  0.00    -0.319 N 
ATOM      3  C   UNL     1      -1.691  -4.558  -0.007  0.00  0.00    +0.070 A 
ATOM      4  C   UNL     1      -2.120  -5.877  -0.010  0.00  0.00    +0.030 A 
ATOM      5  C   UNL     1      -1.194  -6.900  -0.024  0.00  0.00    +0.030 A 
ATOM      6  C   UNL     1       0.164  -6.619  -0.035  0.00  0.00    +0.107 A 
ATOM      7  C   UNL     1       0.608  -5.316  -0.032  0.00  0.00    +0.058 A 
ATOM      8  C   UNL     1      -0.317  -4.268  -0.018  0.00  0.00    +0.092 A 
ATOM      9  N   UNL     1      -0.193  -2.915  -0.011  0.00  0.00    -0.222 NA
ATOM     10  C   UNL     1      -1.383  -2.364   0.003  0.00  0.00    +0.170 A 
BRANCH   6  11
ATOM     11  S   UNL     1       1.330  -7.940  -0.053  0.00  0.00    +0.056 S 
ATOM     12  O   UNL     1       0.660  -9.065  -0.604  0.00  0.00    -0.153 OA
ATOM     13  O   UNL     1       2.527  -7.417  -0.612  0.00  0.00    -0.153 OA
BRANCH  11  14
ATOM     14  N   UNL     1       1.668  -8.315   1.524  0.00  0.00    -0.204 NA
ATOM     15  H   UNL     1       1.911  -9.223   1.765  0.00  0.00    +0.144 HD
ATOM     16  H   UNL     1       1.624  -7.628   2.207  0.00  0.00    +0.144 HD
ENDBRANCH  11  14
ENDBRANCH   6  11
BRANCH   2  18
ATOM     17  C   UNL     1      -4.318  -3.045  -1.400  0.00  0.00    +0.027 C 
ATOM     18  C   UNL     1      -3.793  -3.125   0.034  0.00  0.00    +0.121 C 
ENDBRANCH   2  18
ENDBRANCH   1  10
BRANCH   1  19
ATOM     19  C   UNL     1       0.002  -0.004   0.002  0.00  0.00    +0.173 C 
BRANCH  19  20
ATOM     20  C   UNL     1      -0.018   1.503   0.010  0.00  0.00    +0.230 C 
ATOM     21  O   UNL     1      -1.077   2.095   0.018  0.00  0.00    -0.274 OA
ATOM     22  N   UNL     1       1.139   2.192   0.003  0.00  0.00    -0.266 N 
ATOM     23  C   UNL     1       2.370   1.523  -0.007  0.00  0.00    +0.058 A 
ATOM     24  C   UNL     1       2.829   0.873   1.128  0.00  0.00    +0.025 A 
ATOM     25  C   UNL     1       4.060   0.244   1.111  0.00  0.00    +0.002 A 
ATOM     26  C   UNL     1       4.836   0.262  -0.033  0.00  0.00    +0.002 A 
ATOM     27  C   UNL     1       4.377   0.902  -1.187  0.00  0.00    +0.025 A 
ATOM     28  C   UNL     1       3.140   1.523  -1.176  0.00  0.00    +0.055 A 
ATOM     29  N   UNL     1       2.639   2.151  -2.322  0.00  0.00    -0.284 N 
ATOM     30  C   UNL     1       2.134   3.403  -2.255  0.00  0.00    +0.219 C 
ATOM     31  O   UNL     1       1.633   3.904  -3.240  0.00  0.00    -0.275 OA
ATOM     32  C   UNL     1       2.189   4.182  -0.968  0.00  0.00    +0.118 C 
ATOM     33  C   UNL     1       1.137   3.656   0.011  0.00  0.00    +0.087 C 
ATOM     34  C   UNL     1       1.457   4.157   1.420  0.00  0.00    +0.029 C 
ATOM     35  H   UNL     1       2.653   1.683  -3.172  0.00  0.00    +0.155 HD
ENDBRANCH  19  20
ENDBRANCH   1  19
TORSDOF 6
