REMARK  Name = ZINC36637318
REMARK  16 active torsions:
REMARK  status: ('A' for Active; 'I' for Inactive)
REMARK    1  A    between atoms: C_1  and  C_2
REMARK    2  A    between atoms: C_2  and  C_3
REMARK    3  A    between atoms: C_2  and  C_4
REMARK    4  A    between atoms: C_4  and  N_5
REMARK    5  A    between atoms: N_5  and  C_6
REMARK    6  A    between atoms: N_5  and  S_10
REMARK    7  A    between atoms: C_6  and  C_7
REMARK    8  A    between atoms: C_7  and  C_8
REMARK    9  A    between atoms: C_7  and  C_9
REMARK   10  A    between atoms: S_10  and  C_13
REMARK   11  A    between atoms: C_16  and  C_19
REMARK   12  A    between atoms: N_21  and  C_22
REMARK   13  A    between atoms: C_22  and  C_23
REMARK   14  A    between atoms: C_23  and  N_24
REMARK   15  A    between atoms: N_24  and  C_25
REMARK   16  A    between atoms: N_24  and  C_26
REMARK                            x       y       z     vdW  Elec       q    Type
REMARK                         _______ _______ _______ _____ _____    ______ ____
ROOT
ATOM      1  C   UNL     1       2.147   5.306   2.400  0.00  0.00    +0.252 C 
ATOM      2  O   UNL     1       1.298   6.172   2.325  0.00  0.00    -0.270 OA
ATOM      3  N   UNL     1       3.055   5.338   3.395  0.00  0.00    -0.248 N 
ATOM      4  C   UNL     1       2.941   6.276   4.407  0.00  0.00    +0.168 A 
ATOM      5  N   UNL     1       3.720   6.465   5.446  0.00  0.00    -0.224 NA
ATOM      6  C   UNL     1       3.486   7.428   6.364  0.00  0.00    +0.080 A 
ATOM      7  C   UNL     1       4.241   7.735   7.520  0.00  0.00    +0.032 A 
ATOM      8  C   UNL     1       3.862   8.753   8.354  0.00  0.00    +0.040 A 
ATOM      9  C   UNL     1       2.731   9.518   8.099  0.00  0.00    +0.125 A 
ATOM     10  C   UNL     1       1.969   9.245   6.976  0.00  0.00    +0.055 A 
ATOM     11  C   UNL     1       2.342   8.226   6.135  0.00  0.00    +0.043 A 
ATOM     12  S   UNL     1       1.700   7.543   4.627  0.00  0.00    -0.052 S 
ATOM     13  F   UNL     1       2.378  10.516   8.938  0.00  0.00    -0.205 F 
ENDROOT
BRANCH   1  17
ATOM     14  C   UNL     1       2.254   2.182  -0.475  0.00  0.00    +0.106 A 
ATOM     15  C   UNL     1       1.037   2.685  -0.050  0.00  0.00    +0.029 A 
ATOM     16  C   UNL     1       0.995   3.700   0.884  0.00  0.00    +0.015 A 
ATOM     17  C   UNL     1       2.184   4.219   1.400  0.00  0.00    +0.037 A 
ATOM     18  C   UNL     1       3.408   3.707   0.966  0.00  0.00    +0.015 A 
ATOM     19  C   UNL     1       3.436   2.688   0.035  0.00  0.00    +0.029 A 
BRANCH  14  20
ATOM     20  S   UNL     1       2.298   0.885  -1.668  0.00  0.00    +0.061 S 
ATOM     21  O   UNL     1       3.568   0.959  -2.301  0.00  0.00    -0.153 OA
ATOM     22  O   UNL     1       1.079   0.960  -2.394  0.00  0.00    -0.153 OA
BRANCH  20  23
ATOM     23  N   UNL     1       2.267  -0.546  -0.836  0.00  0.00    -0.176 NA
BRANCH  23  24
ATOM     24  C   UNL     1       0.990  -1.102  -0.382  0.00  0.00    +0.112 C 
BRANCH  24  26
ATOM     25  C   UNL     1       0.970   0.296   1.689  0.00  0.00    +0.008 C 
ATOM     26  C   UNL     1       0.963  -1.135   1.148  0.00  0.00    -0.001 C 
ATOM     27  C   UNL     1      -0.303  -1.852   1.620  0.00  0.00    +0.008 C 
ENDBRANCH  24  26
ENDBRANCH  23  24
BRANCH  23  28
ATOM     28  C   UNL     1       3.516  -1.257  -0.554  0.00  0.00    +0.112 C 
BRANCH  28  29
ATOM     29  C   UNL     1       3.758  -2.312  -1.636  0.00  0.00    -0.001 C 
ATOM     30  C   UNL     1       3.981  -1.620  -2.982  0.00  0.00    +0.008 C 
ATOM     31  C   UNL     1       4.995  -3.137  -1.276  0.00  0.00    +0.008 C 
ENDBRANCH  28  29
ENDBRANCH  23  28
ENDBRANCH  20  23
ENDBRANCH  14  20
ENDBRANCH   1  17
BRANCH   3  32
ATOM     32  C   UNL     1       4.163   4.379   3.406  0.00  0.00    +0.097 C 
BRANCH  32  33
ATOM     33  C   UNL     1       5.417   5.042   2.833  0.00  0.00    -0.060 C 
BRANCH  33  34
ATOM     34  N   UNL     1       6.484   4.041   2.703  0.00  0.00    +0.377 N 
ATOM     35  C   UNL     1       7.647   4.648   2.042  0.00  0.00    -0.097 C 
ATOM     36  C   UNL     1       6.873   3.563   4.036  0.00  0.00    -0.097 C 
ATOM     37  H   UNL     1       6.151   3.264   2.151  0.00  0.00    -0.083 HD
ENDBRANCH  33  34
ENDBRANCH  32  33
ENDBRANCH   3  32
TORSDOF 10
