REMARK  Name = ZINC02066360
REMARK  12 active torsions:
REMARK  status: ('A' for Active; 'I' for Inactive)
REMARK    1  A    between atoms: C_1  and  C_2
REMARK    2  A    between atoms: C_2  and  C_3
REMARK    3  A    between atoms: C_3  and  C_4
REMARK    4  A    between atoms: C_4  and  O_5
REMARK    5  A    between atoms: O_5  and  C_6
REMARK    6  A    between atoms: C_6  and  C_8
REMARK    7  A    between atoms: C_9  and  C_31
REMARK    8  A    between atoms: C_13  and  C_15
REMARK    9  A    between atoms: C_18  and  O_22
REMARK   10  A    between atoms: O_22  and  C_23
REMARK   11  A    between atoms: C_27  and  C_29
REMARK   12  A    between atoms: C_27  and  C_30
REMARK                            x       y       z     vdW  Elec       q    Type
REMARK                         _______ _______ _______ _____ _____    ______ ____
ROOT
ATOM      1  C   UNL     1      -0.207   4.164  -0.592  0.00  0.00    +0.065 C 
ATOM      2  C   UNL     1      -1.332   3.478  -0.330  0.00  0.00    +0.016 C 
ATOM      3  N   UNL     1      -1.272   2.249   0.264  0.00  0.00    -0.321 N 
ATOM      4  C   UNL     1      -0.112   1.522   0.246  0.00  0.00    +0.016 C 
ATOM      5  C   UNL     1       1.072   2.126   0.006  0.00  0.00    +0.024 C 
ATOM      6  C   UNL     1       1.143   3.612  -0.237  0.00  0.00    +0.092 C 
ATOM      7  C   UNL     1       2.269   1.390  -0.020  0.00  0.00    +0.162 C 
ATOM      8  O   UNL     1       3.315   1.960  -0.259  0.00  0.00    -0.292 OA
ATOM      9  C   UNL     1       2.279  -0.092   0.241  0.00  0.00    +0.086 C 
ATOM     10  C   UNL     1       1.103  -0.444   1.158  0.00  0.00    -0.023 C 
ATOM     11  C   UNL     1      -0.190   0.036   0.494  0.00  0.00    +0.058 C 
ATOM     12  C   UNL     1       1.277   0.255   2.508  0.00  0.00    +0.011 C 
ATOM     13  C   UNL     1       1.043  -1.958   1.366  0.00  0.00    +0.011 C 
ATOM     14  C   UNL     1      -2.671   4.068  -0.694  0.00  0.00    +0.061 C 
ATOM     15  H   UNL     1      -2.160   1.835   0.763  0.00  0.00    +0.152 HD
ENDROOT
BRANCH   6  16
ATOM     16  C   UNL     1       1.643   4.294   1.010  0.00  0.00    -0.034 A 
ATOM     17  C   UNL     1       2.809   5.036   0.971  0.00  0.00    +0.008 A 
ATOM     18  C   UNL     1       3.269   5.663   2.112  0.00  0.00    +0.047 A 
ATOM     19  C   UNL     1       2.561   5.548   3.299  0.00  0.00    +0.134 A 
ATOM     20  C   UNL     1       1.391   4.803   3.337  0.00  0.00    +0.060 A 
ATOM     21  C   UNL     1       0.931   4.182   2.190  0.00  0.00    +0.023 A 
ATOM     22 BR   UNL     1       0.422   4.644   4.953  0.00  0.00    -0.047 Br
BRANCH  19  23
ATOM     23  O   UNL     1       3.012   6.165   4.424  0.00  0.00    -0.494 OA
ATOM     24  C   UNL     1       4.223   6.915   4.311  0.00  0.00    +0.277 C 
ENDBRANCH  19  23
ENDBRANCH   6  16
BRANCH   1  25
ATOM     25  C   UNL     1      -0.296   5.431  -1.216  0.00  0.00    +0.338 C 
ATOM     26  O   UNL     1      -1.370   5.836  -1.620  0.00  0.00    -0.245 OA
BRANCH  25  27
ATOM     27  O   UNL     1       0.810   6.190  -1.363  0.00  0.00    -0.461 OA
BRANCH  27  28
ATOM     28  C   UNL     1       0.647   7.457  -2.002  0.00  0.00    +0.232 C 
BRANCH  28  29
ATOM     29  C   UNL     1       2.000   8.168  -2.078  0.00  0.00    +0.041 C 
BRANCH  29  31
ATOM     30  C   UNL     1       3.178  10.236  -2.838  0.00  0.00    +0.004 C 
ATOM     31  C   UNL     1       1.825   9.525  -2.762  0.00  0.00    -0.000 C 
ENDBRANCH  29  31
ENDBRANCH  28  29
ENDBRANCH  27  28
ENDBRANCH  25  27
ENDBRANCH   1  25
TORSDOF 7
