REMARK  Name = ZINC36764998
REMARK  6 active torsions:
REMARK  status: ('A' for Active; 'I' for Inactive)
REMARK    1  A    between atoms: C_1  and  C_2
REMARK    2  A    between atoms: C_5  and  C_9
REMARK    3  A    between atoms: C_6  and  C_8
REMARK    4  A    between atoms: C_9  and  C_11
REMARK    5  A    between atoms: C_9  and  N_20
REMARK    6  A    between atoms: C_13  and  C_16
REMARK                            x       y       z     vdW  Elec       q    Type
REMARK                         _______ _______ _______ _____ _____    ______ ____
ROOT
ATOM      1  C   UNL     1       0.059  -4.275  -0.021  0.00  0.00    +0.029 C 
ENDROOT
BRANCH   1   6
ATOM      2  C   UNL     1      -0.018   1.503   0.010  0.00  0.00    +0.044 C 
ATOM      3  C   UNL     1       0.002  -0.004   0.002  0.00  0.00    -0.050 A 
ATOM      4  C   UNL     1       0.006  -0.689  -1.199  0.00  0.00    +0.003 A 
ATOM      5  C   UNL     1       0.025  -2.071  -1.207  0.00  0.00    +0.003 A 
ATOM      6  C   UNL     1       0.040  -2.768  -0.013  0.00  0.00    -0.052 A 
ATOM      7  C   UNL     1       0.037  -2.084   1.188  0.00  0.00    -0.048 A 
ATOM      8  C   UNL     1       0.023  -0.702   1.195  0.00  0.00    +0.007 A 
ATOM      9  C   UNL     1       0.054  -2.845   2.489  0.00  0.00    +0.044 C 
ENDBRANCH   1   6
BRANCH   1  10
ATOM     10  C   UNL     1       1.466  -4.761   0.215  0.00  0.00    +0.162 A 
ATOM     11  N   UNL     1       1.925  -5.291   1.354  0.00  0.00    -0.190 NA
ATOM     12  C   UNL     1       3.184  -5.606   1.226  0.00  0.00    +0.332 A 
ATOM     13  O   UNL     1       3.573  -5.284  -0.014  0.00  0.00    -0.329 OA
ATOM     14  N   UNL     1       2.432  -4.738  -0.658  0.00  0.00    -0.062 NA
BRANCH  12  15
ATOM     15  C   UNL     1       4.052  -6.227   2.290  0.00  0.00    +0.472 C 
ATOM     16  F   UNL     1       3.976  -7.621   2.199  0.00  0.00    -0.162 F 
ATOM     17  F   UNL     1       5.377  -5.819   2.108  0.00  0.00    -0.162 F 
ATOM     18  F   UNL     1       3.607  -5.818   3.552  0.00  0.00    -0.162 F 
ENDBRANCH  12  15
ENDBRANCH   1  10
BRANCH   1  19
ATOM     19  N   UNL     1      -0.415  -4.764  -1.323  0.00  0.00    +0.387 N 
ATOM     20  H   UNL     1      -1.357  -4.439  -1.481  0.00  0.00    -0.089 HD
ATOM     21  H   UNL     1       0.188  -4.416  -2.053  0.00  0.00    -0.089 HD
ATOM     22  H   UNL     1      -0.402  -5.773  -1.329  0.00  0.00    -0.089 HD
ENDBRANCH   1  19
TORSDOF 4
