REMARK  Name = ZINC40813759
REMARK  5 active torsions:
REMARK  status: ('A' for Active; 'I' for Inactive)
REMARK    1  A    between atoms: C_1  and  C_2
REMARK    2  A    between atoms: C_6  and  C_7
REMARK    3  A    between atoms: N_9  and  C_10
REMARK    4  A    between atoms: N_24  and  N_25
REMARK    5  A    between atoms: C_26  and  C_28
REMARK                            x       y       z     vdW  Elec       q    Type
REMARK                         _______ _______ _______ _____ _____    ______ ____
ROOT
ATOM      1  C   UNL     1      -0.556   1.496   0.058  0.00  0.00    +0.048 C 
ATOM      2  C   UNL     1      -0.323   0.008   0.027  0.00  0.00    +0.009 A 
ATOM      3  C   UNL     1      -0.243  -0.807  -1.110  0.00  0.00    +0.042 A 
ATOM      4  C   UNL     1      -0.023  -2.094  -0.680  0.00  0.00    +0.115 A 
ATOM      5  O   UNL     1       0.034  -2.080   0.649  0.00  0.00    -0.454 OA
ATOM      6  C   UNL     1      -0.140  -0.817   1.101  0.00  0.00    +0.193 A 
ATOM      7  C   UNL     1       0.114  -3.262  -1.624  0.00  0.00    +0.075 C 
ATOM      8  C   UNL     1      -0.520  -2.904  -2.971  0.00  0.00    +0.014 C 
ATOM      9  C   UNL     1       0.050  -1.584  -3.503  0.00  0.00    +0.058 C 
ATOM     10  C   UNL     1      -0.355  -0.472  -2.547  0.00  0.00    +0.070 C 
ATOM     11  N   UNL     1      -0.767   0.687  -2.962  0.00  0.00    -0.184 NA
ENDROOT
BRANCH   6  12
ATOM     12  C   UNL     1      -0.137  -0.403   2.509  0.00  0.00    +0.284 C 
ATOM     13  O   UNL     1      -0.308   0.766   2.799  0.00  0.00    -0.266 OA
ATOM     14  N   UNL     1       0.054  -1.317   3.480  0.00  0.00    -0.279 N 
ATOM     15  H   UNL     1       0.114  -2.259   3.255  0.00  0.00    +0.155 HD
BRANCH  14  16
ATOM     16  C   UNL     1       0.168  -0.908   4.814  0.00  0.00    +0.037 A 
ATOM     17  C   UNL     1      -0.307  -1.723   5.833  0.00  0.00    +0.027 A 
ATOM     18  C   UNL     1      -0.197  -1.319   7.150  0.00  0.00    +0.051 A 
ATOM     19  C   UNL     1       0.389  -0.100   7.458  0.00  0.00    +0.162 A 
ATOM     20  C   UNL     1       0.867   0.717   6.440  0.00  0.00    +0.164 A 
ATOM     21  C   UNL     1       0.760   0.309   5.119  0.00  0.00    +0.072 A 
ATOM     22  O   UNL     1       1.452   1.913   6.723  0.00  0.00    -0.485 OA
ATOM     23  C   UNL     1       1.212   2.454   8.027  0.00  0.00    +0.270 C 
ATOM     24  C   UNL     1       1.412   1.333   9.057  0.00  0.00    +0.270 C 
ATOM     25  O   UNL     1       0.485   0.283   8.761  0.00  0.00    -0.485 OA
ENDBRANCH  14  16
ENDBRANCH   6  12
BRANCH  11  26
ATOM     26  N   UNL     1      -0.853   0.949  -4.335  0.00  0.00    -0.203 N 
ATOM     27  C   UNL     1      -1.282   2.152  -4.766  0.00  0.00    +0.265 C 
ATOM     28  O   UNL     1      -1.594   3.010  -3.962  0.00  0.00    -0.268 OA
ATOM     29  H   UNL     1      -0.604   0.265  -4.976  0.00  0.00    +0.178 HD
BRANCH  27  30
ATOM     30  C   UNL     1      -1.372   2.429  -6.213  0.00  0.00    +0.057 A 
ATOM     31  C   UNL     1      -1.020   1.444  -7.139  0.00  0.00    +0.016 A 
ATOM     32  C   UNL     1      -1.107   1.708  -8.489  0.00  0.00    +0.021 A 
ATOM     33  C   UNL     1      -1.543   2.947  -8.930  0.00  0.00    +0.042 A 
ATOM     34  C   UNL     1      -1.894   3.928  -8.019  0.00  0.00    +0.040 A 
ATOM     35  C   UNL     1      -1.816   3.675  -6.663  0.00  0.00    +0.054 A 
ATOM     36 CL   UNL     1      -2.263   4.904  -5.521  0.00  0.00    -0.083 Cl
ATOM     37 CL   UNL     1      -1.649   3.271 -10.632  0.00  0.00    -0.083 Cl
ENDBRANCH  27  30
ENDBRANCH  11  26
TORSDOF 4
