REMARK  Name = ZINC19911631
REMARK  15 active torsions:
REMARK  status: ('A' for Active; 'I' for Inactive)
REMARK    1  A    between atoms: C_1  and  C_2
REMARK    2  A    between atoms: C_2  and  C_4
REMARK    3  A    between atoms: C_2  and  C_10
REMARK    4  A    between atoms: C_4  and  C_5
REMARK    5  A    between atoms: C_5  and  C_6
REMARK    6  A    between atoms: C_6  and  O_8
REMARK    7  A    between atoms: O_8  and  C_9
REMARK    8  A    between atoms: C_16  and  C_43
REMARK    9  A    between atoms: C_23  and  O_39
REMARK   10  A    between atoms: C_28  and  C_38
REMARK   11  A    between atoms: C_31  and  O_34
REMARK   12  A    between atoms: O_34  and  C_35
REMARK   13  A    between atoms: C_35  and  C_37
REMARK   14  A    between atoms: O_39  and  C_40
REMARK   15  A    between atoms: C_40  and  C_42
REMARK                            x       y       z     vdW  Elec       q    Type
REMARK                         _______ _______ _______ _____ _____    ______ ____
ROOT
ATOM      1  C   UNL     1      -0.530   2.164   1.389  0.00  0.00    +0.006 C 
ATOM      2  C   UNL     1       0.281   3.476   1.541  0.00  0.00    +0.005 C 
ATOM      3  C   UNL     1       1.296   3.506   0.361  0.00  0.00    +0.005 C 
ATOM      4  C   UNL     1       1.403   2.028  -0.013  0.00  0.00    +0.013 C 
ATOM      5  C   UNL     1      -0.070   1.562   0.057  0.00  0.00    +0.037 C 
ATOM      6  C   UNL     1      -0.020   0.059   0.010  0.00  0.00    +0.162 C 
ATOM      7  O   UNL     1      -0.547  -0.649   0.842  0.00  0.00    -0.292 OA
ATOM      8  C   UNL     1       0.732  -0.475  -1.145  0.00  0.00    +0.047 C 
ATOM      9  C   UNL     1       1.700   0.239  -1.718  0.00  0.00    -0.053 C 
ATOM     10  C   UNL     1       2.106   1.616  -1.257  0.00  0.00    +0.060 C 
ATOM     11  C   UNL     1       2.226   2.631  -2.367  0.00  0.00    +0.184 C 
ATOM     12  C   UNL     1       2.614   1.964  -3.697  0.00  0.00    +0.049 C 
ATOM     13  C   UNL     1       3.416   0.709  -3.399  0.00  0.00    +0.006 C 
ATOM     14  C   UNL     1       2.487  -0.384  -2.856  0.00  0.00    -0.007 C 
ATOM     15  C   UNL     1       3.354  -1.537  -2.356  0.00  0.00    +0.015 C 
ATOM     16  C   UNL     1       4.200  -2.085  -3.507  0.00  0.00    +0.045 C 
ATOM     17  C   UNL     1       5.061  -0.993  -4.134  0.00  0.00    +0.177 C 
ATOM     18  C   UNL     1       4.197   0.188  -4.594  0.00  0.00    +0.049 C 
ATOM     19  C   UNL     1       1.516  -0.880  -3.929  0.00  0.00    +0.016 C 
ATOM     20  C   UNL     1      -0.946   2.096  -1.074  0.00  0.00    +0.020 C 
ENDROOT
BRANCH   1  22
ATOM     21  C   UNL     1      -2.812   1.163   1.219  0.00  0.00    +0.008 C 
ATOM     22  C   UNL     1      -2.027   2.471   1.337  0.00  0.00    -0.010 C 
BRANCH  22  23
ATOM     23  C   UNL     1      -2.443   3.202   2.615  0.00  0.00    +0.015 C 
BRANCH  23  24
ATOM     24  C   UNL     1      -3.911   3.619   2.509  0.00  0.00    +0.121 C 
BRANCH  24  25
ATOM     25  C   UNL     1      -4.321   4.339   3.768  0.00  0.00    +0.307 C 
ATOM     26  O   UNL     1      -3.521   4.503   4.658  0.00  0.00    -0.251 OA
BRANCH  25  27
ATOM     27  O   UNL     1      -5.575   4.800   3.900  0.00  0.00    -0.468 OA
ATOM     28  C   UNL     1      -5.899   5.483   5.139  0.00  0.00    +0.280 C 
ENDBRANCH  25  27
ENDBRANCH  24  25
ENDBRANCH  23  24
ENDBRANCH  22  23
ENDBRANCH   1  22
BRANCH  17  29
ATOM     29  O   UNL     1       5.771  -1.540  -5.277  0.00  0.00    -0.462 OA
BRANCH  29  30
ATOM     30  C   UNL     1       6.965  -2.104  -5.040  0.00  0.00    +0.304 C 
ATOM     31  O   UNL     1       7.404  -2.140  -3.915  0.00  0.00    -0.251 OA
ATOM     32  C   UNL     1       7.760  -2.692  -6.178  0.00  0.00    +0.136 C 
ENDBRANCH  29  30
ENDBRANCH  17  29
BRANCH  11  33
ATOM     33  O   UNL     1       1.014   3.396  -2.565  0.00  0.00    -0.461 OA
BRANCH  33  34
ATOM     34  C   UNL     1       1.152   4.650  -3.023  0.00  0.00    +0.304 C 
ATOM     35  O   UNL     1       2.253   5.093  -3.249  0.00  0.00    -0.251 OA
ATOM     36  C   UNL     1      -0.066   5.507  -3.254  0.00  0.00    +0.136 C 
ENDBRANCH  33  34
ENDBRANCH  11  33
TORSDOF 9
