REMARK  Name = ZINC35866931
REMARK  5 active torsions:
REMARK  status: ('A' for Active; 'I' for Inactive)
REMARK    1  A    between atoms: C_1  and  C_2
REMARK    2  A    between atoms: C_2  and  O_3
REMARK    3  A    between atoms: O_3  and  C_4
REMARK    4  A    between atoms: C_9  and  N_10
REMARK    5  A    between atoms: C_26  and  C_28
REMARK                            x       y       z     vdW  Elec       q    Type
REMARK                         _______ _______ _______ _____ _____    ______ ____
ROOT
ATOM      1  N   UNL     1       4.038  -1.442  -2.242  0.00  0.00    -0.266 N 
ATOM      2  C   UNL     1       3.310  -1.105  -3.325  0.00  0.00    +0.307 C 
ATOM      3  O   UNL     1       2.156  -1.476  -3.421  0.00  0.00    -0.252 OA
ATOM      4  N   UNL     1       3.861  -0.357  -4.302  0.00  0.00    -0.282 N 
ATOM      5  C   UNL     1       5.289  -0.011  -4.264  0.00  0.00    +0.128 C 
ATOM      6  C   UNL     1       5.939  -0.469  -5.576  0.00  0.00    +0.125 C 
ATOM      7  N   UNL     1       5.122   0.015  -6.698  0.00  0.00    -0.312 N 
ATOM      8  C   UNL     1       3.694  -0.331  -6.736  0.00  0.00    +0.125 C 
ATOM      9  C   UNL     1       3.046   0.122  -5.427  0.00  0.00    +0.128 C 
ATOM     10  C   UNL     1       5.688   0.782  -7.700  0.00  0.00    +0.133 A 
ATOM     11  C   UNL     1       6.361   0.163  -8.790  0.00  0.00    +0.051 A 
ATOM     12  C   UNL     1       6.573  -1.263  -9.045  0.00  0.00    -0.025 A 
ATOM     13  C   UNL     1       7.252  -1.590 -10.163  0.00  0.00    -0.004 A 
ATOM     14  S   UNL     1       7.644  -0.043 -10.935  0.00  0.00    -0.073 S 
ATOM     15  C   UNL     1       6.896   1.044  -9.750  0.00  0.00    +0.114 A 
ATOM     16  N   UNL     1       6.772   2.352  -9.631  0.00  0.00    -0.224 NA
ATOM     17  C   UNL     1       6.137   2.869  -8.597  0.00  0.00    +0.135 A 
ATOM     18  N   UNL     1       5.604   2.102  -7.662  0.00  0.00    -0.216 NA
ATOM     19  C   UNL     1       7.598  -2.966 -10.645  0.00  0.00    +0.043 C 
ATOM     20  C   UNL     1       7.391  -3.952  -9.487  0.00  0.00    +0.005 C 
ATOM     21  C   UNL     1       6.025  -3.679  -8.849  0.00  0.00    +0.005 C 
ATOM     22  C   UNL     1       6.059  -2.346  -8.100  0.00  0.00    +0.037 C 
ATOM     23  H   UNL     1       4.937  -1.094  -2.135  0.00  0.00    +0.156 HD
ENDROOT
BRANCH   1  29
ATOM     24  C   UNL     1       4.328  -3.142  -0.543  0.00  0.00    +0.142 A 
ATOM     25  C   UNL     1       3.787  -3.978   0.420  0.00  0.00    +0.047 A 
ATOM     26  C   UNL     1       2.425  -3.974   0.654  0.00  0.00    +0.004 A 
ATOM     27  C   UNL     1       1.598  -3.137  -0.072  0.00  0.00    +0.002 A 
ATOM     28  C   UNL     1       2.129  -2.299  -1.035  0.00  0.00    +0.027 A 
ATOM     29  C   UNL     1       3.496  -2.294  -1.270  0.00  0.00    +0.077 A 
BRANCH  24  30
ATOM     30  O   UNL     1       5.668  -3.145  -0.774  0.00  0.00    -0.490 OA
BRANCH  30  32
ATOM     31  C   UNL     1       7.930  -3.903  -0.388  0.00  0.00    +0.048 C 
ATOM     32  C   UNL     1       6.459  -4.040   0.010  0.00  0.00    +0.226 C 
ENDBRANCH  30  32
ENDBRANCH  24  30
ENDBRANCH   1  29
BRANCH  17  33
ATOM     33  C   UNL     1       6.009   4.366  -8.484  0.00  0.00    +0.057 C 
ATOM     34  C   UNL     1       5.257   4.907  -9.701  0.00  0.00    +0.011 C 
ATOM     35  C   UNL     1       5.128   6.428  -9.586  0.00  0.00    +0.001 C 
ATOM     36  C   UNL     1       6.522   7.055  -9.528  0.00  0.00    +0.000 C 
ATOM     37  C   UNL     1       7.274   6.514  -8.310  0.00  0.00    +0.001 C 
ATOM     38  C   UNL     1       7.404   4.994  -8.425  0.00  0.00    +0.011 C 
ENDBRANCH  17  33
TORSDOF 4
