REMARK  Name = ZINC37512369
REMARK  13 active torsions:
REMARK  status: ('A' for Active; 'I' for Inactive)
REMARK    1  A    between atoms: C_1  and  C_2
REMARK    2  A    between atoms: C_2  and  C_3
REMARK    3  A    between atoms: C_3  and  C_5
REMARK    4  A    between atoms: C_3  and  N_6
REMARK    5  A    between atoms: C_7  and  C_9
REMARK    6  A    between atoms: C_12  and  C_14
REMARK    7  A    between atoms: C_14  and  N_15
REMARK    8  A    between atoms: C_18  and  C_26
REMARK    9  A    between atoms: C_26  and  C_28
REMARK   10  A    between atoms: C_28  and  O_29
REMARK   11  A    between atoms: O_29  and  C_30
REMARK   12  A    between atoms: C_32  and  C_37
REMARK   13  A    between atoms: C_35  and  C_36
REMARK                            x       y       z     vdW  Elec       q    Type
REMARK                         _______ _______ _______ _____ _____    ______ ____
ROOT
ATOM      1  N   UNL     1      -3.804   0.009   7.088  0.00  0.00    -0.256 N 
ATOM      2  C   UNL     1      -4.573  -0.744   6.188  0.00  0.00    +0.079 A 
ATOM      3  C   UNL     1      -4.463  -0.540   4.828  0.00  0.00    +0.038 A 
ATOM      4  C   UNL     1      -5.241  -1.302   3.947  0.00  0.00    +0.023 A 
ATOM      5  C   UNL     1      -6.123  -2.265   4.452  0.00  0.00    +0.015 A 
ATOM      6  C   UNL     1      -6.226  -2.462   5.811  0.00  0.00    +0.048 A 
ATOM      7  C   UNL     1      -5.455  -1.708   6.684  0.00  0.00    +0.143 A 
ATOM      8  O   UNL     1      -5.548  -1.898   8.026  0.00  0.00    -0.481 OA
ATOM      9  C   UNL     1      -4.354  -1.702   8.788  0.00  0.00    +0.325 C 
ATOM     10  C   UNL     1      -3.685  -0.419   8.364  0.00  0.00    +0.258 C 
ATOM     11  O   UNL     1      -3.046   0.229   9.167  0.00  0.00    -0.271 OA
ENDROOT
BRANCH   4  12
ATOM     12  C   UNL     1      -5.131  -1.091   2.498  0.00  0.00    +0.200 C 
ATOM     13  O   UNL     1      -4.367  -0.256   2.062  0.00  0.00    -0.288 OA
BRANCH  12  14
ATOM     14  C   UNL     1      -5.969  -1.912   1.552  0.00  0.00    +0.308 C 
BRANCH  14  15
ATOM     15  O   UNL     1      -5.686  -1.524   0.206  0.00  0.00    -0.484 OA
BRANCH  15  16
ATOM     16  C   UNL     1      -6.362  -2.173  -0.778  0.00  0.00    +0.124 A 
ATOM     17  C   UNL     1      -7.284  -3.158  -0.455  0.00  0.00    +0.049 A 
ATOM     18  C   UNL     1      -7.971  -3.815  -1.457  0.00  0.00    -0.047 A 
ATOM     19  C   UNL     1      -7.740  -3.492  -2.782  0.00  0.00    +0.004 A 
ATOM     20  C   UNL     1      -6.821  -2.511  -3.107  0.00  0.00    +0.007 A 
ATOM     21  C   UNL     1      -6.136  -1.847  -2.108  0.00  0.00    -0.009 A 
ATOM     22  C   UNL     1      -5.139  -0.774  -2.462  0.00  0.00    +0.047 C 
ATOM     23  C   UNL     1      -8.972  -4.885  -1.107  0.00  0.00    +0.044 C 
ENDBRANCH  15  16
ENDBRANCH  14  15
ENDBRANCH  12  14
ENDBRANCH   4  12
BRANCH   1  24
ATOM     24  C   UNL     1      -3.135   1.236   6.650  0.00  0.00    +0.209 C 
BRANCH  24  28
ATOM     25  C   UNL     1      -0.125   0.362   4.834  0.00  0.00    +0.164 A 
ATOM     26  C   UNL     1       0.385   0.533   6.084  0.00  0.00    +0.230 A 
ATOM     27  O   UNL     1      -0.641   0.868   6.882  0.00  0.00    -0.445 OA
ATOM     28  C   UNL     1      -1.757   0.902   6.139  0.00  0.00    +0.214 A 
ATOM     29  N   UNL     1      -1.461   0.606   4.909  0.00  0.00    -0.207 NA
BRANCH  25  31
ATOM     30  N   UNL     1      -0.008  -0.140   2.444  0.00  0.00    -0.307 N 
ATOM     31  C   UNL     1       0.630  -0.011   3.624  0.00  0.00    +0.266 C 
ATOM     32  O   UNL     1       1.829  -0.203   3.690  0.00  0.00    -0.268 OA
ATOM     33  H   UNL     1      -0.965   0.013   2.391  0.00  0.00    +0.149 HD
BRANCH  30  34
ATOM     34  C   UNL     1       0.742  -0.511   1.242  0.00  0.00    +0.070 C 
ATOM     35  C   UNL     1       0.872  -2.034   1.171  0.00  0.00    +0.028 C 
BRANCH  34  37
ATOM     36  C   UNL     1      -0.019   1.526   0.010  0.00  0.00    +0.005 C 
ATOM     37  C   UNL     1       0.002  -0.004   0.002  0.00  0.00    +0.018 C 
ENDBRANCH  34  37
ENDBRANCH  30  34
ENDBRANCH  25  31
ENDBRANCH  24  28
ENDBRANCH   1  24
TORSDOF 9
