REMARK  Name = ZINC08733507
REMARK  8 active torsions:
REMARK  status: ('A' for Active; 'I' for Inactive)
REMARK    1  A    between atoms: C_3  and  N_30
REMARK    2  A    between atoms: C_6  and  C_7
REMARK    3  A    between atoms: C_7  and  O_8
REMARK    4  A    between atoms: O_8  and  N_9
REMARK    5  A    between atoms: N_11  and  C_12
REMARK    6  A    between atoms: C_12  and  C_14
REMARK    7  A    between atoms: N_17  and  C_20
REMARK    8  A    between atoms: C_23  and  C_25
REMARK                            x       y       z     vdW  Elec       q    Type
REMARK                         _______ _______ _______ _____ _____    ______ ____
ROOT
ATOM      1  C   UNL     1       2.164   4.131  -0.426  0.00  0.00    +0.080 C 
ATOM      2  C   UNL     1       3.109   3.951   0.764  0.00  0.00    +0.032 C 
ATOM      3  C   UNL     1       4.334   4.850   0.578  0.00  0.00    +0.107 C 
ATOM      4  N   UNL     1       3.904   6.250   0.480  0.00  0.00    -0.315 N 
ATOM      5  C   UNL     1       3.033   6.458  -0.684  0.00  0.00    +0.107 C 
ATOM      6  C   UNL     1       1.770   5.607  -0.536  0.00  0.00    +0.032 C 
ENDROOT
BRANCH   4   7
ATOM      7  C   UNL     1       4.999   7.106   0.442  0.00  0.00    +0.117 A 
ATOM      8  C   UNL     1       5.486   7.658   1.624  0.00  0.00    +0.079 A 
ATOM      9  C   UNL     1       6.580   8.504   1.571  0.00  0.00    +0.037 A 
ATOM     10  C   UNL     1       7.145   8.779   0.333  0.00  0.00    +0.072 A 
ATOM     11  C   UNL     1       6.608   8.202  -0.799  0.00  0.00    +0.096 A 
ATOM     12 CL   UNL     1       4.734   7.285   3.144  0.00  0.00    -0.080 Cl
ATOM     13  N   UNL     1       5.538   7.362  -0.785  0.00  0.00    -0.348 N 
ATOM     14  H   UNL     1       5.159   6.947  -1.644  0.00  0.00    +0.167 HD
BRANCH  10  15
ATOM     15  C   UNL     1       8.334   9.699   0.227  0.00  0.00    +0.419 C 
ATOM     16  F   UNL     1       8.716   9.815  -1.114  0.00  0.00    -0.166 F 
ATOM     17  F   UNL     1       7.994  10.961   0.726  0.00  0.00    -0.166 F 
ATOM     18  F   UNL     1       9.397   9.175   0.971  0.00  0.00    -0.166 F 
ENDBRANCH  10  15
ENDBRANCH   4   7
BRANCH   1  19
ATOM     19  C   UNL     1       0.928   3.294  -0.220  0.00  0.00    +0.241 C 
ATOM     20  O   UNL     1      -0.163   3.825  -0.166  0.00  0.00    -0.273 OA
BRANCH  19  23
ATOM     21  N   UNL     1      -0.417   1.703  -1.871  0.00  0.00    -0.257 N 
ATOM     22  C   UNL     1       0.392   1.176  -0.929  0.00  0.00    +0.208 C 
ATOM     23  N   UNL     1       1.033   1.966  -0.097  0.00  0.00    -0.169 NA
ATOM     24  H   UNL     1      -0.463   2.664  -1.988  0.00  0.00    +0.195 HD
BRANCH  21  25
ATOM     25  O   UNL     1      -1.200   0.852  -2.688  0.00  0.00    -0.269 OA
BRANCH  25  26
ATOM     26  C   UNL     1      -2.009   1.544  -3.641  0.00  0.00    +0.228 C 
BRANCH  26  32
ATOM     27  C   UNL     1      -2.267   0.039  -5.623  0.00  0.00    +0.008 A 
ATOM     28  C   UNL     1      -2.986  -0.880  -6.365  0.00  0.00    +0.033 A 
ATOM     29  C   UNL     1      -4.238  -1.283  -5.940  0.00  0.00    +0.126 A 
ATOM     30  C   UNL     1      -4.769  -0.771  -4.770  0.00  0.00    +0.033 A 
ATOM     31  C   UNL     1      -4.048   0.144  -4.027  0.00  0.00    +0.008 A 
ATOM     32  C   UNL     1      -2.796   0.547  -4.452  0.00  0.00    -0.019 A 
BRANCH  29  33
ATOM     33  N   UNL     1      -5.011  -2.263  -6.736  0.00  0.00    +0.056 N 
ATOM     34  O   UNL     1      -6.114  -2.618  -6.361  0.00  0.00    -0.126 OA
ATOM     35  O   UNL     1      -4.543  -2.714  -7.766  0.00  0.00    -0.126 OA
ENDBRANCH  29  33
ENDBRANCH  26  32
ENDBRANCH  25  26
ENDBRANCH  21  25
ENDBRANCH  19  23
ENDBRANCH   1  19
TORSDOF 8
