REMARK  Name = ZINC39981326
REMARK  7 active torsions:
REMARK  status: ('A' for Active; 'I' for Inactive)
REMARK    1  A    between atoms: C_1  and  C_2
REMARK    2  A    between atoms: C_9  and  C_15
REMARK    3  A    between atoms: C_15  and  N_16
REMARK    4  A    between atoms: N_16  and  C_17
REMARK    5  A    between atoms: C_17  and  C_18
REMARK    6  A    between atoms: N_25  and  C_26
REMARK    7  A    between atoms: C_31  and  C_32
REMARK                            x       y       z     vdW  Elec       q    Type
REMARK                         _______ _______ _______ _____ _____    ______ ____
ROOT
ATOM      1  N   UNL     1      -1.274  -5.392   4.016  0.00  0.00    -0.274 N 
ATOM      2  C   UNL     1      -2.021  -4.580   4.790  0.00  0.00    +0.307 C 
ATOM      3  O   UNL     1      -1.556  -3.531   5.195  0.00  0.00    -0.252 OA
ATOM      4  N   UNL     1      -3.281  -4.928   5.114  0.00  0.00    -0.269 N 
ATOM      5  H   UNL     1      -3.680  -5.723   4.725  0.00  0.00    +0.156 HD
ENDROOT
BRANCH   4   6
ATOM      6  C   UNL     1      -4.015  -4.144   6.011  0.00  0.00    +0.038 A 
ATOM      7  C   UNL     1      -3.357  -3.352   6.943  0.00  0.00    +0.023 A 
ATOM      8  C   UNL     1      -4.084  -2.579   7.826  0.00  0.00    +0.002 A 
ATOM      9  C   UNL     1      -5.466  -2.594   7.785  0.00  0.00    +0.000 A 
ATOM     10  C   UNL     1      -6.125  -3.382   6.860  0.00  0.00    +0.005 A 
ATOM     11  C   UNL     1      -5.403  -4.153   5.969  0.00  0.00    -0.029 A 
ATOM     12  C   UNL     1      -6.121  -5.007   4.956  0.00  0.00    +0.045 C 
ENDBRANCH   4   6
BRANCH   1  13
ATOM     13  C   UNL     1       0.096  -5.013   3.663  0.00  0.00    +0.148 C 
BRANCH  13  22
ATOM     14  C   UNL     1       0.002   1.461  -0.028  0.00  0.00    +0.044 C 
ATOM     15  C   UNL     1       0.023  -0.045  -0.024  0.00  0.00    -0.050 A 
ATOM     16  C   UNL     1       0.033  -0.737  -1.228  0.00  0.00    +0.005 A 
ATOM     17  C   UNL     1       0.053  -2.115  -1.246  0.00  0.00    +0.029 A 
ATOM     18  C   UNL     1       0.063  -2.822  -0.049  0.00  0.00    +0.077 A 
ATOM     19  C   UNL     1       0.054  -2.118   1.170  0.00  0.00    +0.001 A 
ATOM     20  C   UNL     1       0.039  -0.719   1.164  0.00  0.00    +0.013 A 
ATOM     21  C   UNL     1       0.065  -2.868   2.427  0.00  0.00    +0.019 A 
ATOM     22  C   UNL     1       0.084  -4.221   2.382  0.00  0.00    +0.017 A 
ATOM     23  C   UNL     1       0.094  -4.894   1.138  0.00  0.00    +0.184 A 
ATOM     24  N   UNL     1       0.083  -4.200  -0.036  0.00  0.00    -0.192 N 
ATOM     25  N   UNL     1       0.096  -5.173  -1.046  0.00  0.00    -0.039 NA
ATOM     26  N   UNL     1       0.113  -6.321  -0.460  0.00  0.00    -0.022 NA
ATOM     27  N   UNL     1       0.113  -6.180   0.817  0.00  0.00    -0.108 NA
ENDBRANCH  13  22
ENDBRANCH   1  13
BRANCH   1  28
ATOM     28  C   UNL     1      -1.834  -6.655   3.527  0.00  0.00    +0.183 C 
BRANCH  28  29
ATOM     29  C   UNL     1      -1.544  -7.751   4.520  0.00  0.00    +0.122 A 
ATOM     30  C   UNL     1      -2.333  -8.109   5.549  0.00  0.00    +0.046 A 
ATOM     31  C   UNL     1      -1.680  -9.171   6.216  0.00  0.00    +0.041 A 
ATOM     32  C   UNL     1      -0.531  -9.398   5.555  0.00  0.00    +0.195 A 
ATOM     33  O   UNL     1      -0.456  -8.539   4.525  0.00  0.00    -0.466 OA
ENDBRANCH  28  29
ENDBRANCH   1  28
TORSDOF 5
