REMARK  Name = ZINC39675530
REMARK  9 active torsions:
REMARK  status: ('A' for Active; 'I' for Inactive)
REMARK    1  A    between atoms: C_1  and  C_2
REMARK    2  A    between atoms: C_5  and  C_8
REMARK    3  A    between atoms: C_12  and  C_21
REMARK    4  A    between atoms: N_23  and  C_24
REMARK    5  A    between atoms: C_24  and  C_25
REMARK    6  A    between atoms: C_25  and  C_27
REMARK    7  A    between atoms: C_25  and  N_33
REMARK    8  A    between atoms: N_33  and  C_34
REMARK    9  A    between atoms: N_33  and  C_35
REMARK                            x       y       z     vdW  Elec       q    Type
REMARK                         _______ _______ _______ _____ _____    ______ ____
ROOT
ATOM      1  C   UNL     1      -0.188  -4.510  -0.108  0.00  0.00    +0.247 C 
ATOM      2  O   UNL     1      -0.244  -5.164  -1.131  0.00  0.00    -0.270 OA
ATOM      3  N   UNL     1      -0.010  -5.126   1.077  0.00  0.00    -0.296 N 
ATOM      4  C   UNL     1      -0.041  -4.522   2.430  0.00  0.00    +0.121 C 
ATOM      5  C   UNL     1      -0.768  -5.565   3.307  0.00  0.00    +0.100 C 
ATOM      6  C   UNL     1      -0.564  -6.903   2.576  0.00  0.00    -0.004 C 
ATOM      7  C   UNL     1       0.256  -6.564   1.323  0.00  0.00    +0.115 C 
ATOM      8  C   UNL     1       0.204  -7.878   3.464  0.00  0.00    -0.010 C 
ATOM      9  C   UNL     1       0.344  -9.219   2.738  0.00  0.00    -0.082 C 
ATOM     10  N   UNL     1      -0.988  -9.752   2.430  0.00  0.00    +0.379 N 
ATOM     11  C   UNL     1      -1.685  -8.853   1.502  0.00  0.00    -0.082 C 
ATOM     12  C   UNL     1      -1.911  -7.497   2.175  0.00  0.00    -0.010 C 
ATOM     13  H   UNL     1      -0.895 -10.664   2.007  0.00  0.00    -0.086 HD
ATOM     14  H   UNL     1      -1.522  -9.833   3.282  0.00  0.00    -0.086 HD
ENDROOT
BRANCH   1  19
ATOM     15  C   UNL     1      -0.685   1.219  -0.324  0.00  0.00    +0.044 C 
ATOM     16  C   UNL     1      -0.554  -0.281  -0.267  0.00  0.00    -0.050 A 
ATOM     17  C   UNL     1      -1.034  -1.054  -1.310  0.00  0.00    +0.004 A 
ATOM     18  C   UNL     1      -0.918  -2.428  -1.264  0.00  0.00    +0.013 A 
ATOM     19  C   UNL     1      -0.315  -3.038  -0.163  0.00  0.00    +0.037 A 
ATOM     20  C   UNL     1       0.167  -2.252   0.885  0.00  0.00    +0.013 A 
ATOM     21  C   UNL     1       0.050  -0.879   0.825  0.00  0.00    +0.004 A 
ENDBRANCH   1  19
BRANCH   5  22
ATOM     22  C   UNL     1      -0.152  -5.616   4.681  0.00  0.00    +0.218 C 
ATOM     23  O   UNL     1       1.006  -5.289   4.840  0.00  0.00    -0.275 OA
ATOM     24  N   UNL     1      -0.886  -6.024   5.735  0.00  0.00    -0.316 N 
ATOM     25  H   UNL     1      -1.812  -6.286   5.609  0.00  0.00    +0.149 HD
BRANCH  24  26
ATOM     26  C   UNL     1      -0.287  -6.074   7.071  0.00  0.00    +0.093 C 
BRANCH  26  27
ATOM     27  C   UNL     1      -1.357  -6.452   8.097  0.00  0.00    -0.021 C 
BRANCH  27  28
ATOM     28  C   UNL     1      -1.837  -7.855   7.828  0.00  0.00    -0.059 A 
ATOM     29  C   UNL     1      -1.094  -8.935   8.264  0.00  0.00    +0.002 A 
ATOM     30  C   UNL     1      -1.534 -10.222   8.018  0.00  0.00    +0.000 A 
ATOM     31  C   UNL     1      -2.718 -10.429   7.335  0.00  0.00    +0.000 A 
ATOM     32  C   UNL     1      -3.462  -9.349   6.899  0.00  0.00    +0.000 A 
ATOM     33  C   UNL     1      -3.024  -8.062   7.149  0.00  0.00    +0.002 A 
ENDBRANCH  27  28
BRANCH  27  34
ATOM     34  N   UNL     1      -0.788  -6.380   9.448  0.00  0.00    +0.382 N 
ATOM     35  C   UNL     1      -0.408  -4.993   9.747  0.00  0.00    -0.096 C 
ATOM     36  C   UNL     1      -1.785  -6.836  10.425  0.00  0.00    -0.096 C 
ATOM     37  H   UNL     1       0.029  -6.971   9.501  0.00  0.00    -0.082 HD
ENDBRANCH  27  34
ENDBRANCH  26  27
ENDBRANCH  24  26
ENDBRANCH   5  22
TORSDOF 6
