REMARK  Name = ZINC38534409
REMARK  4 active torsions:
REMARK  status: ('A' for Active; 'I' for Inactive)
REMARK    1  A    between atoms: C_1  and  C_2
REMARK    2  A    between atoms: C_4  and  C_16
REMARK    3  A    between atoms: C_6  and  C_14
REMARK    4  A    between atoms: C_7  and  N_13
REMARK                            x       y       z     vdW  Elec       q    Type
REMARK                         _______ _______ _______ _____ _____    ______ ____
ROOT
ATOM      1  C   UNL     1      -0.018   1.503   0.010  0.00  0.00    +0.067 C 
ATOM      2  C   UNL     1       0.002  -0.004   0.002  0.00  0.00    +0.066 C 
ATOM      3  C   UNL     1      -1.064  -0.768   0.003  0.00  0.00    +0.030 C 
ATOM      4  C   UNL     1      -2.536  -0.493   0.145  0.00  0.00    +0.098 C 
ATOM      5  C   UNL     1      -3.065  -1.577   1.066  0.00  0.00    +0.097 C 
ATOM      6  C   UNL     1      -2.303  -2.628   1.436  0.00  0.00    +0.195 C 
ATOM      7  O   UNL     1      -1.023  -2.853   1.091  0.00  0.00    -0.448 OA
ATOM      8  C   UNL     1      -0.529  -2.198  -0.081  0.00  0.00    +0.343 C 
ATOM      9  N   UNL     1       0.921  -1.985  -0.028  0.00  0.00    -0.138 NA
ATOM     10  N   UNL     1       1.127  -0.765  -0.013  0.00  0.00    -0.155 NA
ENDROOT
BRANCH   4  11
ATOM     11  C   UNL     1      -3.212  -0.572  -1.199  0.00  0.00    -0.034 A 
ATOM     12  C   UNL     1      -3.170  -1.763  -1.921  0.00  0.00    +0.005 A 
ATOM     13  C   UNL     1      -3.771  -1.868  -3.137  0.00  0.00    +0.009 A 
ATOM     14  C   UNL     1      -4.445  -0.759  -3.678  0.00  0.00    -0.018 A 
ATOM     15  C   UNL     1      -5.077  -0.829  -4.931  0.00  0.00    +0.008 A 
ATOM     16  C   UNL     1      -5.721   0.265  -5.422  0.00  0.00    +0.001 A 
ATOM     17  C   UNL     1      -5.763   1.457  -4.700  0.00  0.00    +0.001 A 
ATOM     18  C   UNL     1      -5.162   1.561  -3.484  0.00  0.00    +0.008 A 
ATOM     19  C   UNL     1      -4.488   0.453  -2.944  0.00  0.00    -0.018 A 
ATOM     20  C   UNL     1      -3.861   0.521  -1.688  0.00  0.00    +0.013 A 
ENDBRANCH   4  11
BRANCH   6  21
ATOM     21  N   UNL     1      -2.896  -3.562   2.247  0.00  0.00    -0.329 N 
ATOM     22  H   UNL     1      -3.818  -3.448   2.526  0.00  0.00    +0.145 HD
ATOM     23  H   UNL     1      -2.393  -4.337   2.542  0.00  0.00    +0.145 HD
ENDBRANCH   6  21
BRANCH   5  24
ATOM     24  C   UNL     1      -4.407  -1.482   1.556  0.00  0.00    +0.101 C 
ATOM     25  N   UNL     1      -5.472  -1.407   1.944  0.00  0.00    -0.191 NA
ENDBRANCH   5  24
TORSDOF 3
