REMARK  Name = ZINC63374527
REMARK  12 active torsions:
REMARK  status: ('A' for Active; 'I' for Inactive)
REMARK    1  A    between atoms: C_1  and  C_2
REMARK    2  A    between atoms: C_2  and  C_3
REMARK    3  A    between atoms: C_2  and  O_4
REMARK    4  A    between atoms: O_4  and  C_5
REMARK    5  A    between atoms: C_8  and  C_13
REMARK    6  A    between atoms: C_10  and  O_11
REMARK    7  A    between atoms: O_11  and  C_12
REMARK    8  A    between atoms: N_20  and  C_35
REMARK    9  A    between atoms: C_23  and  C_34
REMARK   10  A    between atoms: C_35  and  C_36
REMARK   11  A    between atoms: C_36  and  C_37
REMARK   12  A    between atoms: C_37  and  O_38
REMARK                            x       y       z     vdW  Elec       q    Type
REMARK                         _______ _______ _______ _____ _____    ______ ____
ROOT
ATOM      1  C   UNL     1      -2.534  -5.103  -3.219  0.00  0.00    +0.065 C 
ATOM      2  C   UNL     1      -1.793  -5.244  -4.551  0.00  0.00    +0.121 C 
ATOM      3  N   UNL     1      -0.392  -5.593  -4.402  0.00  0.00    -0.283 N 
ATOM      4  C   UNL     1       0.412  -5.437  -5.507  0.00  0.00    +0.234 C 
ATOM      5  O   UNL     1       0.006  -4.900  -6.516  0.00  0.00    -0.274 OA
ATOM      6  C   UNL     1       1.826  -5.967  -5.404  0.00  0.00    +0.203 C 
ATOM      7  N   UNL     1       1.785  -7.293  -4.759  0.00  0.00    -0.291 N 
ATOM      8  C   UNL     1       1.016  -7.401  -3.634  0.00  0.00    +0.242 C 
ATOM      9  O   UNL     1       0.936  -8.431  -2.999  0.00  0.00    -0.273 OA
ATOM     10  C   UNL     1       0.275  -6.150  -3.238  0.00  0.00    +0.135 C 
ATOM     11  C   UNL     1      -0.534  -6.292  -1.987  0.00  0.00    +0.139 C 
ATOM     12  C   UNL     1      -2.015  -6.208  -2.332  0.00  0.00    -0.027 C 
ATOM     13  C   UNL     1      -2.602  -7.236  -1.739  0.00  0.00    -0.000 A 
ATOM     14  C   UNL     1      -4.016  -7.630  -1.623  0.00  0.00    +0.010 A 
ATOM     15  C   UNL     1      -4.263  -8.784  -0.947  0.00  0.00    +0.001 A 
ATOM     16  C   UNL     1      -3.259  -9.576  -0.383  0.00  0.00    +0.002 A 
ATOM     17  C   UNL     1      -1.934  -9.286  -0.433  0.00  0.00    +0.026 A 
ATOM     18  C   UNL     1      -1.549  -8.092  -1.110  0.00  0.00    +0.043 A 
ATOM     19  N   UNL     1      -0.378  -7.572  -1.299  0.00  0.00    -0.375 N 
ATOM     20  C   UNL     1       1.367  -5.140  -2.880  0.00  0.00    +0.044 C 
ATOM     21  H   UNL     1       0.463  -7.969  -1.021  0.00  0.00    +0.160 HD
ENDROOT
BRANCH   1  25
ATOM     22  C   UNL     1      -1.691  -1.293  -1.469  0.00  0.00    +0.162 A 
ATOM     23  C   UNL     1      -0.742  -1.921  -2.259  0.00  0.00    +0.050 A 
ATOM     24  C   UNL     1      -1.017  -3.153  -2.823  0.00  0.00    +0.008 A 
ATOM     25  C   UNL     1      -2.239  -3.761  -2.601  0.00  0.00    -0.035 A 
ATOM     26  C   UNL     1      -3.191  -3.139  -1.815  0.00  0.00    +0.053 A 
ATOM     27  C   UNL     1      -2.919  -1.908  -1.241  0.00  0.00    +0.162 A 
BRANCH  27  28
ATOM     28  O   UNL     1      -3.852  -1.298  -0.462  0.00  0.00    -0.491 OA
ATOM     29  C   UNL     1      -5.089  -1.987  -0.272  0.00  0.00    +0.277 C 
ENDBRANCH  27  28
BRANCH  22  30
ATOM     30  O   UNL     1      -1.422  -0.082  -0.913  0.00  0.00    -0.486 OA
BRANCH  30  32
ATOM     31  C   UNL     1      -0.227   2.015  -1.038  0.00  0.00    +0.051 C 
ATOM     32  C   UNL     1      -0.147   0.496  -1.202  0.00  0.00    +0.167 C 
ATOM     33  C   UNL     1       0.899  -0.067  -0.239  0.00  0.00    +0.051 C 
ENDBRANCH  30  32
ENDBRANCH  22  30
ENDBRANCH   1  25
BRANCH   7  34
ATOM     34  C   UNL     1       2.529  -8.435  -5.297  0.00  0.00    +0.110 C 
BRANCH  34  35
ATOM     35  C   UNL     1       3.925  -8.474  -4.673  0.00  0.00    +0.047 C 
BRANCH  35  36
ATOM     36  C   UNL     1       4.702  -9.666  -5.235  0.00  0.00    +0.157 C 
BRANCH  36  37
ATOM     37  O   UNL     1       6.006  -9.703  -4.652  0.00  0.00    -0.395 OA
ATOM     38  H   UNL     1       6.556 -10.435  -4.963  0.00  0.00    +0.209 HD
ENDBRANCH  36  37
ENDBRANCH  35  36
ENDBRANCH  34  35
ENDBRANCH   7  34
TORSDOF 8
