REMARK  Name = ZINC65287845
REMARK  5 active torsions:
REMARK  status: ('A' for Active; 'I' for Inactive)
REMARK    1  A    between atoms: C_1  and  N_2
REMARK    2  A    between atoms: C_6  and  C_8
REMARK    3  A    between atoms: C_15  and  C_17
REMARK    4  A    between atoms: C_17  and  C_18
REMARK    5  A    between atoms: C_18  and  C_19
REMARK                            x       y       z     vdW  Elec       q    Type
REMARK                         _______ _______ _______ _____ _____    ______ ____
ROOT
ATOM      1  C   UNL     1       2.157  -0.881   0.843  0.00  0.00    +0.008 C 
ATOM      2  C   UNL     1       2.873  -1.398   2.093  0.00  0.00    +0.006 C 
ATOM      3  C   UNL     1       4.305  -1.801   1.732  0.00  0.00    +0.019 C 
ATOM      4  C   UNL     1       5.062  -0.573   1.214  0.00  0.00    +0.108 C 
ATOM      5  N   UNL     1       4.303   0.016   0.103  0.00  0.00    -0.301 N 
ATOM      6  C   UNL     1       2.889   0.357   0.314  0.00  0.00    +0.111 C 
ATOM      7  C   UNL     1       4.892   0.239  -1.089  0.00  0.00    +0.216 C 
ATOM      8  O   UNL     1       4.254   0.726  -1.998  0.00  0.00    -0.276 OA
ENDROOT
BRANCH   1  14
ATOM      9  C   UNL     1      -0.018   1.465   0.010  0.00  0.00    -0.092 C 
ATOM     10  N   UNL     1       0.002  -0.004   0.002  0.00  0.00    +0.398 N 
ATOM     11  C   UNL     1      -1.376  -0.530   0.088  0.00  0.00    +0.024 C 
ATOM     12  N   UNL     1      -1.444  -1.332   1.331  0.00  0.00    -0.275 NA
ATOM     13  N   UNL     1      -0.050  -1.719   1.596  0.00  0.00    -0.272 NA
ATOM     14  C   UNL     1       0.716  -0.509   1.197  0.00  0.00    +0.021 C 
ATOM     15  H   UNL     1      -1.819  -0.786   2.092  0.00  0.00    +0.138 HD
ATOM     16  H   UNL     1       0.087  -1.929   2.573  0.00  0.00    +0.139 HD
ATOM     17  H   UNL     1       0.451  -0.340  -0.837  0.00  0.00    -0.078 HD
ENDBRANCH   1  14
BRANCH   7  18
ATOM     18  C   UNL     1       6.342  -0.115  -1.290  0.00  0.00    +0.100 C 
BRANCH  18  19
ATOM     19  C   UNL     1       6.760   0.237  -2.720  0.00  0.00    +0.042 C 
BRANCH  19  20
ATOM     20  C   UNL     1       8.210  -0.118  -2.921  0.00  0.00    -0.041 C 
ATOM     21  C   UNL     1       8.701  -1.261  -3.451  0.00  0.00    -0.001 A 
ATOM     22  C   UNL     1       8.057  -2.471  -3.976  0.00  0.00    +0.010 A 
ATOM     23  C   UNL     1       8.832  -3.474  -4.449  0.00  0.00    +0.001 A 
ATOM     24  C   UNL     1      10.230  -3.387  -4.451  0.00  0.00    +0.002 A 
ATOM     25  C   UNL     1      10.895  -2.308  -3.985  0.00  0.00    +0.026 A 
ATOM     26  C   UNL     1      10.180  -1.194  -3.464  0.00  0.00    +0.043 A 
ATOM     27  N   UNL     1      10.587  -0.053  -2.962  0.00  0.00    -0.380 N 
ATOM     28  C   UNL     1       9.411   0.735  -2.579  0.00  0.00    +0.144 C 
ATOM     29  H   UNL     1      11.511   0.224  -2.864  0.00  0.00    +0.160 HD
ENDBRANCH  19  20
ENDBRANCH  18  19
ENDBRANCH   7  18
TORSDOF 4
