REMARK  Name = ZINC65074802
REMARK  6 active torsions:
REMARK  status: ('A' for Active; 'I' for Inactive)
REMARK    1  A    between atoms: C_1  and  O_2
REMARK    2  A    between atoms: O_2  and  C_3
REMARK    3  A    between atoms: C_7  and  C_9
REMARK    4  A    between atoms: C_9  and  N_10
REMARK    5  A    between atoms: N_19  and  S_22
REMARK    6  A    between atoms: S_22  and  C_25
REMARK                            x       y       z     vdW  Elec       q    Type
REMARK                         _______ _______ _______ _____ _____    ______ ____
ROOT
ATOM      1  N   UNL     1       0.219  -4.643   2.929  0.00  0.00    -0.329 N 
ATOM      2  C   UNL     1       0.063  -5.992   3.108  0.00  0.00    +0.089 C 
ATOM      3  N   UNL     1       0.962  -6.773   2.638  0.00  0.00    -0.374 N 
ATOM      4  C   UNL     1       0.912  -8.227   2.750  0.00  0.00    +0.129 C 
ATOM      5  C   UNL     1      -0.090  -8.637   3.831  0.00  0.00    +0.102 C 
ATOM      6  N   UNL     1      -1.351  -7.912   3.598  0.00  0.00    -0.303 NA
ATOM      7  C   UNL     1      -1.151  -6.475   3.849  0.00  0.00    +0.075 C 
ATOM      8  C   UNL     1      -2.385  -5.706   3.370  0.00  0.00    +0.047 C 
ATOM      9  C   UNL     1      -3.624  -6.231   4.102  0.00  0.00    +0.111 C 
ATOM     10  N   UNL     1      -3.389  -6.149   5.550  0.00  0.00    -0.176 NA
ATOM     11  C   UNL     1      -2.181  -6.775   6.105  0.00  0.00    +0.111 C 
ATOM     12  C   UNL     1      -0.959  -6.244   5.351  0.00  0.00    +0.047 C 
ATOM     13  H   UNL     1      -0.445  -4.028   3.277  0.00  0.00    +0.147 HD
ATOM     14  H   UNL     1      -1.694  -8.074   2.663  0.00  0.00    +0.123 HD
ATOM     15  H   UNL     1       1.719  -6.375   2.182  0.00  0.00    +0.161 HD
ENDROOT
BRANCH  10  16
ATOM     16  S   UNL     1      -4.464  -5.367   6.537  0.00  0.00    +0.061 S 
ATOM     17  O   UNL     1      -3.740  -4.973   7.694  0.00  0.00    -0.153 OA
ATOM     18  O   UNL     1      -5.161  -4.436   5.721  0.00  0.00    -0.153 OA
BRANCH  16  19
ATOM     19  C   UNL     1      -5.649  -6.559   7.066  0.00  0.00    +0.106 A 
ATOM     20  C   UNL     1      -6.795  -6.775   6.323  0.00  0.00    +0.029 A 
ATOM     21  C   UNL     1      -7.719  -7.708   6.745  0.00  0.00    +0.006 A 
ATOM     22  C   UNL     1      -7.507  -8.434   7.910  0.00  0.00    -0.044 A 
ATOM     23  C   UNL     1      -6.364  -8.223   8.647  0.00  0.00    -0.042 A 
ATOM     24  C   UNL     1      -5.433  -7.285   8.219  0.00  0.00    +0.032 A 
ATOM     25  C   UNL     1      -6.061  -8.986   9.910  0.00  0.00    +0.035 C 
ATOM     26  C   UNL     1      -7.327  -9.639  10.460  0.00  0.00    +0.005 C 
ATOM     27  C   UNL     1      -7.997 -10.427   9.328  0.00  0.00    +0.005 C 
ATOM     28  C   UNL     1      -8.561  -9.431   8.316  0.00  0.00    +0.035 C 
ENDBRANCH  16  19
ENDBRANCH  10  16
BRANCH   1  29
ATOM     29  C   UNL     1       1.389  -4.130   2.211  0.00  0.00    +0.138 C 
BRANCH  29  34
ATOM     30  C   UNL     1       0.626  -0.618   1.042  0.00  0.00    +0.120 A 
ATOM     31  C   UNL     1       1.202   0.139   2.051  0.00  0.00    +0.045 A 
ATOM     32  C   UNL     1       1.835  -0.488   3.107  0.00  0.00    +0.004 A 
ATOM     33  C   UNL     1       1.895  -1.869   3.158  0.00  0.00    +0.005 A 
ATOM     34  C   UNL     1       1.321  -2.625   2.153  0.00  0.00    -0.027 A 
ATOM     35  C   UNL     1       0.682  -2.003   1.097  0.00  0.00    +0.050 A 
BRANCH  30  37
ATOM     36  C   UNL     1      -0.017   1.425   0.010  0.00  0.00    +0.277 C 
ATOM     37  O   UNL     1       0.002  -0.004   0.002  0.00  0.00    -0.495 OA
ENDBRANCH  30  37
ENDBRANCH  29  34
ENDBRANCH   1  29
TORSDOF 5
