REMARK  Name = ZINC25423301
REMARK  8 active torsions:
REMARK  status: ('A' for Active; 'I' for Inactive)
REMARK    1  A    between atoms: C_1  and  C_2
REMARK    2  A    between atoms: C_2  and  C_3
REMARK    3  A    between atoms: C_2  and  C_4
REMARK    4  A    between atoms: C_4  and  C_5
REMARK    5  A    between atoms: N_9  and  C_13
REMARK    6  A    between atoms: C_13  and  C_14
REMARK    7  A    between atoms: C_17  and  C_32
REMARK    8  A    between atoms: C_20  and  C_22
REMARK                            x       y       z     vdW  Elec       q    Type
REMARK                         _______ _______ _______ _____ _____    ______ ____
ROOT
ATOM      1  C   UNL     1       1.018  -7.356  -0.051  0.00  0.00    +0.253 C 
ATOM      2  O   UNL     1       1.417  -8.501  -0.060  0.00  0.00    -0.272 OA
ATOM      3  N   UNL     1       1.897  -6.335  -0.053  0.00  0.00    -0.184 N 
ATOM      4  C   UNL     1       3.363  -6.468  -0.067  0.00  0.00    +0.137 C 
ATOM      5  C   UNL     1       3.858  -5.008  -0.069  0.00  0.00    +0.087 C 
ATOM      6  C   UNL     1       2.586  -4.192  -0.047  0.00  0.00    +0.069 C 
ATOM      7  N   UNL     1       1.568  -4.981  -0.042  0.00  0.00    -0.181 NA
ENDROOT
BRANCH   6   8
ATOM      8  C   UNL     1       2.521  -2.719  -0.038  0.00  0.00    -0.002 A 
ATOM      9  C   UNL     1       3.710  -1.967  -0.044  0.00  0.00    +0.010 A 
ATOM     10  C   UNL     1       3.675  -0.610  -0.037  0.00  0.00    +0.009 A 
ATOM     11  C   UNL     1       2.439   0.063  -0.021  0.00  0.00    -0.018 A 
ATOM     12  C   UNL     1       2.379   1.466  -0.013  0.00  0.00    +0.008 A 
ATOM     13  C   UNL     1       1.169   2.090   0.002  0.00  0.00    +0.001 A 
ATOM     14  C   UNL     1      -0.016   1.357   0.009  0.00  0.00    +0.001 A 
ATOM     15  C   UNL     1       0.002  -0.004   0.002  0.00  0.00    +0.008 A 
ATOM     16  C   UNL     1       1.234  -0.683  -0.013  0.00  0.00    -0.017 A 
ATOM     17  C   UNL     1       1.288  -2.085  -0.022  0.00  0.00    +0.018 A 
ENDBRANCH   6   8
BRANCH   4  18
ATOM     18  C   UNL     1       3.819  -7.179  -1.314  0.00  0.00    -0.025 A 
ATOM     19  C   UNL     1       3.191  -6.931  -2.520  0.00  0.00    +0.005 A 
ATOM     20  C   UNL     1       3.612  -7.581  -3.666  0.00  0.00    +0.000 A 
ATOM     21  C   UNL     1       4.655  -8.486  -3.603  0.00  0.00    +0.000 A 
ATOM     22  C   UNL     1       5.280  -8.738  -2.396  0.00  0.00    +0.000 A 
ATOM     23  C   UNL     1       4.862  -8.085  -1.252  0.00  0.00    +0.005 A 
ENDBRANCH   4  18
BRANCH   1  24
ATOM     24  C   UNL     1      -0.463  -7.075  -0.036  0.00  0.00    +0.215 C 
BRANCH  24  28
ATOM     25  C   UNL     1      -2.312 -10.233  -0.672  0.00  0.00    +0.161 C 
ATOM     26  C   UNL     1      -1.596  -8.986  -1.152  0.00  0.00    +0.244 C 
ATOM     27  O   UNL     1      -1.415  -8.642  -2.300  0.00  0.00    -0.273 OA
ATOM     28  N   UNL     1      -1.200  -8.341  -0.037  0.00  0.00    -0.216 N 
ATOM     29  C   UNL     1      -1.570  -8.996   1.069  0.00  0.00    +0.310 C 
ATOM     30  O   UNL     1      -1.330  -8.608   2.196  0.00  0.00    -0.252 OA
ATOM     31  N   UNL     1      -2.236 -10.132   0.796  0.00  0.00    -0.288 N 
ATOM     32  H   UNL     1      -2.685 -10.915   1.425  0.00  0.00    +0.151 HD
BRANCH  25  33
ATOM     33  C   UNL     1      -1.595 -11.492  -1.163  0.00  0.00    +0.034 C 
BRANCH  33  35
ATOM     34  C   UNL     1      -3.735 -12.772  -1.329  0.00  0.00    +0.007 C 
ATOM     35  C   UNL     1      -2.352 -12.731  -0.677  0.00  0.00    -0.015 C 
ATOM     36  C   UNL     1      -1.570 -13.989  -1.061  0.00  0.00    +0.007 C 
ENDBRANCH  33  35
ENDBRANCH  25  33
ENDBRANCH  24  28
ENDBRANCH   1  24
TORSDOF 6
