REMARK  Name = ZINC67294790
REMARK  7 active torsions:
REMARK  status: ('A' for Active; 'I' for Inactive)
REMARK    1  A    between atoms: C_1  and  C_2
REMARK    2  A    between atoms: C_9  and  C_11
REMARK    3  A    between atoms: N_21  and  C_22
REMARK    4  A    between atoms: C_24  and  O_30
REMARK    5  A    between atoms: C_26  and  O_28
REMARK    6  A    between atoms: O_28  and  C_29
REMARK    7  A    between atoms: O_30  and  C_31
REMARK                            x       y       z     vdW  Elec       q    Type
REMARK                         _______ _______ _______ _____ _____    ______ ____
ROOT
ATOM      1  C   UNL     1      -0.167  -6.284  -0.944  0.00  0.00    +0.098 A 
ATOM      2  C   UNL     1      -0.153  -7.045  -2.106  0.00  0.00    +0.030 A 
ATOM      3  C   UNL     1      -0.201  -8.501  -1.958  0.00  0.00    +0.019 A 
ATOM      4  C   UNL     1       0.077  -9.341  -3.043  0.00  0.00    +0.026 A 
ATOM      5  C   UNL     1       0.028 -10.707  -2.876  0.00  0.00    +0.019 A 
ATOM      6  C   UNL     1      -0.294 -11.252  -1.640  0.00  0.00    +0.019 A 
ATOM      7  C   UNL     1      -0.571 -10.436  -0.562  0.00  0.00    +0.048 A 
ATOM      8  C   UNL     1      -0.530  -9.058  -0.708  0.00  0.00    +0.137 A 
ATOM      9  O   UNL     1      -0.806  -8.244   0.341  0.00  0.00    -0.439 OA
ATOM     10  C   UNL     1      -0.224  -7.016   0.337  0.00  0.00    +0.212 A 
ATOM     11  N   UNL     1       0.269  -6.492   1.439  0.00  0.00    -0.325 N 
ATOM     12 BR   UNL     1       0.401 -11.847  -4.338  0.00  0.00    -0.050 Br
ATOM     13  H   UNL     1       0.768  -5.661   1.400  0.00  0.00    +0.169 HD
ENDROOT
BRANCH   1  22
ATOM     14  C   UNL     1      -0.428   1.518   0.027  0.00  0.00    +0.045 C 
ATOM     15  C   UNL     1      -0.370   0.012   0.025  0.00  0.00    -0.032 A 
ATOM     16  C   UNL     1       0.211  -0.666  -1.039  0.00  0.00    +0.008 A 
ATOM     17  C   UNL     1       0.244  -2.048  -1.001  0.00  0.00    +0.044 A 
ATOM     18  C   UNL     1      -0.303  -2.708   0.094  0.00  0.00    +0.125 A 
ATOM     19  N   UNL     1      -0.849  -2.026   1.089  0.00  0.00    -0.240 NA
ATOM     20  C   UNL     1      -0.889  -0.707   1.082  0.00  0.00    +0.116 A 
ATOM     21  N   UNL     1      -0.277  -4.100   0.145  0.00  0.00    -0.266 N 
ATOM     22  C   UNL     1      -0.121  -4.813  -0.988  0.00  0.00    +0.254 C 
ATOM     23  O   UNL     1       0.057  -4.241  -2.047  0.00  0.00    -0.270 OA
ATOM     24  H   UNL     1      -0.371  -4.556   0.996  0.00  0.00    +0.157 HD
ENDBRANCH   1  22
BRANCH  11  25
ATOM     25  C   UNL     1       0.079  -7.120   2.639  0.00  0.00    +0.049 A 
ATOM     26  C   UNL     1      -1.179  -7.627   2.973  0.00  0.00    +0.071 A 
ATOM     27  C   UNL     1      -1.366  -8.262   4.189  0.00  0.00    +0.126 A 
ATOM     28  C   UNL     1      -0.307  -8.395   5.075  0.00  0.00    +0.091 A 
ATOM     29  C   UNL     1       0.945  -7.893   4.747  0.00  0.00    +0.126 A 
ATOM     30  C   UNL     1       1.144  -7.262   3.531  0.00  0.00    +0.071 A 
BRANCH  29  31
ATOM     31  O   UNL     1       1.979  -8.027   5.619  0.00  0.00    -0.495 OA
ATOM     32  C   UNL     1       1.705  -8.694   6.853  0.00  0.00    +0.277 C 
ENDBRANCH  29  31
BRANCH  27  33
ATOM     33  O   UNL     1      -2.590  -8.754   4.515  0.00  0.00    -0.495 OA
ATOM     34  C   UNL     1      -2.713  -9.397   5.785  0.00  0.00    +0.277 C 
ENDBRANCH  27  33
ENDBRANCH  11  25
TORSDOF 4
