REMARK  Name = ZINC21318795
REMARK  10 active torsions:
REMARK  status: ('A' for Active; 'I' for Inactive)
REMARK    1  A    between atoms: C_1  and  O_2
REMARK    2  A    between atoms: O_2  and  C_3
REMARK    3  A    between atoms: C_7  and  C_10
REMARK    4  A    between atoms: C_8  and  O_9
REMARK    5  A    between atoms: N_11  and  N_12
REMARK    6  A    between atoms: C_16  and  S_19
REMARK    7  A    between atoms: N_17  and  N_18
REMARK    8  A    between atoms: S_19  and  C_20
REMARK    9  A    between atoms: C_20  and  C_21
REMARK   10  A    between atoms: N_23  and  C_24
REMARK                            x       y       z     vdW  Elec       q    Type
REMARK                         _______ _______ _______ _____ _____    ______ ____
ROOT
ATOM      1  N   UNL     1      -2.949   1.529   0.028  0.00  0.00    -0.204 N 
ATOM      2  C   UNL     1      -2.089   1.709  -1.046  0.00  0.00    +0.254 A 
ATOM      3  N   UNL     1      -2.420   2.160  -2.231  0.00  0.00    -0.109 NA
ATOM      4  N   UNL     1      -1.264   2.190  -3.022  0.00  0.00    -0.119 NA
ATOM      5  C   UNL     1      -0.262   1.762  -2.291  0.00  0.00    +0.210 A 
ATOM      6  N   UNL     1      -0.747   1.448  -1.053  0.00  0.00    -0.211 N 
ATOM      7  H   UNL     1      -2.563   1.143   0.983  0.00  0.00    +0.177 HD
ENDROOT
BRANCH   6   8
ATOM      8  N   UNL     1      -0.017   0.964  -0.005  0.00  0.00    -0.294 N 
ATOM      9  H   UNL     1       1.063   0.789  -0.120  0.00  0.00    +0.163 HD
ATOM     10  H   UNL     1      -0.509   0.748   0.955  0.00  0.00    +0.163 HD
ENDBRANCH   6   8
BRANCH   1  12
ATOM     11  C   UNL     1      -5.113   1.670   0.901  0.00  0.00    +0.142 C 
ATOM     12  N   UNL     1      -4.309   1.839  -0.104  0.00  0.00    -0.187 NA
BRANCH  11  17
ATOM     13  C   UNL     1      -8.389   2.791  -0.572  0.00  0.00    +0.162 A 
ATOM     14  C   UNL     1      -9.240   2.608   0.508  0.00  0.00    +0.049 A 
ATOM     15  C   UNL     1      -8.751   2.122   1.708  0.00  0.00    +0.004 A 
ATOM     16  C   UNL     1      -7.413   1.816   1.842  0.00  0.00    +0.013 A 
ATOM     17  C   UNL     1      -6.544   1.996   0.762  0.00  0.00    +0.040 A 
ATOM     18  C   UNL     1      -7.038   2.493  -0.450  0.00  0.00    +0.167 A 
BRANCH  13  20
ATOM     19  C   UNL     1     -10.274   3.561  -1.800  0.00  0.00    +0.277 C 
ATOM     20  O   UNL     1      -8.877   3.269  -1.748  0.00  0.00    -0.491 OA
ENDBRANCH  13  20
BRANCH  18  21
ATOM     21  O   UNL     1      -6.200   2.677  -1.504  0.00  0.00    -0.503 OA
ATOM     22  H   UNL     1      -5.131   2.440  -1.405  0.00  0.00    +0.292 HD
ENDBRANCH  18  21
ENDBRANCH  11  17
ENDBRANCH   1  12
BRANCH   5  23
ATOM     23  S   UNL     1       1.413   1.613  -2.816  0.00  0.00    -0.075 S 
BRANCH  23  24
ATOM     24  C   UNL     1       1.386   2.184  -4.538  0.00  0.00    +0.173 C 
BRANCH  24  25
ATOM     25  C   UNL     1       2.776   2.107  -5.114  0.00  0.00    +0.228 C 
ATOM     26  O   UNL     1       3.695   1.707  -4.431  0.00  0.00    -0.275 OA
ATOM     27  N   UNL     1       2.998   2.484  -6.389  0.00  0.00    -0.284 N 
ATOM     28  H   UNL     1       2.155   2.777  -7.032  0.00  0.00    +0.155 HD
BRANCH  27  29
ATOM     29  C   UNL     1       4.303   2.502  -6.896  0.00  0.00    +0.047 A 
ATOM     30  C   UNL     1       5.225   1.551  -6.480  0.00  0.00    +0.024 A 
ATOM     31  C   UNL     1       6.510   1.569  -6.985  0.00  0.00    +0.002 A 
ATOM     32  C   UNL     1       6.883   2.539  -7.897  0.00  0.00    +0.001 A 
ATOM     33  C   UNL     1       5.969   3.490  -8.311  0.00  0.00    +0.017 A 
ATOM     34  C   UNL     1       4.680   3.475  -7.813  0.00  0.00    +0.039 A 
ATOM     35 BR   UNL     1       3.431   4.778  -8.378  0.00  0.00    -0.048 Br
ENDBRANCH  27  29
ENDBRANCH  24  25
ENDBRANCH  23  24
ENDBRANCH   5  23
TORSDOF 9
