REMARK  Name = ZINC45590484
REMARK  6 active torsions:
REMARK  status: ('A' for Active; 'I' for Inactive)
REMARK    1  A    between atoms: C_1  and  N_2
REMARK    2  A    between atoms: C_6  and  C_7
REMARK    3  A    between atoms: N_9  and  N_10
REMARK    4  A    between atoms: C_11  and  C_13
REMARK    5  A    between atoms: N_16  and  C_22
REMARK    6  A    between atoms: C_17  and  C_18
REMARK                            x       y       z     vdW  Elec       q    Type
REMARK                         _______ _______ _______ _____ _____    ______ ____
ROOT
ATOM      1  C   UNL     1      -0.605   3.134   5.793  0.00  0.00    +0.088 A 
ATOM      2  C   UNL     1      -0.406   2.335   6.942  0.00  0.00    +0.148 A 
ATOM      3  N   UNL     1      -0.482   3.108   7.990  0.00  0.00    -0.174 NA
ATOM      4  N   UNL     1      -0.731   4.419   7.571  0.00  0.00    -0.227 N 
ATOM      5  C   UNL     1      -0.800   4.431   6.227  0.00  0.00    +0.159 A 
ENDROOT
BRANCH   4   6
ATOM      6  C   UNL     1      -0.879   5.534   8.408  0.00  0.00    +0.066 A 
ATOM      7  C   UNL     1      -0.420   6.778   7.997  0.00  0.00    +0.029 A 
ATOM      8  C   UNL     1      -0.568   7.874   8.824  0.00  0.00    +0.022 A 
ATOM      9  C   UNL     1      -1.171   7.733  10.061  0.00  0.00    +0.041 A 
ATOM     10  C   UNL     1      -1.628   6.494  10.474  0.00  0.00    +0.022 A 
ATOM     11  C   UNL     1      -1.489   5.396   9.648  0.00  0.00    +0.029 A 
ATOM     12 CL   UNL     1      -1.353   9.113  11.099  0.00  0.00    -0.084 Cl
ENDBRANCH   4   6
BRANCH   1  14
ATOM     13  N   UNL     1      -0.397   1.369   4.115  0.00  0.00    -0.230 N 
ATOM     14  C   UNL     1      -0.600   2.672   4.394  0.00  0.00    +0.264 C 
ATOM     15  O   UNL     1      -0.780   3.466   3.490  0.00  0.00    -0.269 OA
ATOM     16  H   UNL     1      -0.253   0.736   4.836  0.00  0.00    +0.173 HD
BRANCH  13  19
ATOM     17  C   UNL     1      -0.188  -0.374   2.507  0.00  0.00    +0.277 C 
ATOM     18  O   UNL     1      -0.101  -1.183   3.412  0.00  0.00    -0.267 OA
ATOM     19  N   UNL     1      -0.392   0.929   2.785  0.00  0.00    -0.229 N 
ATOM     20  H   UNL     1      -0.535   1.562   2.064  0.00  0.00    +0.173 HD
BRANCH  17  26
ATOM     21  C   UNL     1       0.069  -3.305   1.538  0.00  0.00    +0.149 C 
ATOM     22  N   UNL     1       0.042  -2.118   0.680  0.00  0.00    -0.345 N 
ATOM     23  C   UNL     1       0.121  -2.119  -0.674  0.00  0.00    +0.101 A 
ATOM     24  C   UNL     1       0.064  -0.840  -1.117  0.00  0.00    +0.036 A 
ATOM     25  C   UNL     1      -0.054  -0.004  -0.001  0.00  0.00    +0.047 A 
ATOM     26  C   UNL     1      -0.072  -0.817   1.113  0.00  0.00    +0.107 A 
ATOM     27 BR   UNL     1       0.133  -0.283  -2.922  0.00  0.00    -0.049 Br
ENDBRANCH  17  26
ENDBRANCH  13  19
ENDBRANCH   1  14
BRANCH   5  28
ATOM     28  C   UNL     1      -1.047   5.636   5.356  0.00  0.00    +0.435 C 
ATOM     29  F   UNL     1       0.176   6.226   5.019  0.00  0.00    -0.164 F 
ATOM     30  F   UNL     1      -1.711   5.240   4.190  0.00  0.00    -0.164 F 
ATOM     31  F   UNL     1      -1.835   6.560   6.051  0.00  0.00    -0.164 F 
ENDBRANCH   5  28
TORSDOF 5
