REMARK  Name = ZINC35868059
REMARK  8 active torsions:
REMARK  status: ('A' for Active; 'I' for Inactive)
REMARK    1  A    between atoms: C_1  and  C_2
REMARK    2  A    between atoms: C_2  and  C_3
REMARK    3  A    between atoms: C_3  and  C_4
REMARK    4  A    between atoms: C_4  and  N_5
REMARK    5  A    between atoms: C_21  and  C_23
REMARK    6  A    between atoms: C_23  and  C_24
REMARK    7  A    between atoms: N_31  and  C_34
REMARK    8  A    between atoms: C_34  and  C_35
REMARK                            x       y       z     vdW  Elec       q    Type
REMARK                         _______ _______ _______ _____ _____    ______ ____
ROOT
ATOM      1  N   UNL     1       3.632  -2.676  -1.166  0.00  0.00    -0.299 N 
ATOM      2  C   UNL     1       2.962  -2.710  -2.335  0.00  0.00    +0.302 C 
ATOM      3  O   UNL     1       1.778  -2.437  -2.365  0.00  0.00    -0.253 OA
ATOM      4  N   UNL     1       3.605  -3.047  -3.471  0.00  0.00    -0.283 N 
ATOM      5  C   UNL     1       5.005  -3.491  -3.434  0.00  0.00    +0.128 C 
ATOM      6  C   UNL     1       5.103  -4.862  -4.114  0.00  0.00    +0.125 C 
ATOM      7  N   UNL     1       4.416  -4.793  -5.411  0.00  0.00    -0.312 N 
ATOM      8  C   UNL     1       3.016  -4.349  -5.448  0.00  0.00    +0.125 C 
ATOM      9  C   UNL     1       2.916  -2.983  -4.768  0.00  0.00    +0.128 C 
ATOM     10  C   UNL     1       5.076  -5.139  -6.577  0.00  0.00    +0.133 A 
ATOM     11  C   UNL     1       5.130  -6.497  -6.998  0.00  0.00    +0.051 A 
ATOM     12  C   UNL     1       4.562  -7.681  -6.356  0.00  0.00    -0.022 A 
ATOM     13  C   UNL     1       4.760  -8.867  -6.970  0.00  0.00    +0.010 A 
ATOM     14  S   UNL     1       5.699  -8.485  -8.421  0.00  0.00    -0.072 S 
ATOM     15  C   UNL     1       5.829  -6.729  -8.201  0.00  0.00    +0.114 A 
ATOM     16  N   UNL     1       6.388  -5.743  -8.874  0.00  0.00    -0.224 NA
ATOM     17  C   UNL     1       6.304  -4.503  -8.433  0.00  0.00    +0.137 A 
ATOM     18  N   UNL     1       5.660  -4.211  -7.317  0.00  0.00    -0.216 NA
ATOM     19  C   UNL     1       4.279 -10.206  -6.501  0.00  0.00    +0.127 C 
ATOM     20  N   UNL     1       3.865 -10.080  -5.091  0.00  0.00    -0.298 NA
ATOM     21  C   UNL     1       2.977  -8.923  -4.914  0.00  0.00    +0.089 C 
ATOM     22  C   UNL     1       3.774  -7.623  -5.050  0.00  0.00    +0.052 C 
ATOM     23  H   UNL     1       4.558  -2.963  -1.129  0.00  0.00    +0.150 HD
ENDROOT
BRANCH  20  24
ATOM     24  C   UNL     1       3.222 -11.314  -4.620  0.00  0.00    +0.081 C 
ATOM     25  C   UNL     1       4.248 -12.448  -4.598  0.00  0.00    +0.020 C 
ENDBRANCH  20  24
BRANCH   1  26
ATOM     26  C   UNL     1       2.962  -2.204   0.048  0.00  0.00    +0.106 C 
BRANCH  26  27
ATOM     27  C   UNL     1       3.938  -2.265   1.225  0.00  0.00    +0.018 C 
BRANCH  27  29
ATOM     28  C   UNL     1       4.214  -1.834   3.671  0.00  0.00    +0.004 C 
ATOM     29  C   UNL     1       3.238  -1.773   2.494  0.00  0.00    -0.002 C 
ENDBRANCH  27  29
ENDBRANCH  26  27
ENDBRANCH   1  26
BRANCH  17  30
ATOM     30  C   UNL     1       6.952  -3.394  -9.222  0.00  0.00    +0.111 C 
BRANCH  30  31
ATOM     31  C   UNL     1       5.965  -2.844 -10.219  0.00  0.00    -0.040 A 
ATOM     32  C   UNL     1       5.884  -3.392 -11.485  0.00  0.00    +0.004 A 
ATOM     33  C   UNL     1       4.979  -2.887 -12.400  0.00  0.00    +0.000 A 
ATOM     34  C   UNL     1       4.154  -1.835 -12.048  0.00  0.00    +0.000 A 
ATOM     35  C   UNL     1       4.235  -1.288 -10.781  0.00  0.00    +0.000 A 
ATOM     36  C   UNL     1       5.137  -1.795  -9.865  0.00  0.00    +0.004 A 
ENDBRANCH  30  31
ENDBRANCH  17  30
TORSDOF 6
