REMARK  Name = ZINC20562781
REMARK  9 active torsions:
REMARK  status: ('A' for Active; 'I' for Inactive)
REMARK    1  A    between atoms: C_1  and  C_2
REMARK    2  A    between atoms: C_9  and  N_15
REMARK    3  A    between atoms: C_10  and  C_11
REMARK    4  A    between atoms: C_11  and  O_13
REMARK    5  A    between atoms: O_13  and  C_14
REMARK    6  A    between atoms: N_15  and  C_16
REMARK    7  A    between atoms: C_16  and  N_18
REMARK    8  A    between atoms: N_18  and  N_19
REMARK    9  A    between atoms: C_20  and  C_22
REMARK                            x       y       z     vdW  Elec       q    Type
REMARK                         _______ _______ _______ _____ _____    ______ ____
ROOT
ATOM      1  C   UNL     1      -2.374  -3.195  -2.897  0.00  0.00    +0.151 C 
ATOM      2  S   UNL     1      -2.057  -4.876  -2.842  0.00  0.00    -0.017 S 
ENDROOT
BRANCH   1   3
ATOM      3  N   UNL     1      -1.503  -2.326  -2.347  0.00  0.00    -0.290 N 
ATOM      4  H   UNL     1      -1.707  -1.246  -2.381  0.00  0.00    +0.154 HD
BRANCH   3  12
ATOM      5  C   UNL     1       4.918  -5.369   0.924  0.00  0.00    +0.008 C 
ATOM      6  C   UNL     1       3.995  -4.427   0.148  0.00  0.00    -0.009 C 
ATOM      7  C   UNL     1       3.659  -3.207   1.010  0.00  0.00    +0.008 C 
ATOM      8  C   UNL     1       2.947  -2.151   0.163  0.00  0.00    +0.037 C 
ATOM      9  C   UNL     1       1.770  -2.805  -0.550  0.00  0.00    -0.021 A 
ATOM     10  C   UNL     1       1.700  -4.146  -0.689  0.00  0.00    -0.004 A 
ATOM     11  S   UNL     1       0.187  -4.432  -1.563  0.00  0.00    -0.077 S 
ATOM     12  C   UNL     1      -0.350  -2.794  -1.738  0.00  0.00    +0.086 A 
ATOM     13  C   UNL     1       0.659  -2.063  -1.123  0.00  0.00    +0.091 A 
ATOM     14  C   UNL     1       2.692  -5.158  -0.205  0.00  0.00    +0.046 C 
BRANCH  13  15
ATOM     15  C   UNL     1       0.601  -0.603  -1.048  0.00  0.00    +0.342 C 
ATOM     16  O   UNL     1       1.094   0.071  -1.933  0.00  0.00    -0.245 OA
BRANCH  15  17
ATOM     17  O   UNL     1       0.002  -0.004   0.002  0.00  0.00    -0.464 OA
ATOM     18  C   UNL     1      -0.018   1.448   0.010  0.00  0.00    +0.280 C 
ENDBRANCH  15  17
ENDBRANCH  13  15
ENDBRANCH   3  12
ENDBRANCH   1   3
BRANCH   1  19
ATOM     19  N   UNL     1      -3.496  -2.740  -3.489  0.00  0.00    -0.245 N 
ATOM     20  H   UNL     1      -4.208  -3.449  -3.937  0.00  0.00    +0.172 HD
BRANCH  19  21
ATOM     21  N   UNL     1      -3.756  -1.364  -3.533  0.00  0.00    -0.231 N 
ATOM     22  C   UNL     1      -4.878  -0.908  -4.125  0.00  0.00    +0.261 C 
ATOM     23  O   UNL     1      -5.665  -1.692  -4.621  0.00  0.00    -0.269 OA
ATOM     24  H   UNL     1      -3.045  -0.655  -3.084  0.00  0.00    +0.173 HD
BRANCH  22  25
ATOM     25  C   UNL     1      -5.151   0.537  -4.171  0.00  0.00    +0.049 A 
ATOM     26  C   UNL     1      -4.279   1.444  -3.612  0.00  0.00    +0.058 A 
ATOM     27  S   UNL     1      -5.036   2.970  -3.928  0.00  0.00    -0.101 S 
ATOM     28  C   UNL     1      -6.481   2.399  -4.776  0.00  0.00    -0.006 A 
ATOM     29  C   UNL     1      -6.351   1.053  -4.803  0.00  0.00    -0.025 A 
ATOM     30  C   UNL     1      -7.412   0.176  -5.457  0.00  0.00    +0.037 C 
ATOM     31  C   UNL     1      -8.703   0.985  -5.594  0.00  0.00    +0.005 C 
ATOM     32  C   UNL     1      -8.413   2.315  -6.295  0.00  0.00    +0.005 C 
ATOM     33  C   UNL     1      -7.604   3.210  -5.344  0.00  0.00    +0.043 C 
ENDBRANCH  22  25
ENDBRANCH  19  21
ENDBRANCH   1  19
TORSDOF 7
