REMARK  Name = ZINC06078538
REMARK  10 active torsions:
REMARK  status: ('A' for Active; 'I' for Inactive)
REMARK    1  A    between atoms: C_1  and  C_2
REMARK    2  A    between atoms: C_2  and  N_3
REMARK    3  A    between atoms: N_3  and  C_4
REMARK    4  A    between atoms: N_3  and  C_6
REMARK    5  A    between atoms: C_4  and  C_5
REMARK    6  A    between atoms: C_18  and  N_37
REMARK    7  A    between atoms: C_19  and  C_35
REMARK    8  A    between atoms: C_20  and  C_22
REMARK    9  A    between atoms: C_25  and  C_34
REMARK   10  A    between atoms: C_28  and  C_33
REMARK                            x       y       z     vdW  Elec       q    Type
REMARK                         _______ _______ _______ _____ _____    ______ ____
ROOT
ATOM      1  C   UNL     1      -1.228   3.139   0.030  0.00  0.00    +0.033 A 
ATOM      2  C   UNL     1      -1.202   1.744   0.017  0.00  0.00    +0.024 A 
ATOM      3  C   UNL     1      -0.013   1.076   0.008  0.00  0.00    +0.017 A 
ATOM      4  C   UNL     1       1.187   1.793   0.000  0.00  0.00    +0.060 A 
ATOM      5  C   UNL     1       1.169   3.199   0.008  0.00  0.00    +0.144 A 
ATOM      6  C   UNL     1      -0.046   3.865   0.023  0.00  0.00    +0.070 A 
ATOM      7  O   UNL     1       2.333   3.885   0.002  0.00  0.00    -0.422 OA
ATOM      8  C   UNL     1       3.520   3.259  -0.012  0.00  0.00    +0.345 A 
ATOM      9  O   UNL     1       4.541   3.925  -0.016  0.00  0.00    -0.245 OA
ATOM     10  C   UNL     1       3.619   1.859  -0.022  0.00  0.00    +0.092 A 
ATOM     11  C   UNL     1       2.484   1.102  -0.016  0.00  0.00    +0.152 A 
ATOM     12  O   UNL     1       2.534  -0.244  -0.025  0.00  0.00    -0.440 OA
ATOM     13  C   UNL     1       3.664  -0.876   0.339  0.00  0.00    +0.199 C 
ATOM     14  C   UNL     1       4.860  -0.240   0.353  0.00  0.00    +0.098 C 
ATOM     15  C   UNL     1       4.975   1.206  -0.040  0.00  0.00    +0.108 C 
ENDROOT
BRANCH  15  16
ATOM     16  C   UNL     1       5.558   1.302  -1.426  0.00  0.00    +0.003 A 
ATOM     17  C   UNL     1       4.915   0.718  -2.480  0.00  0.00    +0.017 A 
ATOM     18  C   UNL     1       5.492   0.836  -3.758  0.00  0.00    +0.004 A 
ATOM     19  C   UNL     1       4.885   0.266  -4.889  0.00  0.00    -0.041 A 
ATOM     20  C   UNL     1       5.477   0.396  -6.108  0.00  0.00    +0.004 A 
ATOM     21  C   UNL     1       6.678   1.089  -6.249  0.00  0.00    +0.006 A 
ATOM     22  C   UNL     1       7.293   1.655  -5.175  0.00  0.00    -0.024 A 
ATOM     23  C   UNL     1       6.713   1.541  -3.900  0.00  0.00    +0.076 A 
ATOM     24  N   UNL     1       7.295   2.086  -2.826  0.00  0.00    -0.235 NA
ATOM     25  C   UNL     1       6.758   1.982  -1.633  0.00  0.00    +0.134 A 
ATOM     26 CL   UNL     1       7.561   2.712  -0.278  0.00  0.00    -0.062 Cl
ATOM     27  C   UNL     1       8.591   2.399  -5.352  0.00  0.00    +0.046 C 
ATOM     28  C   UNL     1       3.587  -0.486  -4.754  0.00  0.00    +0.044 C 
ENDBRANCH  15  16
BRANCH  13  29
ATOM     29  N   UNL     1       3.604  -2.198   0.704  0.00  0.00    -0.328 N 
ATOM     30  H   UNL     1       2.754  -2.665   0.698  0.00  0.00    +0.145 HD
ATOM     31  H   UNL     1       4.412  -2.666   0.968  0.00  0.00    +0.145 HD
ENDBRANCH  13  29
BRANCH  14  32
ATOM     32  C   UNL     1       6.034  -0.958   0.750  0.00  0.00    +0.101 C 
ATOM     33  N   UNL     1       6.965  -1.527   1.065  0.00  0.00    -0.191 NA
ENDBRANCH  14  32
BRANCH   1  34
ATOM     34  N   UNL     1      -2.450   3.807   0.044  0.00  0.00    -0.330 N 
BRANCH  34  36
ATOM     35  C   UNL     1      -4.124   2.774   1.498  0.00  0.00    +0.024 C 
ATOM     36  C   UNL     1      -3.701   3.046   0.052  0.00  0.00    +0.102 C 
ENDBRANCH  34  36
BRANCH  34  37
ATOM     37  C   UNL     1      -2.483   5.272   0.052  0.00  0.00    +0.102 C 
ATOM     38  C   UNL     1      -2.508   5.788  -1.388  0.00  0.00    +0.024 C 
ENDBRANCH  34  37
ENDBRANCH   1  34
TORSDOF 6
