REMARK  Name = ZINC16489086
REMARK  14 active torsions:
REMARK  status: ('A' for Active; 'I' for Inactive)
REMARK    1  A    between atoms: C_1  and  C_2
REMARK    2  A    between atoms: C_2  and  C_3
REMARK    3  A    between atoms: C_3  and  C_5
REMARK    4  A    between atoms: C_3  and  N_6
REMARK    5  A    between atoms: N_6  and  C_7
REMARK    6  A    between atoms: C_7  and  C_8
REMARK    7  A    between atoms: C_18  and  C_20
REMARK    8  A    between atoms: N_28  and  C_29
REMARK    9  A    between atoms: C_30  and  C_38
REMARK   10  A    between atoms: C_34  and  C_35
REMARK   11  A    between atoms: C_35  and  C_36
REMARK   12  A    between atoms: C_35  and  C_37
REMARK   13  A    between atoms: C_38  and  C_39
REMARK   14  A    between atoms: C_38  and  C_40
REMARK                            x       y       z     vdW  Elec       q    Type
REMARK                         _______ _______ _______ _____ _____    ______ ____
ROOT
ATOM      1  N   UNL     1      -0.111   3.783   0.434  0.00  0.00    -0.274 N 
ATOM      2  C   UNL     1       0.055   4.548  -0.663  0.00  0.00    +0.307 C 
ATOM      3  O   UNL     1       0.931   4.281  -1.464  0.00  0.00    -0.252 OA
ATOM      4  N   UNL     1      -0.749   5.609  -0.873  0.00  0.00    -0.269 N 
ATOM      5  H   UNL     1      -1.404   5.861  -0.203  0.00  0.00    +0.156 HD
ENDROOT
BRANCH   4   6
ATOM      6  C   UNL     1      -0.640   6.346  -2.058  0.00  0.00    +0.042 A 
ATOM      7  C   UNL     1      -0.143   7.643  -2.026  0.00  0.00    -0.023 A 
ATOM      8  C   UNL     1      -0.032   8.366  -3.198  0.00  0.00    +0.006 A 
ATOM      9  C   UNL     1      -0.424   7.805  -4.399  0.00  0.00    +0.001 A 
ATOM     10  C   UNL     1      -0.924   6.516  -4.433  0.00  0.00    +0.006 A 
ATOM     11  C   UNL     1      -1.033   5.785  -3.265  0.00  0.00    -0.023 A 
BRANCH  11  12
ATOM     12  C   UNL     1      -1.577   4.380  -3.303  0.00  0.00    +0.015 C 
ATOM     13  C   UNL     1      -2.971   4.390  -3.932  0.00  0.00    +0.012 C 
ATOM     14  C   UNL     1      -0.648   3.495  -4.136  0.00  0.00    +0.012 C 
ENDBRANCH  11  12
BRANCH   7  15
ATOM     15  C   UNL     1       0.279   8.258  -0.717  0.00  0.00    +0.015 C 
ATOM     16  C   UNL     1       1.730   8.730  -0.820  0.00  0.00    +0.012 C 
ATOM     17  C   UNL     1      -0.625   9.451  -0.399  0.00  0.00    +0.012 C 
ENDBRANCH   7  15
ENDBRANCH   4   6
BRANCH   1  18
ATOM     18  C   UNL     1      -1.092   4.166   1.452  0.00  0.00    +0.075 C 
ATOM     19  C   UNL     1      -0.370   4.480   2.764  0.00  0.00    +0.028 C 
BRANCH  18  21
ATOM     20  C   UNL     1      -2.891   2.787   0.400  0.00  0.00    +0.006 C 
ATOM     21  C   UNL     1      -2.074   3.013   1.674  0.00  0.00    +0.019 C 
ENDBRANCH  18  21
ENDBRANCH   1  18
BRANCH   1  22
ATOM     22  C   UNL     1       0.689   2.568   0.608  0.00  0.00    +0.205 C 
BRANCH  22  23
ATOM     23  C   UNL     1       2.015   2.925   1.230  0.00  0.00    +0.234 C 
ATOM     24  O   UNL     1       2.305   4.088   1.413  0.00  0.00    -0.274 OA
ATOM     25  N   UNL     1       2.880   1.952   1.578  0.00  0.00    -0.289 N 
ATOM     26  C   UNL     1       2.536   0.538   1.366  0.00  0.00    +0.114 C 
ATOM     27  C   UNL     1       3.516  -0.042   0.328  0.00  0.00    +0.062 C 
ATOM     28  C   UNL     1       4.894   0.439   0.650  0.00  0.00    -0.003 A 
ATOM     29  C   UNL     1       5.250   1.471   1.462  0.00  0.00    -0.012 A 
ATOM     30  C   UNL     1       6.615   1.722   1.591  0.00  0.00    +0.013 A 
ATOM     31  C   UNL     1       7.510   0.955   0.928  0.00  0.00    +0.046 A 
ATOM     32  S   UNL     1       6.445  -0.190   0.065  0.00  0.00    -0.101 S 
ATOM     33  C   UNL     1       4.177   2.288   2.179  0.00  0.00    +0.137 C 
BRANCH  33  34
ATOM     34  C   UNL     1       4.166   1.940   3.645  0.00  0.00    -0.023 A 
ATOM     35  C   UNL     1       4.028   0.623   4.042  0.00  0.00    +0.006 A 
ATOM     36  C   UNL     1       4.022   0.303   5.386  0.00  0.00    +0.000 A 
ATOM     37  C   UNL     1       4.145   1.301   6.335  0.00  0.00    +0.000 A 
ATOM     38  C   UNL     1       4.277   2.619   5.939  0.00  0.00    +0.000 A 
ATOM     39  C   UNL     1       4.288   2.938   4.594  0.00  0.00    +0.006 A 
ENDBRANCH  33  34
ENDBRANCH  22  23
ENDBRANCH   1  22
TORSDOF 8
