REMARK  Name = ZINC16810765
REMARK  6 active torsions:
REMARK  status: ('A' for Active; 'I' for Inactive)
REMARK    1  A    between atoms: C_1  and  C_2
REMARK    2  A    between atoms: C_7  and  S_24
REMARK    3  A    between atoms: C_12  and  C_14
REMARK    4  A    between atoms: C_14  and  O_15
REMARK    5  A    between atoms: O_15  and  C_16
REMARK    6  A    between atoms: S_24  and  N_27
REMARK                            x       y       z     vdW  Elec       q    Type
REMARK                         _______ _______ _______ _____ _____    ______ ____
ROOT
ATOM      1  C   UNL     1      -2.051   1.885   1.277  0.00  0.00    +0.029 C 
ATOM      2  C   UNL     1      -1.228   2.167   0.019  0.00  0.00    +0.083 C 
ATOM      3  C   UNL     1      -0.728   3.621   0.027  0.00  0.00    +0.059 C 
ATOM      4  C   UNL     1       0.780   3.504   0.013  0.00  0.00    -0.022 A 
ATOM      5  C   UNL     1       1.764   4.475   0.008  0.00  0.00    +0.034 A 
ATOM      6  C   UNL     1       3.097   4.111  -0.006  0.00  0.00    +0.105 A 
ATOM      7  C   UNL     1       3.446   2.773  -0.016  0.00  0.00    +0.030 A 
ATOM      8  C   UNL     1       2.468   1.802  -0.011  0.00  0.00    +0.026 A 
ATOM      9  C   UNL     1       1.119   2.161   0.003  0.00  0.00    +0.040 A 
ATOM     10  N   UNL     1      -0.016   1.344   0.009  0.00  0.00    -0.265 N 
ATOM     11  C   UNL     1       0.002  -0.004   0.002  0.00  0.00    +0.258 C 
ATOM     12  O   UNL     1      -1.040  -0.625   0.008  0.00  0.00    -0.272 OA
ENDROOT
BRANCH   6  13
ATOM     13  S   UNL     1       4.350   5.350  -0.012  0.00  0.00    +0.056 S 
ATOM     14  O   UNL     1       3.769   6.519   0.550  0.00  0.00    -0.153 OA
ATOM     15  O   UNL     1       5.520   4.747   0.525  0.00  0.00    -0.153 OA
BRANCH  13  16
ATOM     16  N   UNL     1       4.684   5.702  -1.595  0.00  0.00    -0.204 NA
ATOM     17  H   UNL     1       4.209   5.242  -2.305  0.00  0.00    +0.144 HD
ATOM     18  H   UNL     1       5.355   6.368  -1.813  0.00  0.00    +0.144 HD
ENDBRANCH  13  16
ENDBRANCH   6  13
BRANCH  11  19
ATOM     19  C   UNL     1       1.317  -0.740  -0.014  0.00  0.00    +0.325 C 
BRANCH  19  20
ATOM     20  O   UNL     1       1.075  -2.148  -0.019  0.00  0.00    -0.482 OA
BRANCH  20  21
ATOM     21  C   UNL     1       2.164  -2.961  -0.034  0.00  0.00    +0.135 A 
ATOM     22  C   UNL     1       3.439  -2.415  -0.042  0.00  0.00    +0.048 A 
ATOM     23  C   UNL     1       4.545  -3.243  -0.056  0.00  0.00    +0.023 A 
ATOM     24  C   UNL     1       4.382  -4.617  -0.062  0.00  0.00    +0.042 A 
ATOM     25  C   UNL     1       3.111  -5.165  -0.053  0.00  0.00    +0.039 A 
ATOM     26  C   UNL     1       2.002  -4.340  -0.034  0.00  0.00    +0.061 A 
ATOM     27 BR   UNL     1       0.266  -5.088  -0.015  0.00  0.00    -0.046 Br
ATOM     28 CL   UNL     1       5.773  -5.655  -0.081  0.00  0.00    -0.084 Cl
ENDBRANCH  20  21
ENDBRANCH  19  20
ENDBRANCH  11  19
TORSDOF 5
