REMARK  Name = ZINC33937178
REMARK  13 active torsions:
REMARK  status: ('A' for Active; 'I' for Inactive)
REMARK    1  A    between atoms: C_1  and  C_2
REMARK    2  A    between atoms: C_2  and  C_3
REMARK    3  A    between atoms: C_3  and  C_5
REMARK    4  A    between atoms: C_3  and  N_17
REMARK    5  A    between atoms: N_9  and  C_10
REMARK    6  A    between atoms: C_10  and  C_11
REMARK    7  A    between atoms: N_17  and  C_18
REMARK    8  A    between atoms: N_17  and  C_27
REMARK    9  A    between atoms: C_18  and  C_19
REMARK   10  A    between atoms: C_19  and  C_20
REMARK   11  A    between atoms: C_25  and  C_26
REMARK   12  A    between atoms: C_27  and  C_28
REMARK   13  A    between atoms: C_34  and  C_40
REMARK                            x       y       z     vdW  Elec       q    Type
REMARK                         _______ _______ _______ _____ _____    ______ ____
ROOT
ATOM      1  N   UNL     1      -1.130  -0.358   3.253  0.00  0.00    +0.389 N 
ATOM      2  H   UNL     1      -2.019  -0.807   3.415  0.00  0.00    -0.080 HD
ENDROOT
BRANCH   1   3
ATOM      3  C   UNL     1      -0.955  -0.125   1.813  0.00  0.00    +0.003 C 
BRANCH   3   4
ATOM      4  C   UNL     1       0.381   0.529   1.569  0.00  0.00    +0.138 A 
ATOM      5  N   UNL     1       1.348   0.683   2.441  0.00  0.00    -0.115 NA
ATOM      6  N   UNL     1       2.322   1.286   1.851  0.00  0.00    -0.023 NA
ATOM      7  N   UNL     1       2.002   1.520   0.627  0.00  0.00    -0.044 NA
ATOM      8  N   UNL     1       0.815   1.064   0.413  0.00  0.00    -0.228 N 
BRANCH   8   9
ATOM      9  C   UNL     1       0.075   1.120  -0.851  0.00  0.00    +0.178 C 
BRANCH   9  10
ATOM     10  C   UNL     1      -0.588   2.492  -0.993  0.00  0.00    +0.140 C 
ATOM     11  C   UNL     1      -1.392   2.566  -2.315  0.00  0.00    +0.035 C 
ATOM     12  C   UNL     1      -2.435   3.662  -1.965  0.00  0.00    +0.031 C 
ATOM     13  C   UNL     1      -2.685   3.409  -0.463  0.00  0.00    +0.160 C 
ATOM     14  O   UNL     1      -1.556   2.688   0.050  0.00  0.00    -0.375 OA
ENDBRANCH   9  10
ENDBRANCH   8   9
ENDBRANCH   3   4
BRANCH   3  16
ATOM     15  C   UNL     1      -2.367  -2.126   1.319  0.00  0.00    +0.002 C 
ATOM     16  C   UNL     1      -1.012  -1.460   1.069  0.00  0.00    -0.011 C 
ENDBRANCH   3  16
ENDBRANCH   1   3
BRANCH   1  17
ATOM     17  C   UNL     1      -1.092   0.926   3.966  0.00  0.00    -0.073 C 
BRANCH  17  18
ATOM     18  C   UNL     1      -2.306   1.766   3.566  0.00  0.00    +0.017 C 
BRANCH  18  19
ATOM     19  C   UNL     1      -2.321   3.041   4.370  0.00  0.00    -0.046 A 
ATOM     20  C   UNL     1      -3.029   3.102   5.556  0.00  0.00    +0.004 A 
ATOM     21  C   UNL     1      -3.042   4.271   6.293  0.00  0.00    +0.000 A 
ATOM     22  C   UNL     1      -2.347   5.379   5.845  0.00  0.00    +0.000 A 
ATOM     23  C   UNL     1      -1.638   5.318   4.660  0.00  0.00    +0.003 A 
ATOM     24  C   UNL     1      -1.622   4.147   3.925  0.00  0.00    -0.047 A 
ATOM     25  C   UNL     1      -0.845   4.078   2.635  0.00  0.00    +0.044 C 
ENDBRANCH  18  19
ENDBRANCH  17  18
ENDBRANCH   1  17
BRANCH   1  26
ATOM     26  C   UNL     1      -0.048  -1.223   3.744  0.00  0.00    -0.037 C 
BRANCH  26  27
ATOM     27  C   UNL     1      -0.286  -1.550   5.196  0.00  0.00    +0.001 A 
ATOM     28  C   UNL     1      -0.917  -2.702   5.534  0.00  0.00    +0.017 A 
ATOM     29  C   UNL     1      -1.132  -2.991   6.953  0.00  0.00    -0.001 A 
ATOM     30  C   UNL     1      -1.776  -4.163   7.364  0.00  0.00    +0.010 A 
ATOM     31  C   UNL     1      -1.961  -4.403   8.695  0.00  0.00    +0.001 A 
ATOM     32  C   UNL     1      -1.517  -3.493   9.646  0.00  0.00    +0.005 A 
ATOM     33  C   UNL     1      -0.880  -2.332   9.264  0.00  0.00    -0.026 A 
ATOM     34  C   UNL     1      -0.680  -2.066   7.913  0.00  0.00    +0.052 A 
ATOM     35  N   UNL     1      -0.046  -0.913   7.504  0.00  0.00    -0.322 N 
ATOM     36  H   UNL     1       0.266  -0.277   8.167  0.00  0.00    +0.169 HD
ATOM     37  C   UNL     1       0.153  -0.659   6.198  0.00  0.00    +0.251 A 
ATOM     38  O   UNL     1       0.722   0.368   5.872  0.00  0.00    -0.268 OA
ATOM     39  C   UNL     1      -0.404  -1.353  10.306  0.00  0.00    +0.046 C 
ENDBRANCH  26  27
ENDBRANCH   1  26
TORSDOF 10
