REMARK  Name = ZINC23442415
REMARK  11 active torsions:
REMARK  status: ('A' for Active; 'I' for Inactive)
REMARK    1  A    between atoms: C_1  and  C_2
REMARK    2  A    between atoms: C_4  and  C_8
REMARK    3  A    between atoms: C_5  and  C_7
REMARK    4  A    between atoms: N_13  and  C_16
REMARK    5  A    between atoms: C_16  and  C_17
REMARK    6  A    between atoms: C_17  and  C_19
REMARK    7  A    between atoms: C_17  and  O_30
REMARK    8  A    between atoms: C_23  and  N_25
REMARK    9  A    between atoms: O_30  and  C_31
REMARK   10  A    between atoms: C_31  and  C_32
REMARK   11  A    between atoms: C_35  and  C_38
REMARK                            x       y       z     vdW  Elec       q    Type
REMARK                         _______ _______ _______ _____ _____    ______ ____
ROOT
ATOM      1  C   UNL     1       0.106   6.254  -0.736  0.00  0.00    +0.132 C 
ENDROOT
BRANCH   1   2
ATOM      2  C   UNL     1      -0.108   7.034  -2.008  0.00  0.00    -0.019 A 
ATOM      3  C   UNL     1       0.948   7.243  -2.876  0.00  0.00    +0.006 A 
ATOM      4  C   UNL     1       0.756   7.958  -4.044  0.00  0.00    +0.002 A 
ATOM      5  C   UNL     1      -0.492   8.467  -4.346  0.00  0.00    +0.023 A 
ATOM      6  C   UNL     1      -1.554   8.260  -3.476  0.00  0.00    +0.030 A 
ATOM      7  C   UNL     1      -1.359   7.535  -2.307  0.00  0.00    +0.029 A 
BRANCH   6   8
ATOM      8  N   UNL     1      -2.818   8.773  -3.779  0.00  0.00    -0.330 N 
ATOM      9  C   UNL     1      -2.789  10.257  -3.840  0.00  0.00    +0.105 C 
ATOM     10  C   UNL     1      -4.050  10.602  -4.671  0.00  0.00    +0.020 C 
ATOM     11  C   UNL     1      -4.089   9.473  -5.725  0.00  0.00    +0.020 C 
ATOM     12  C   UNL     1      -3.266   8.323  -5.115  0.00  0.00    +0.105 C 
ENDBRANCH   6   8
ENDBRANCH   1   2
BRANCH   1  13
ATOM     13  C   UNL     1       0.095   4.756  -1.049  0.00  0.00    -0.042 C 
BRANCH  13  19
ATOM     14  C   UNL     1      -0.779   1.431   3.153  0.00  0.00    +0.250 C 
ATOM     15  O   UNL     1      -0.649   0.232   3.004  0.00  0.00    -0.270 OA
ATOM     16  N   UNL     1      -0.128   2.287   2.340  0.00  0.00    -0.301 N 
ATOM     17  C   UNL     1       0.661   1.793   1.202  0.00  0.00    +0.089 C 
ATOM     18  C   UNL     1       0.233   2.551  -0.059  0.00  0.00    -0.059 C 
ATOM     19  N   UNL     1       0.332   3.996   0.185  0.00  0.00    +0.384 N 
ATOM     20  C   UNL     1      -0.587   4.421   1.249  0.00  0.00    -0.059 C 
ATOM     21  C   UNL     1      -0.192   3.740   2.564  0.00  0.00    +0.089 C 
ATOM     22  H   UNL     1       1.357   4.209   0.524  0.00  0.00    -0.082 HD
BRANCH  14  26
ATOM     23  C   UNL     1      -3.919   4.393   5.874  0.00  0.00    +0.086 C 
ATOM     24  C   UNL     1      -3.032   3.268   5.407  0.00  0.00    +0.103 A 
ATOM     25  C   UNL     1      -2.373   3.230   4.239  0.00  0.00    +0.057 A 
ATOM     26  C   UNL     1      -1.650   1.950   4.223  0.00  0.00    +0.078 A 
ATOM     27  C   UNL     1      -1.948   1.346   5.409  0.00  0.00    +0.114 A 
ATOM     28  O   UNL     1      -2.770   2.146   6.095  0.00  0.00    -0.464 OA
ATOM     29  C   UNL     1      -1.438   0.004   5.868  0.00  0.00    +0.087 C 
ENDBRANCH  14  26
ENDBRANCH  13  19
ENDBRANCH   1  13
BRANCH   1  30
ATOM     30  O   UNL     1       1.366   6.612  -0.164  0.00  0.00    -0.369 OA
BRANCH  30  31
ATOM     31  C   UNL     1       1.298   7.708   0.750  0.00  0.00    +0.195 C 
BRANCH  31  32
ATOM     32  C   UNL     1       2.675   7.997   1.289  0.00  0.00    -0.022 A 
ATOM     33  C   UNL     1       3.109   7.369   2.443  0.00  0.00    +0.007 A 
ATOM     34  C   UNL     1       4.370   7.625   2.940  0.00  0.00    +0.019 A 
ATOM     35  C   UNL     1       5.206   8.530   2.281  0.00  0.00    +0.052 A 
ATOM     36  C   UNL     1       4.759   9.165   1.121  0.00  0.00    +0.019 A 
ATOM     37  C   UNL     1       3.498   8.895   0.632  0.00  0.00    +0.007 A 
BRANCH  35  38
ATOM     38  C   UNL     1       6.514   8.805   2.794  0.00  0.00    +0.099 C 
ATOM     39  N   UNL     1       7.552   9.024   3.201  0.00  0.00    -0.191 NA
ENDBRANCH  35  38
ENDBRANCH  31  32
ENDBRANCH  30  31
ENDBRANCH   1  30
TORSDOF 9
