REMARK  Name = ZINC33503085
REMARK  11 active torsions:
REMARK  status: ('A' for Active; 'I' for Inactive)
REMARK    1  A    between atoms: C_1  and  C_2
REMARK    2  A    between atoms: C_2  and  C_3
REMARK    3  A    between atoms: C_3  and  C_4
REMARK    4  A    between atoms: C_4  and  C_6
REMARK    5  A    between atoms: C_4  and  N_24
REMARK    6  A    between atoms: N_12  and  C_21
REMARK    7  A    between atoms: C_15  and  C_18
REMARK    8  A    between atoms: C_18  and  C_19
REMARK    9  A    between atoms: C_18  and  C_20
REMARK   10  A    between atoms: C_21  and  C_22
REMARK   11  A    between atoms: C_22  and  O_23
REMARK                            x       y       z     vdW  Elec       q    Type
REMARK                         _______ _______ _______ _____ _____    ______ ____
ROOT
ATOM      1  C   UNL     1       1.396   1.986  -0.001  0.00  0.00    -0.060 A 
ATOM      2  C   UNL     1       2.353   1.368  -0.784  0.00  0.00    +0.005 A 
ATOM      3  C   UNL     1       3.653   1.841  -0.800  0.00  0.00    +0.048 A 
ATOM      4  C   UNL     1       3.997   2.937  -0.029  0.00  0.00    +0.143 A 
ATOM      5  C   UNL     1       3.032   3.560   0.762  0.00  0.00    +0.079 A 
ATOM      6  C   UNL     1       1.731   3.086   0.768  0.00  0.00    +0.029 A 
ATOM      7  N   UNL     1       3.395   4.669   1.540  0.00  0.00    -0.263 N 
ATOM      8  C   UNL     1       4.560   5.300   1.277  0.00  0.00    +0.261 C 
ATOM      9  O   UNL     1       4.909   6.242   1.957  0.00  0.00    -0.271 OA
ATOM     10  C   UNL     1       5.426   4.828   0.137  0.00  0.00    +0.262 C 
ATOM     11  O   UNL     1       5.269   3.416  -0.033  0.00  0.00    -0.477 OA
ENDROOT
BRANCH  10  12
ATOM     12  C   UNL     1       5.009   5.544  -1.149  0.00  0.00    +0.033 C 
ATOM     13  C   UNL     1       5.890   5.069  -2.306  0.00  0.00    +0.011 C 
ATOM     14  C   UNL     1       3.545   5.227  -1.459  0.00  0.00    +0.011 C 
ENDBRANCH  10  12
BRANCH   1  15
ATOM     15  C   UNL     1      -0.018   1.465   0.010  0.00  0.00    -0.044 C 
BRANCH  15  16
ATOM     16  N   UNL     1       0.002  -0.004   0.002  0.00  0.00    +0.383 N 
ATOM     17  H   UNL     1       0.534  -0.368   0.893  0.00  0.00    -0.089 HD
ATOM     18  H   UNL     1       0.517  -0.359  -0.903  0.00  0.00    -0.089 HD
ATOM     19  H   UNL     1      -1.030  -0.385   0.010  0.00  0.00    -0.089 HD
ENDBRANCH  15  16
BRANCH  15  20
ATOM     20  C   UNL     1      -0.758   1.972  -1.229  0.00  0.00    -0.012 C 
BRANCH  20  22
ATOM     21  C   UNL     1      -2.966   2.053  -2.396  0.00  0.00    +0.004 C 
ATOM     22  C   UNL     1      -2.226   1.546  -1.156  0.00  0.00    -0.005 C 
ENDBRANCH  20  22
ENDBRANCH  15  20
ENDBRANCH   1  15
BRANCH   7  23
ATOM     23  C   UNL     1       2.523   5.136   2.620  0.00  0.00    +0.141 C 
BRANCH  23  24
ATOM     24  C   UNL     1       1.539   6.171   2.071  0.00  0.00    +0.175 C 
BRANCH  24  25
ATOM     25  O   UNL     1       0.668   5.546   1.126  0.00  0.00    -0.393 OA
ATOM     26  H   UNL     1      -0.111   6.136   0.622  0.00  0.00    +0.209 HD
ENDBRANCH  24  25
ENDBRANCH  23  24
ENDBRANCH   7  23
TORSDOF 8
