REMARK  Name = ZINC03913694
REMARK  2 active torsions:
REMARK  status: ('A' for Active; 'I' for Inactive)
REMARK    1  A    between atoms: C_1  and  C_2
REMARK    2  A    between atoms: C_5  and  C_16
REMARK                            x       y       z     vdW  Elec       q    Type
REMARK                         _______ _______ _______ _____ _____    ______ ____
ROOT
ATOM      1  C   UNL     1      -7.784   1.665   0.329  0.00  0.00    +0.009 C 
ATOM      2  C   UNL     1      -7.299   2.314  -0.969  0.00  0.00    +0.004 C 
ATOM      3  C   UNL     1      -7.639   3.807  -0.952  0.00  0.00    +0.009 C 
ATOM      4  C   UNL     1      -6.900   4.477   0.209  0.00  0.00    +0.004 C 
ATOM      5  C   UNL     1      -5.395   4.243   0.053  0.00  0.00    +0.110 C 
ATOM      6  N   UNL     1      -5.122   2.800   0.043  0.00  0.00    -0.308 N 
ATOM      7  C   UNL     1      -5.783   2.142  -1.091  0.00  0.00    +0.110 C 
ATOM      8  C   UNL     1      -3.754   2.552   0.035  0.00  0.00    +0.186 A 
ATOM      9  N   UNL     1      -2.750   3.407   0.035  0.00  0.00    -0.124 NA
ATOM     10  N   UNL     1      -1.455   2.942   0.031  0.00  0.00    -0.125 NA
ATOM     11  C   UNL     1      -1.224   1.644   0.017  0.00  0.00    +0.180 A 
ATOM     12  S   UNL     1      -2.887   0.991   0.021  0.00  0.00    -0.016 S 
ATOM     13  N   UNL     1      -0.011   0.966   0.007  0.00  0.00    -0.336 N 
ATOM     14  C   UNL     1      -7.186   5.980   0.198  0.00  0.00    +0.009 C 
ATOM     15  H   UNL     1       0.002  -0.004   0.002  0.00  0.00    +0.144 HD
ATOM     16  H   UNL     1       0.822   1.462   0.002  0.00  0.00    +0.144 HD
ENDROOT
TORSDOF 0
