REMARK  Name = ZINC40464580
REMARK  11 active torsions:
REMARK  status: ('A' for Active; 'I' for Inactive)
REMARK    1  A    between atoms: C_1  and  C_2
REMARK    2  A    between atoms: C_2  and  N_3
REMARK    3  A    between atoms: C_4  and  N_26
REMARK    4  A    between atoms: C_5  and  C_12
REMARK    5  A    between atoms: C_12  and  C_14
REMARK    6  A    between atoms: C_14  and  N_15
REMARK    7  A    between atoms: N_15  and  C_16
REMARK    8  A    between atoms: N_15  and  C_17
REMARK    9  A    between atoms: C_17  and  C_18
REMARK   10  A    between atoms: C_21  and  C_25
REMARK   11  A    between atoms: C_23  and  C_24
REMARK                            x       y       z     vdW  Elec       q    Type
REMARK                         _______ _______ _______ _____ _____    ______ ____
ROOT
ATOM      1  C   UNL     1      -0.266  -1.345  -4.576  0.00  0.00    +0.155 C 
ATOM      2  O   UNL     1      -1.444  -1.053  -4.556  0.00  0.00    -0.294 OA
ENDROOT
BRANCH   1   5
ATOM      3  N   UNL     1       0.787  -0.489  -1.149  0.00  0.00    -0.282 N 
ATOM      4  C   UNL     1      -0.029  -0.686  -2.226  0.00  0.00    +0.116 A 
ATOM      5  C   UNL     1       0.535  -1.127  -3.435  0.00  0.00    +0.118 A 
ATOM      6  C   UNL     1       1.986  -1.352  -3.473  0.00  0.00    +0.266 A 
ATOM      7  O   UNL     1       2.529  -1.732  -4.494  0.00  0.00    -0.267 OA
ATOM      8  N   UNL     1       2.704  -1.127  -2.354  0.00  0.00    -0.274 N 
ATOM      9  H   UNL     1       3.664  -1.272  -2.363  0.00  0.00    +0.173 HD
ATOM     10  C   UNL     1       2.110  -0.702  -1.227  0.00  0.00    +0.331 A 
ATOM     11  O   UNL     1       2.794  -0.507  -0.242  0.00  0.00    -0.246 OA
BRANCH   4  12
ATOM     12  N   UNL     1      -1.368  -0.461  -2.129  0.00  0.00    -0.344 N 
ATOM     13  H   UNL     1      -1.761  -0.234  -1.272  0.00  0.00    +0.144 HD
ATOM     14  H   UNL     1      -1.929  -0.527  -2.918  0.00  0.00    +0.144 HD
ENDBRANCH   4  12
BRANCH   3  16
ATOM     15  C   UNL     1       0.202   1.500   0.149  0.00  0.00    +0.027 C 
ATOM     16  C   UNL     1       0.208  -0.030   0.116  0.00  0.00    +0.125 C 
ENDBRANCH   3  16
ENDBRANCH   1   5
BRANCH   1  17
ATOM     17  C   UNL     1       0.341  -1.942  -5.820  0.00  0.00    +0.002 C 
BRANCH  17  18
ATOM     18  N   UNL     1      -0.692  -2.067  -6.857  0.00  0.00    +0.385 N 
ATOM     19  C   UNL     1      -1.710  -3.032  -6.420  0.00  0.00    -0.095 C 
ATOM     20  H   UNL     1      -1.124  -1.169  -7.011  0.00  0.00    -0.081 HD
BRANCH  18  21
ATOM     21  C   UNL     1      -0.077  -2.535  -8.106  0.00  0.00    -0.043 C 
BRANCH  21  22
ATOM     22  C   UNL     1      -1.111  -2.547  -9.202  0.00  0.00    -0.061 A 
ATOM     23  C   UNL     1      -1.729  -3.732  -9.557  0.00  0.00    +0.002 A 
ATOM     24  C   UNL     1      -2.678  -3.742 -10.562  0.00  0.00    +0.003 A 
ATOM     25  C   UNL     1      -3.010  -2.568 -11.212  0.00  0.00    -0.050 A 
ATOM     26  C   UNL     1      -2.393  -1.383 -10.856  0.00  0.00    +0.007 A 
ATOM     27  C   UNL     1      -1.447  -1.372  -9.848  0.00  0.00    -0.049 A 
ATOM     28  C   UNL     1      -0.778  -0.080  -9.457  0.00  0.00    +0.044 C 
ATOM     29  C   UNL     1      -4.044  -2.579 -12.308  0.00  0.00    +0.044 C 
ENDBRANCH  21  22
ENDBRANCH  18  21
ENDBRANCH  17  18
ENDBRANCH   1  17
TORSDOF 7
