REMARK  Name = ZINC09381913
REMARK  7 active torsions:
REMARK  status: ('A' for Active; 'I' for Inactive)
REMARK    1  A    between atoms: C_1  and  O_2
REMARK    2  A    between atoms: O_2  and  C_3
REMARK    3  A    between atoms: C_6  and  O_31
REMARK    4  A    between atoms: N_12  and  N_13
REMARK    5  A    between atoms: C_14  and  C_16
REMARK    6  A    between atoms: C_18  and  C_26
REMARK    7  A    between atoms: O_31  and  C_32
REMARK                            x       y       z     vdW  Elec       q    Type
REMARK                         _______ _______ _______ _____ _____    ______ ____
ROOT
ATOM      1  N   UNL     1       2.385   5.704  -0.093  0.00  0.00    -0.231 N 
ATOM      2  C   UNL     1       2.438   4.360   0.002  0.00  0.00    +0.261 C 
ATOM      3  O   UNL     1       3.513   3.799   0.080  0.00  0.00    -0.269 OA
ATOM      4  H   UNL     1       1.527   6.152  -0.155  0.00  0.00    +0.173 HD
ENDROOT
BRANCH   1  14
ATOM      5  C   UNL     1       1.508  10.901  -0.482  0.00  0.00    +0.147 A 
ATOM      6  C   UNL     1       1.781  12.246  -0.565  0.00  0.00    +0.051 A 
ATOM      7  C   UNL     1       3.084  12.723  -0.549  0.00  0.00    +0.050 A 
ATOM      8  C   UNL     1       4.135  11.823  -0.448  0.00  0.00    +0.136 A 
ATOM      9  C   UNL     1       3.869  10.474  -0.365  0.00  0.00    +0.086 A 
ATOM     10  C   UNL     1       2.558   9.954  -0.378  0.00  0.00    +0.125 A 
ATOM     11  N   UNL     1       2.461   8.607  -0.295  0.00  0.00    -0.220 NA
ATOM     12  C   UNL     1       3.514   7.829  -0.197  0.00  0.00    +0.176 A 
ATOM     13  S   UNL     1       4.859   9.005  -0.228  0.00  0.00    -0.047 S 
ATOM     14  N   UNL     1       3.569   6.453  -0.101  0.00  0.00    -0.242 N 
ATOM     15  H   UNL     1       4.427   6.005  -0.038  0.00  0.00    +0.172 HD
BRANCH   5  17
ATOM     16  C   UNL     1      -0.796  11.477  -0.608  0.00  0.00    +0.277 C 
ATOM     17  O   UNL     1       0.216  10.475  -0.501  0.00  0.00    -0.493 OA
ENDBRANCH   5  17
BRANCH   8  18
ATOM     18  O   UNL     1       5.419  12.270  -0.431  0.00  0.00    -0.494 OA
ATOM     19  C   UNL     1       5.616  13.682  -0.521  0.00  0.00    +0.277 C 
ENDBRANCH   8  18
ENDBRANCH   1  14
BRANCH   2  20
ATOM     20  C   UNL     1       1.188   3.569   0.010  0.00  0.00    +0.049 A 
ATOM     21  C   UNL     1      -0.053   4.184   0.040  0.00  0.00    +0.042 A 
ATOM     22  C   UNL     1      -1.216   3.393   0.046  0.00  0.00    +0.079 A 
ATOM     23  N   UNL     1      -1.169   2.075   0.019  0.00  0.00    -0.246 NA
ATOM     24  C   UNL     1      -0.017   1.403  -0.005  0.00  0.00    +0.072 A 
ATOM     25  C   UNL     1       1.214   2.106  -0.014  0.00  0.00    +0.013 A 
ATOM     26  C   UNL     1       2.419   1.397  -0.045  0.00  0.00    +0.011 A 
ATOM     27  C   UNL     1       2.399   0.034  -0.067  0.00  0.00    +0.001 A 
ATOM     28  C   UNL     1       1.192  -0.662  -0.058  0.00  0.00    +0.002 A 
ATOM     29  C   UNL     1       0.002  -0.004  -0.028  0.00  0.00    +0.028 A 
BRANCH  22  30
ATOM     30  C   UNL     1      -2.531   4.060   0.078  0.00  0.00    +0.038 A 
ATOM     31  C   UNL     1      -3.783   3.501   0.084  0.00  0.00    +0.017 A 
ATOM     32  C   UNL     1      -4.879   4.332   0.121  0.00  0.00    +0.008 A 
ATOM     33  C   UNL     1      -4.689   5.678   0.139  0.00  0.00    +0.046 A 
ATOM     34  S   UNL     1      -2.908   5.805   0.112  0.00  0.00    -0.095 S 
ENDBRANCH  22  30
ENDBRANCH   2  20
TORSDOF 5
