REMARK  Name = ZINC49101930
REMARK  7 active torsions:
REMARK  status: ('A' for Active; 'I' for Inactive)
REMARK    1  A    between atoms: C_1  and  C_2
REMARK    2  A    between atoms: C_3  and  C_21
REMARK    3  A    between atoms: N_7  and  S_8
REMARK    4  A    between atoms: S_8  and  C_11
REMARK    5  A    between atoms: C_15  and  C_17
REMARK    6  A    between atoms: C_17  and  C_19
REMARK    7  A    between atoms: C_17  and  N_20
REMARK                            x       y       z     vdW  Elec       q    Type
REMARK                         _______ _______ _______ _____ _____    ______ ____
ROOT
ATOM      1  S   UNL     1       3.739  -2.321  -0.031  0.00  0.00    +0.101 S 
ATOM      2  O   UNL     1       3.925  -1.656  -1.273  0.00  0.00    -0.146 OA
ATOM      3  O   UNL     1       3.938  -1.671   1.218  0.00  0.00    -0.146 OA
ENDROOT
BRANCH   1  10
ATOM      4  C   UNL     1      -0.018   1.503   0.010  0.00  0.00    +0.064 C 
ATOM      5  C   UNL     1       0.002  -0.004   0.002  0.00  0.00    +0.025 A 
ATOM      6  C   UNL     1      -1.144  -0.684   0.004  0.00  0.00    +0.009 A 
ATOM      7  S   UNL     1      -0.577  -2.377  -0.009  0.00  0.00    -0.053 S 
ATOM      8  C   UNL     1       1.179  -2.046  -0.016  0.00  0.00    +0.192 A 
ATOM      9  N   UNL     1       1.194  -0.668  -0.013  0.00  0.00    -0.336 N 
ATOM     10  N   UNL     1       2.183  -2.888  -0.026  0.00  0.00    -0.103 NA
ATOM     11  C   UNL     1      -2.557  -0.159   0.016  0.00  0.00    +0.053 C 
ATOM     12  H   UNL     1       2.033  -0.181  -0.019  0.00  0.00    +0.168 HD
ENDBRANCH   1  10
BRANCH   1  13
ATOM     13  C   UNL     1       4.804  -3.724  -0.045  0.00  0.00    +0.113 A 
ATOM     14  C   UNL     1       5.224  -4.285   1.147  0.00  0.00    +0.029 A 
ATOM     15  C   UNL     1       6.060  -5.385   1.136  0.00  0.00    +0.002 A 
ATOM     16  C   UNL     1       6.476  -5.925  -0.067  0.00  0.00    +0.002 A 
ATOM     17  C   UNL     1       6.056  -5.365  -1.258  0.00  0.00    -0.060 A 
ATOM     18  C   UNL     1       5.216  -4.267  -1.247  0.00  0.00    +0.031 A 
BRANCH  17  19
ATOM     19  C   UNL     1       6.510  -5.953  -2.569  0.00  0.00    -0.047 C 
ATOM     20  C   UNL     1       7.926  -5.466  -2.883  0.00  0.00    -0.009 C 
BRANCH  19  21
ATOM     21  N   UNL     1       6.506  -7.419  -2.475  0.00  0.00    +0.382 N 
ATOM     22  H   UNL     1       5.573  -7.740  -2.268  0.00  0.00    -0.089 HD
ATOM     23  H   UNL     1       6.810  -7.813  -3.353  0.00  0.00    -0.089 HD
ATOM     24  H   UNL     1       7.133  -7.711  -1.740  0.00  0.00    -0.089 HD
ENDBRANCH  19  21
ENDBRANCH  17  19
ENDBRANCH   1  13
TORSDOF 4
