REMARK  Name = ZINC08443428
REMARK  10 active torsions:
REMARK  status: ('A' for Active; 'I' for Inactive)
REMARK    1  A    between atoms: C_1  and  C_2
REMARK    2  A    between atoms: C_5  and  N_9
REMARK    3  A    between atoms: C_7  and  C_8
REMARK    4  A    between atoms: C_10  and  C_40
REMARK    5  A    between atoms: C_11  and  N_15
REMARK    6  A    between atoms: C_12  and  C_14
REMARK    7  A    between atoms: N_15  and  C_16
REMARK    8  A    between atoms: C_18  and  C_39
REMARK    9  A    between atoms: N_20  and  C_23
REMARK   10  A    between atoms: C_26  and  C_29
REMARK                            x       y       z     vdW  Elec       q    Type
REMARK                         _______ _______ _______ _____ _____    ______ ____
ROOT
ATOM      1  C   UNL     1       0.263  -8.803  -1.823  0.00  0.00    +0.087 C 
ATOM      2  C   UNL     1      -0.116  -9.993  -2.425  0.00  0.00    +0.075 C 
ATOM      3  C   UNL     1      -1.313 -10.242  -3.241  0.00  0.00    +0.070 C 
ATOM      4  N   UNL     1      -1.284 -11.487  -3.609  0.00  0.00    -0.176 NA
ATOM      5  N   UNL     1      -0.155 -12.136  -3.112  0.00  0.00    -0.156 N 
ATOM      6  C   UNL     1       0.594 -11.277  -2.391  0.00  0.00    +0.273 C 
ATOM      7  O   UNL     1       1.646 -11.519  -1.823  0.00  0.00    -0.268 OA
ATOM      8  C   UNL     1      -2.379  -9.236  -3.588  0.00  0.00    +0.068 C 
ENDROOT
BRANCH   5   9
ATOM      9  C   UNL     1       0.160 -13.483  -3.335  0.00  0.00    +0.060 A 
ATOM     10  C   UNL     1       1.312 -14.029  -2.784  0.00  0.00    +0.026 A 
ATOM     11  C   UNL     1       1.619 -15.357  -3.006  0.00  0.00    +0.006 A 
ATOM     12  C   UNL     1       0.781 -16.143  -3.775  0.00  0.00    -0.041 A 
ATOM     13  C   UNL     1      -0.367 -15.602  -4.325  0.00  0.00    +0.006 A 
ATOM     14  C   UNL     1      -0.683 -14.277  -4.102  0.00  0.00    +0.026 A 
BRANCH  12  15
ATOM     15  C   UNL     1       1.119 -17.592  -4.014  0.00  0.00    -0.003 C 
ATOM     16  C   UNL     1       2.472 -17.689  -4.723  0.00  0.00    +0.015 C 
ATOM     17  C   UNL     1       2.815 -19.160  -4.966  0.00  0.00    -0.010 C 
ATOM     18  C   UNL     1       1.734 -19.799  -5.840  0.00  0.00    +0.007 C 
ATOM     19  C   UNL     1       0.382 -19.701  -5.132  0.00  0.00    -0.010 C 
ATOM     20  C   UNL     1       0.038 -18.230  -4.889  0.00  0.00    +0.015 C 
ATOM     21  C   UNL     1       0.454 -20.436  -3.792  0.00  0.00    +0.007 C 
ATOM     22  C   UNL     1       1.535 -19.798  -2.918  0.00  0.00    -0.010 C 
ATOM     23  C   UNL     1       2.887 -19.895  -3.626  0.00  0.00    +0.007 C 
ATOM     24  C   UNL     1       1.191 -18.327  -2.674  0.00  0.00    +0.015 C 
ENDBRANCH  12  15
ENDBRANCH   5   9
BRANCH   1  25
ATOM     25  N   UNL     1      -0.452  -7.682  -2.040  0.00  0.00    -0.317 N 
ATOM     26  H   UNL     1      -1.177  -7.685  -2.683  0.00  0.00    +0.152 HD
BRANCH  25  29
ATOM     27  N   UNL     1       0.032  -4.396  -0.764  0.00  0.00    -0.235 N 
ATOM     28  C   UNL     1      -0.429  -5.238  -1.728  0.00  0.00    +0.063 A 
ATOM     29  C   UNL     1      -0.146  -6.507  -1.333  0.00  0.00    +0.075 A 
ATOM     30  C   UNL     1       0.505  -6.434  -0.091  0.00  0.00    +0.082 A 
ATOM     31  N   UNL     1       0.615  -5.175   0.244  0.00  0.00    -0.170 NA
ATOM     32  C   UNL     1       0.999  -7.608   0.715  0.00  0.00    +0.069 C 
ATOM     33  C   UNL     1      -1.127  -4.837  -3.002  0.00  0.00    +0.068 C 
BRANCH  27  38
ATOM     34  C   UNL     1      -0.329   1.267  -0.826  0.00  0.00    +0.044 C 
ATOM     35  C   UNL     1      -0.233  -0.237  -0.810  0.00  0.00    -0.047 A 
ATOM     36  C   UNL     1      -0.043  -0.929  -1.992  0.00  0.00    +0.006 A 
ATOM     37  C   UNL     1       0.045  -2.307  -1.980  0.00  0.00    +0.028 A 
ATOM     38  C   UNL     1      -0.057  -2.998  -0.779  0.00  0.00    +0.066 A 
ATOM     39  C   UNL     1      -0.246  -2.300   0.406  0.00  0.00    +0.031 A 
ATOM     40  C   UNL     1      -0.328  -0.921   0.388  0.00  0.00    -0.046 A 
ATOM     41  C   UNL     1      -0.528  -0.162   1.675  0.00  0.00    +0.044 C 
ENDBRANCH  27  38
ENDBRANCH  25  29
ENDBRANCH   1  25
TORSDOF 5
