REMARK  Name = ZINC08952394
REMARK  8 active torsions:
REMARK  status: ('A' for Active; 'I' for Inactive)
REMARK    1  A    between atoms: C_1  and  C_2
REMARK    2  A    between atoms: C_2  and  O_3
REMARK    3  A    between atoms: O_3  and  C_4
REMARK    4  A    between atoms: C_7  and  N_10
REMARK    5  A    between atoms: C_11  and  C_13
REMARK    6  A    between atoms: N_18  and  C_29
REMARK    7  A    between atoms: N_20  and  C_21
REMARK    8  A    between atoms: C_29  and  C_30
REMARK                            x       y       z     vdW  Elec       q    Type
REMARK                         _______ _______ _______ _____ _____    ______ ____
ROOT
ATOM      1  C   UNL     1      -3.044  -8.355   0.658  0.00  0.00    +0.149 C 
ATOM      2  C   UNL     1      -4.440  -8.516   1.262  0.00  0.00    +0.120 C 
ATOM      3  C   UNL     1      -5.030  -9.855   0.984  0.00  0.00    +0.223 C 
ATOM      4  O   UNL     1      -5.828 -10.259   1.804  0.00  0.00    -0.275 OA
ATOM      5  N   UNL     1      -4.800 -10.664  -0.039  0.00  0.00    -0.246 N 
ATOM      6  C   UNL     1      -3.826 -10.448  -0.998  0.00  0.00    +0.164 C 
ATOM      7  N   UNL     1      -3.428 -11.410  -1.796  0.00  0.00    -0.223 NA
ATOM      8  S   UNL     1      -3.136  -8.819  -1.103  0.00  0.00    -0.077 S 
ENDROOT
BRANCH   7   9
ATOM      9  C   UNL     1      -2.554 -11.137  -2.815  0.00  0.00    +0.102 A 
ATOM     10  C   UNL     1      -2.815 -10.092  -3.703  0.00  0.00    +0.031 A 
ATOM     11  C   UNL     1      -1.931  -9.822  -4.727  0.00  0.00    +0.002 A 
ATOM     12  C   UNL     1      -0.786 -10.585  -4.876  0.00  0.00    +0.003 A 
ATOM     13  C   UNL     1      -0.519 -11.623  -4.001  0.00  0.00    +0.040 A 
ATOM     14  C   UNL     1      -1.393 -11.900  -2.967  0.00  0.00    +0.149 A 
ATOM     15  F   UNL     1      -1.128 -12.910  -2.110  0.00  0.00    -0.203 F 
ENDBRANCH   7   9
BRANCH   1  17
ATOM     16  N   UNL     1      -1.283  -6.634   0.892  0.00  0.00    -0.285 N 
ATOM     17  C   UNL     1      -2.595  -6.923   0.786  0.00  0.00    +0.231 C 
ATOM     18  O   UNL     1      -3.415  -6.029   0.793  0.00  0.00    -0.274 OA
ATOM     19  H   UNL     1      -0.623  -7.341   0.811  0.00  0.00    +0.155 HD
BRANCH  16  23
ATOM     20  C   UNL     1      -0.059  -2.706   1.567  0.00  0.00    +0.121 A 
ATOM     21  C   UNL     1      -1.254  -3.162   2.104  0.00  0.00    +0.047 A 
ATOM     22  C   UNL     1      -1.660  -4.462   1.880  0.00  0.00    +0.027 A 
ATOM     23  C   UNL     1      -0.872  -5.314   1.118  0.00  0.00    +0.034 A 
ATOM     24  C   UNL     1       0.325  -4.857   0.581  0.00  0.00    +0.027 A 
ATOM     25  C   UNL     1       0.727  -3.555   0.801  0.00  0.00    +0.047 A 
BRANCH  20  26
ATOM     26  O   UNL     1       0.341  -1.425   1.787  0.00  0.00    -0.492 OA
BRANCH  26  28
ATOM     27  C   UNL     1       0.094   0.790   2.722  0.00  0.00    +0.048 C 
ATOM     28  C   UNL     1      -0.517  -0.606   2.585  0.00  0.00    +0.225 C 
ENDBRANCH  26  28
ENDBRANCH  20  26
ENDBRANCH  16  23
ENDBRANCH   1  17
BRANCH   5  29
ATOM     29  C   UNL     1      -5.630 -11.865  -0.165  0.00  0.00    +0.150 C 
BRANCH  29  30
ATOM     30  C   UNL     1      -6.849 -11.549  -0.993  0.00  0.00    -0.026 A 
ATOM     31  C   UNL     1      -8.000 -11.091  -0.379  0.00  0.00    +0.009 A 
ATOM     32  C   UNL     1      -9.120 -10.799  -1.134  0.00  0.00    +0.050 A 
ATOM     33  C   UNL     1      -9.092 -10.966  -2.509  0.00  0.00    +0.166 A 
ATOM     34  C   UNL     1      -7.933 -11.427  -3.127  0.00  0.00    +0.167 A 
ATOM     35  C   UNL     1      -6.812 -11.712  -2.365  0.00  0.00    +0.054 A 
ATOM     36  O   UNL     1      -8.157 -11.505  -4.472  0.00  0.00    -0.453 OA
ATOM     37  C   UNL     1      -9.588 -11.478  -4.625  0.00  0.00    +0.466 C 
ATOM     38  O   UNL     1     -10.043 -10.755  -3.466  0.00  0.00    -0.453 OA
ENDBRANCH  29  30
ENDBRANCH   5  29
TORSDOF 7
