REMARK  Name = ZINC19899576
REMARK  6 active torsions:
REMARK  status: ('A' for Active; 'I' for Inactive)
REMARK    1  A    between atoms: C_1  and  C_2
REMARK    2  A    between atoms: C_2  and  C_3
REMARK    3  A    between atoms: C_6  and  N_9
REMARK    4  A    between atoms: C_10  and  C_12
REMARK    5  A    between atoms: C_13  and  C_35
REMARK    6  A    between atoms: C_17  and  C_19
REMARK                            x       y       z     vdW  Elec       q    Type
REMARK                         _______ _______ _______ _____ _____    ______ ____
ROOT
ATOM      1  C   UNL     1       3.582   2.247  -0.699  0.00  0.00    +0.060 C 
ATOM      2  C   UNL     1       3.105   1.083  -1.176  0.00  0.00    +0.018 C 
ATOM      3  N   UNL     1       1.909   0.598  -0.711  0.00  0.00    -0.291 N 
ATOM      4  C   UNL     1       1.044   1.441  -0.048  0.00  0.00    +0.188 C 
ATOM      5  N   UNL     1       1.446   2.570   0.441  0.00  0.00    -0.243 NA
ATOM      6  C   UNL     1       2.829   3.021   0.346  0.00  0.00    +0.175 C 
ATOM      7  N   UNL     1      -0.278   1.077   0.093  0.00  0.00    -0.241 N 
ATOM      8  C   UNL     1      -1.158   1.913   0.750  0.00  0.00    +0.295 A 
ATOM      9  N   UNL     1      -0.841   3.064   1.284  0.00  0.00    -0.195 NA
ATOM     10  C   UNL     1      -1.957   3.610   1.840  0.00  0.00    +0.111 A 
ATOM     11  C   UNL     1      -2.208   4.798   2.528  0.00  0.00    +0.031 A 
ATOM     12  C   UNL     1      -3.480   5.068   2.984  0.00  0.00    +0.002 A 
ATOM     13  C   UNL     1      -4.510   4.166   2.763  0.00  0.00    +0.004 A 
ATOM     14  C   UNL     1      -4.275   2.988   2.084  0.00  0.00    +0.048 A 
ATOM     15  C   UNL     1      -3.002   2.701   1.619  0.00  0.00    +0.157 A 
ATOM     16  O   UNL     1      -2.465   1.661   0.940  0.00  0.00    -0.424 OA
ATOM     17  C   UNL     1       3.880   0.316  -2.216  0.00  0.00    +0.061 C 
ATOM     18  H   UNL     1       1.645  -0.459  -0.868  0.00  0.00    +0.154 HD
ATOM     19  H   UNL     1      -0.632   0.120  -0.318  0.00  0.00    +0.159 HD
ENDROOT
BRANCH   6  20
ATOM     20  C   UNL     1       2.844   4.483  -0.016  0.00  0.00    -0.018 A 
ATOM     21  C   UNL     1       2.011   4.957  -1.012  0.00  0.00    +0.006 A 
ATOM     22  C   UNL     1       2.022   6.300  -1.341  0.00  0.00    +0.000 A 
ATOM     23  C   UNL     1       2.871   7.167  -0.680  0.00  0.00    +0.000 A 
ATOM     24  C   UNL     1       3.708   6.692   0.313  0.00  0.00    +0.000 A 
ATOM     25  C   UNL     1       3.694   5.350   0.645  0.00  0.00    +0.006 A 
ENDBRANCH   6  20
BRANCH   1  27
ATOM     26  N   UNL     1       4.871   3.307  -2.415  0.00  0.00    -0.282 N 
ATOM     27  C   UNL     1       4.811   2.751  -1.189  0.00  0.00    +0.248 C 
ATOM     28  O   UNL     1       5.815   2.680  -0.503  0.00  0.00    -0.270 OA
ATOM     29  H   UNL     1       3.950   3.449  -3.000  0.00  0.00    +0.155 HD
BRANCH  26  33
ATOM     30  C   UNL     1       8.541   4.491  -3.988  0.00  0.00    -0.048 A 
ATOM     31  C   UNL     1       7.569   3.970  -4.822  0.00  0.00    +0.005 A 
ATOM     32  C   UNL     1       6.351   3.577  -4.304  0.00  0.00    +0.023 A 
ATOM     33  C   UNL     1       6.103   3.705  -2.943  0.00  0.00    +0.034 A 
ATOM     34  C   UNL     1       7.080   4.234  -2.109  0.00  0.00    +0.023 A 
ATOM     35  C   UNL     1       8.298   4.620  -2.633  0.00  0.00    +0.005 A 
BRANCH  30  37
ATOM     36  C   UNL     1       9.796   6.392  -4.970  0.00  0.00    +0.009 C 
ATOM     37  C   UNL     1       9.869   4.920  -4.558  0.00  0.00    +0.032 C 
ENDBRANCH  30  37
ENDBRANCH  26  33
ENDBRANCH   1  27
TORSDOF 4
