REMARK  Name = ZINC67081448
REMARK  6 active torsions:
REMARK  status: ('A' for Active; 'I' for Inactive)
REMARK    1  A    between atoms: C_1  and  C_2
REMARK    2  A    between atoms: C_6  and  C_7
REMARK    3  A    between atoms: N_9  and  N_10
REMARK    4  A    between atoms: N_13  and  C_14
REMARK    5  A    between atoms: C_14  and  C_15
REMARK    6  A    between atoms: C_15  and  C_18
REMARK                            x       y       z     vdW  Elec       q    Type
REMARK                         _______ _______ _______ _____ _____    ______ ____
ROOT
ATOM      1  N   UNL     1      -0.508  -1.642   3.125  0.00  0.00    -0.218 N 
ATOM      2  C   UNL     1      -0.324  -2.043   4.398  0.00  0.00    +0.316 C 
ATOM      3  O   UNL     1      -0.208  -1.219   5.285  0.00  0.00    -0.251 OA
ATOM      4  N   UNL     1      -0.270  -3.358   4.689  0.00  0.00    -0.297 N 
ATOM      5  H   UNL     1      -0.470  -0.698   2.903  0.00  0.00    +0.174 HD
ATOM      6  H   UNL     1      -0.286  -4.014   3.975  0.00  0.00    +0.150 HD
ENDROOT
BRANCH   1   9
ATOM      7  C   UNL     1      -1.040  -2.181   0.868  0.00  0.00    +0.267 C 
ATOM      8  O   UNL     1      -1.083  -0.993   0.608  0.00  0.00    -0.268 OA
ATOM      9  N   UNL     1      -0.755  -2.587   2.121  0.00  0.00    -0.229 N 
ATOM     10  H   UNL     1      -0.720  -3.534   2.328  0.00  0.00    +0.173 HD
BRANCH   7  16
ATOM     11  C   UNL     1      -1.723  -1.586  -2.113  0.00  0.00    +0.045 C 
ATOM     12  C   UNL     1      -1.605  -2.967  -1.519  0.00  0.00    -0.031 A 
ATOM     13  C   UNL     1      -1.789  -4.103  -2.270  0.00  0.00    +0.011 A 
ATOM     14  C   UNL     1      -1.667  -5.314  -1.672  0.00  0.00    +0.046 A 
ATOM     15  S   UNL     1      -1.299  -4.950  -0.074  0.00  0.00    -0.092 S 
ATOM     16  C   UNL     1      -1.297  -3.171  -0.182  0.00  0.00    +0.078 A 
ENDBRANCH   7  16
ENDBRANCH   1   9
BRANCH   4  17
ATOM     17  C   UNL     1      -0.186  -3.796   6.085  0.00  0.00    +0.117 C 
BRANCH  17  18
ATOM     18  C   UNL     1      -0.266  -5.323   6.145  0.00  0.00    +0.011 C 
ATOM     19  C   UNL     1      -1.350  -5.940   7.031  0.00  0.00    +0.014 C 
ATOM     20  C   UNL     1      -1.485  -5.993   5.508  0.00  0.00    +0.014 C 
BRANCH  18  21
ATOM     21  C   UNL     1       1.053  -6.047   6.052  0.00  0.00    -0.036 A 
ATOM     22  C   UNL     1       1.336  -6.826   4.946  0.00  0.00    +0.008 A 
ATOM     23  C   UNL     1       2.545  -7.491   4.856  0.00  0.00    +0.050 A 
ATOM     24  C   UNL     1       3.475  -7.379   5.876  0.00  0.00    +0.166 A 
ATOM     25  C   UNL     1       3.190  -6.594   6.991  0.00  0.00    +0.167 A 
ATOM     26  C   UNL     1       1.979  -5.926   7.071  0.00  0.00    +0.053 A 
ATOM     27  O   UNL     1       4.254  -6.646   7.845  0.00  0.00    -0.453 OA
ATOM     28  C   UNL     1       5.022  -7.792   7.433  0.00  0.00    +0.466 C 
ATOM     29  O   UNL     1       4.718  -7.922   6.031  0.00  0.00    -0.453 OA
ENDBRANCH  18  21
ENDBRANCH  17  18
ENDBRANCH   4  17
TORSDOF 5
