REMARK  Name = ZINC03227522
REMARK  12 active torsions:
REMARK  status: ('A' for Active; 'I' for Inactive)
REMARK    1  A    between atoms: C_1  and  C_2
REMARK    2  A    between atoms: C_5  and  N_9
REMARK    3  A    between atoms: C_6  and  C_8
REMARK    4  A    between atoms: C_10  and  C_12
REMARK    5  A    between atoms: C_12  and  O_13
REMARK    6  A    between atoms: O_13  and  C_14
REMARK    7  A    between atoms: C_21  and  C_35
REMARK    8  A    between atoms: C_22  and  O_25
REMARK    9  A    between atoms: O_25  and  C_26
REMARK   10  A    between atoms: C_29  and  C_32
REMARK   11  A    between atoms: C_32  and  C_33
REMARK   12  A    between atoms: C_32  and  C_34
REMARK                            x       y       z     vdW  Elec       q    Type
REMARK                         _______ _______ _______ _____ _____    ______ ____
ROOT
ATOM      1  C   UNL     1      -1.092   8.355  -0.886  0.00  0.00    +0.125 A 
ATOM      2  C   UNL     1      -1.120   7.758  -2.145  0.00  0.00    +0.046 A 
ATOM      3  C   UNL     1      -1.162   6.398  -2.264  0.00  0.00    +0.019 A 
ATOM      4  C   UNL     1      -1.176   5.603  -1.117  0.00  0.00    +0.068 A 
ATOM      5  C   UNL     1      -1.147   6.197   0.158  0.00  0.00    +0.142 A 
ATOM      6  C   UNL     1      -1.105   7.580   0.262  0.00  0.00    +0.092 A 
ATOM      7  O   UNL     1      -1.162   5.418   1.259  0.00  0.00    -0.456 OA
ATOM      8  C   UNL     1      -1.207   4.081   1.193  0.00  0.00    +0.148 A 
ATOM      9  C   UNL     1      -1.231   3.410   0.025  0.00  0.00    +0.213 A 
ATOM     10  C   UNL     1      -1.220   4.133  -1.202  0.00  0.00    +0.235 A 
ATOM     11  O   UNL     1      -1.245   3.560  -2.278  0.00  0.00    -0.283 OA
ATOM     12  C   UNL     1      -1.226   3.295   2.478  0.00  0.00    +0.090 C 
ENDROOT
BRANCH   1  13
ATOM     13  O   UNL     1      -1.051   9.708  -0.783  0.00  0.00    -0.483 OA
BRANCH  13  14
ATOM     14  C   UNL     1      -1.039  10.451  -2.004  0.00  0.00    +0.324 C 
BRANCH  14  16
ATOM     15  N   UNL     1      -0.974  12.824  -2.698  0.00  0.00    -0.282 N 
ATOM     16  C   UNL     1      -0.993  11.925  -1.694  0.00  0.00    +0.255 C 
ATOM     17  O   UNL     1      -0.972  12.302  -0.542  0.00  0.00    -0.272 OA
ATOM     18  H   UNL     1      -0.910  12.523  -3.618  0.00  0.00    +0.155 HD
BRANCH  15  23
ATOM     19  C   UNL     1      -1.273  18.370  -1.544  0.00  0.00    +0.044 C 
ATOM     20  C   UNL     1      -1.194  16.897  -1.851  0.00  0.00    -0.050 A 
ATOM     21  C   UNL     1      -1.710  15.977  -0.956  0.00  0.00    +0.005 A 
ATOM     22  C   UNL     1      -1.639  14.627  -1.234  0.00  0.00    +0.024 A 
ATOM     23  C   UNL     1      -1.048  14.192  -2.413  0.00  0.00    +0.036 A 
ATOM     24  C   UNL     1      -0.526  15.118  -3.307  0.00  0.00    -0.029 A 
ATOM     25  C   UNL     1      -0.605  16.468  -3.026  0.00  0.00    +0.008 A 
ATOM     26  C   UNL     1       0.122  14.650  -4.585  0.00  0.00    +0.045 C 
ENDBRANCH  15  23
ENDBRANCH  14  16
ENDBRANCH  13  14
ENDBRANCH   1  13
BRANCH   9  27
ATOM     27  O   UNL     1      -1.272   2.049   0.017  0.00  0.00    -0.449 OA
BRANCH  27  28
ATOM     28  C   UNL     1      -0.092   1.376   0.004  0.00  0.00    +0.129 A 
ATOM     29  C   UNL     1       1.107   2.075  -0.008  0.00  0.00    +0.046 A 
ATOM     30  C   UNL     1       2.305   1.388  -0.027  0.00  0.00    +0.007 A 
ATOM     31  C   UNL     1       2.311   0.005  -0.035  0.00  0.00    -0.045 A 
ATOM     32  C   UNL     1       1.118  -0.694  -0.024  0.00  0.00    +0.007 A 
ATOM     33  C   UNL     1      -0.083  -0.012  -0.004  0.00  0.00    +0.046 A 
BRANCH  31  34
ATOM     34  C   UNL     1       3.620  -0.741  -0.056  0.00  0.00    +0.013 C 
ATOM     35  C   UNL     1       4.404  -0.360  -1.313  0.00  0.00    +0.012 C 
ATOM     36  C   UNL     1       4.436  -0.375   1.185  0.00  0.00    +0.012 C 
ENDBRANCH  31  34
ENDBRANCH  27  28
ENDBRANCH   9  27
TORSDOF 7
