REMARK  Name = ZINC54683292
REMARK  3 active torsions:
REMARK  status: ('A' for Active; 'I' for Inactive)
REMARK    1  A    between atoms: C_1  and  N_2
REMARK    2  A    between atoms: C_3  and  C_15
REMARK    3  A    between atoms: C_17  and  N_23
REMARK                            x       y       z     vdW  Elec       q    Type
REMARK                         _______ _______ _______ _____ _____    ______ ____
ROOT
ATOM      1  C   UNL     1      -0.287   1.591  -0.018  0.00  0.00    +0.134 C 
ATOM      2  N   UNL     1      -0.092   0.139   0.011  0.00  0.00    -0.278 N 
ATOM      3  C   UNL     1      -1.257  -0.740   0.115  0.00  0.00    +0.195 C 
ATOM      4  N   UNL     1      -1.000  -2.009  -0.576  0.00  0.00    -0.321 N 
ATOM      5  C   UNL     1       0.228  -2.632  -0.386  0.00  0.00    +0.042 A 
ATOM      6  C   UNL     1       0.370  -4.007  -0.456  0.00  0.00    +0.043 A 
ATOM      7  C   UNL     1       1.614  -4.577  -0.252  0.00  0.00    +0.043 A 
ATOM      8  C   UNL     1       2.717  -3.782   0.021  0.00  0.00    +0.021 A 
ATOM      9  C   UNL     1       2.592  -2.410   0.091  0.00  0.00    +0.016 A 
ATOM     10  C   UNL     1       1.346  -1.823  -0.114  0.00  0.00    +0.058 A 
ATOM     11  C   UNL     1       1.157  -0.363  -0.065  0.00  0.00    +0.250 C 
ATOM     12  O   UNL     1       2.119   0.382  -0.089  0.00  0.00    -0.270 OA
ATOM     13 CL   UNL     1       1.795  -6.301  -0.340  0.00  0.00    -0.083 Cl
ATOM     14  H   UNL     1      -1.673  -2.404  -1.153  0.00  0.00    +0.148 HD
ENDROOT
BRANCH   3  15
ATOM     15  C   UNL     1      -1.545  -1.016   1.568  0.00  0.00    +0.028 A 
ATOM     16  C   UNL     1      -1.099  -0.140   2.540  0.00  0.00    +0.045 A 
ATOM     17  C   UNL     1      -1.361  -0.393   3.873  0.00  0.00    +0.162 A 
ATOM     18  C   UNL     1      -2.072  -1.524   4.237  0.00  0.00    +0.156 A 
ATOM     19  C   UNL     1      -2.519  -2.402   3.265  0.00  0.00    +0.079 A 
ATOM     20  C   UNL     1      -2.260  -2.145   1.929  0.00  0.00    +0.133 A 
ATOM     21  F   UNL     1      -2.701  -2.999   0.979  0.00  0.00    -0.205 F 
ATOM     22  F   UNL     1      -2.328  -1.771   5.540  0.00  0.00    -0.203 F 
BRANCH  17  23
ATOM     23  N   UNL     1      -0.883   0.547   4.912  0.00  0.00    +0.059 N 
ATOM     24  O   UNL     1      -0.263   1.535   4.594  0.00  0.00    -0.126 OA
ATOM     25  O   UNL     1      -1.113   0.326   6.078  0.00  0.00    -0.126 OA
ENDBRANCH  17  23
ENDBRANCH   3  15
TORSDOF 2
