REMARK  Name = ZINC01303918
REMARK  6 active torsions:
REMARK  status: ('A' for Active; 'I' for Inactive)
REMARK    1  A    between atoms: C_1  and  C_2
REMARK    2  A    between atoms: C_5  and  C_7
REMARK    3  A    between atoms: C_14  and  C_34
REMARK    4  A    between atoms: C_15  and  C_25
REMARK    5  A    between atoms: C_16  and  C_18
REMARK    6  A    between atoms: N_27  and  C_28
REMARK                            x       y       z     vdW  Elec       q    Type
REMARK                         _______ _______ _______ _____ _____    ______ ____
ROOT
ATOM      1  C   UNL     1       2.905  -2.586  -1.724  0.00  0.00    +0.066 C 
ATOM      2  C   UNL     1       2.201  -1.602  -1.092  0.00  0.00    +0.084 A 
ATOM      3  C   UNL     1       0.765  -1.520  -0.808  0.00  0.00    +0.268 A 
ATOM      4  O   UNL     1       0.008  -2.412  -1.146  0.00  0.00    -0.266 OA
ATOM      5  N   UNL     1       0.310  -0.437  -0.166  0.00  0.00    -0.275 N 
ATOM      6  C   UNL     1       1.208   0.542   0.194  0.00  0.00    +0.178 A 
ATOM      7  N   UNL     1       0.880   1.642   0.823  0.00  0.00    -0.228 NA
ATOM      8  C   UNL     1      -0.353   1.961   1.198  0.00  0.00    +0.051 C 
ATOM      9  C   UNL     1      -1.398   1.121   0.936  0.00  0.00    +0.063 C 
ATOM     10  C   UNL     1      -1.107  -0.173   0.211  0.00  0.00    +0.160 C 
ATOM     11  C   UNL     1      -0.602   3.261   1.919  0.00  0.00    +0.066 C 
ATOM     12  S   UNL     1       2.779  -0.066  -0.388  0.00  0.00    -0.046 S 
ENDROOT
BRANCH  10  13
ATOM     13  C   UNL     1      -1.573  -1.309   1.085  0.00  0.00    -0.020 A 
ATOM     14  C   UNL     1      -0.875  -1.628   2.234  0.00  0.00    +0.009 A 
ATOM     15  C   UNL     1      -1.304  -2.666   3.039  0.00  0.00    +0.039 A 
ATOM     16  C   UNL     1      -2.429  -3.393   2.687  0.00  0.00    +0.123 A 
ATOM     17  C   UNL     1      -3.125  -3.076   1.533  0.00  0.00    +0.039 A 
ATOM     18  C   UNL     1      -2.696  -2.034   0.733  0.00  0.00    +0.009 A 
ATOM     19  F   UNL     1      -2.847  -4.412   3.471  0.00  0.00    -0.205 F 
ENDBRANCH  10  13
BRANCH   1  24
ATOM     20  C   UNL     1      -0.776  -5.289  -3.655  0.00  0.00    +0.086 C 
ATOM     21  C   UNL     1       0.603  -4.843  -3.242  0.00  0.00    +0.103 A 
ATOM     22  C   UNL     1       1.748  -5.521  -3.473  0.00  0.00    +0.045 A 
ATOM     23  C   UNL     1       2.797  -4.761  -2.933  0.00  0.00    +0.049 A 
ATOM     24  C   UNL     1       2.221  -3.634  -2.381  0.00  0.00    +0.129 A 
ATOM     25  O   UNL     1       0.889  -3.709  -2.586  0.00  0.00    -0.461 OA
ENDBRANCH   1  24
BRANCH   9  26
ATOM     26  C   UNL     1      -2.708   1.454   1.324  0.00  0.00    +0.248 C 
ATOM     27  O   UNL     1      -3.525   1.792   0.485  0.00  0.00    -0.270 OA
ATOM     28  N   UNL     1      -3.061   1.398   2.624  0.00  0.00    -0.282 N 
ATOM     29  H   UNL     1      -2.388   1.228   3.302  0.00  0.00    +0.155 HD
BRANCH  28  30
ATOM     30  C   UNL     1      -4.396   1.585   2.994  0.00  0.00    +0.034 A 
ATOM     31  C   UNL     1      -5.418   1.177   2.147  0.00  0.00    +0.023 A 
ATOM     32  C   UNL     1      -6.735   1.359   2.518  0.00  0.00    +0.002 A 
ATOM     33  C   UNL     1      -7.038   1.957   3.728  0.00  0.00    +0.000 A 
ATOM     34  C   UNL     1      -6.023   2.369   4.572  0.00  0.00    +0.002 A 
ATOM     35  C   UNL     1      -4.704   2.185   4.209  0.00  0.00    +0.023 A 
ENDBRANCH  28  30
ENDBRANCH   9  26
TORSDOF 4
