REMARK  Name = ZINC51096906
REMARK  9 active torsions:
REMARK  status: ('A' for Active; 'I' for Inactive)
REMARK    1  A    between atoms: C_1  and  C_2
REMARK    2  A    between atoms: C_2  and  C_3
REMARK    3  A    between atoms: C_8  and  N_9
REMARK    4  A    between atoms: C_10  and  C_12
REMARK    5  A    between atoms: C_12  and  C_14
REMARK    6  A    between atoms: C_12  and  N_15
REMARK    7  A    between atoms: C_18  and  N_21
REMARK    8  A    between atoms: C_22  and  C_24
REMARK    9  A    between atoms: C_27  and  C_29
REMARK                            x       y       z     vdW  Elec       q    Type
REMARK                         _______ _______ _______ _____ _____    ______ ____
ROOT
ATOM      1  N   UNL     1      -3.961  -0.563   5.064  0.00  0.00    +0.387 N 
ATOM      2  C   UNL     1      -5.385  -0.213   5.141  0.00  0.00    -0.076 C 
ATOM      3  C   UNL     1      -5.873  -0.360   6.584  0.00  0.00    +0.004 C 
ATOM      4  C   UNL     1      -5.676  -1.808   7.039  0.00  0.00    +0.070 C 
ATOM      5  C   UNL     1      -4.200  -2.186   6.885  0.00  0.00    +0.004 C 
ATOM      6  C   UNL     1      -3.774  -1.972   5.431  0.00  0.00    -0.076 C 
ATOM      7  H   UNL     1      -3.439   0.021   5.700  0.00  0.00    -0.081 HD
ENDROOT
BRANCH   4   8
ATOM      8  N   UNL     1      -6.070  -1.938   8.444  0.00  0.00    -0.306 N 
ATOM      9  C   UNL     1      -6.468  -3.133   8.925  0.00  0.00    +0.280 C 
ATOM     10  O   UNL     1      -6.499  -4.104   8.192  0.00  0.00    -0.267 OA
ATOM     11  H   UNL     1      -6.046  -1.164   9.028  0.00  0.00    +0.149 HD
BRANCH   9  12
ATOM     12  C   UNL     1      -6.863  -3.263  10.331  0.00  0.00    +0.189 A 
ATOM     13  C   UNL     1      -7.278  -4.410  10.945  0.00  0.00    +0.055 A 
ATOM     14  C   UNL     1      -7.550  -4.076  12.281  0.00  0.00    +0.045 A 
ATOM     15  C   UNL     1      -7.293  -2.757  12.422  0.00  0.00    +0.103 A 
ATOM     16  O   UNL     1      -6.874  -2.272  11.246  0.00  0.00    -0.455 OA
ATOM     17  C   UNL     1      -7.447  -1.964  13.694  0.00  0.00    +0.086 C 
ENDBRANCH   9  12
ENDBRANCH   4   8
BRANCH   1  18
ATOM     18  C   UNL     1      -3.478  -0.347   3.694  0.00  0.00    +0.016 C 
ATOM     19  C   UNL     1      -3.733   1.106   3.287  0.00  0.00    -0.004 C 
BRANCH  18  21
ATOM     20  N   UNL     1      -1.445  -1.058   2.478  0.00  0.00    -0.287 N 
ATOM     21  C   UNL     1      -2.000  -0.634   3.631  0.00  0.00    +0.203 C 
ATOM     22  O   UNL     1      -1.311  -0.485   4.617  0.00  0.00    -0.277 OA
ATOM     23  H   UNL     1      -1.983  -1.116   1.673  0.00  0.00    +0.155 HD
BRANCH  20  29
ATOM     24  C   UNL     1       0.350  -2.382   1.551  0.00  0.00    -0.026 A 
ATOM     25  C   UNL     1       1.687  -2.726   1.514  0.00  0.00    +0.005 A 
ATOM     26  C   UNL     1       2.584  -2.112   2.368  0.00  0.00    +0.000 A 
ATOM     27  C   UNL     1       2.147  -1.150   3.261  0.00  0.00    +0.002 A 
ATOM     28  C   UNL     1       0.811  -0.801   3.302  0.00  0.00    +0.023 A 
ATOM     29  C   UNL     1      -0.092  -1.413   2.443  0.00  0.00    +0.037 A 
BRANCH  24  31
ATOM     30  C   UNL     1      -0.810  -2.192  -0.632  0.00  0.00    +0.009 C 
ATOM     31  C   UNL     1      -0.627  -3.052   0.620  0.00  0.00    +0.033 C 
ENDBRANCH  24  31
ENDBRANCH  20  29
ENDBRANCH  18  21
ENDBRANCH   1  18
TORSDOF 6
