REMARK  Name = ZINC12497576
REMARK  10 active torsions:
REMARK  status: ('A' for Active; 'I' for Inactive)
REMARK    1  A    between atoms: C_1  and  C_2
REMARK    2  A    between atoms: C_2  and  O_3
REMARK    3  A    between atoms: O_3  and  C_4
REMARK    4  A    between atoms: C_4  and  C_6
REMARK    5  A    between atoms: C_6  and  C_30
REMARK    6  A    between atoms: C_11  and  C_13
REMARK    7  A    between atoms: N_20  and  C_23
REMARK    8  A    between atoms: C_30  and  C_31
REMARK    9  A    between atoms: C_31  and  S_32
REMARK   10  A    between atoms: S_32  and  C_33
REMARK                            x       y       z     vdW  Elec       q    Type
REMARK                         _______ _______ _______ _____ _____    ______ ____
ROOT
ATOM      1  C   UNL     1       5.301   5.721  -1.213  0.00  0.00    +0.045 C 
ATOM      2  C   UNL     1       3.977   5.286  -0.701  0.00  0.00    +0.086 C 
ATOM      3  C   UNL     1       4.382   4.650   0.688  0.00  0.00    +0.080 C 
ATOM      4  C   UNL     1       5.217   5.797   1.205  0.00  0.00    +0.010 C 
ATOM      5  C   UNL     1       3.021   4.279   1.137  0.00  0.00    +0.229 C 
ATOM      6  O   UNL     1       2.586   4.309   2.268  0.00  0.00    -0.275 OA
ATOM      7  N   UNL     1       2.358   3.895   0.001  0.00  0.00    -0.207 N 
ATOM      8  C   UNL     1       3.004   4.288  -1.145  0.00  0.00    +0.229 C 
ATOM      9  O   UNL     1       2.809   3.896  -2.275  0.00  0.00    -0.275 OA
ATOM     10  N   UNL     1       6.043   6.144   0.009  0.00  0.00    +0.397 N 
ATOM     11  H   UNL     1       6.207   7.157  -0.017  0.00  0.00    -0.083 HD
ATOM     12  H   UNL     1       6.944   5.652   0.056  0.00  0.00    -0.083 HD
ENDROOT
BRANCH   7  13
ATOM     13  C   UNL     1       1.155   3.173   0.008  0.00  0.00    +0.079 A 
ATOM     14  C   UNL     1      -0.059   3.846   0.023  0.00  0.00    +0.027 A 
ATOM     15  C   UNL     1      -1.242   3.133   0.031  0.00  0.00    +0.002 A 
ATOM     16  C   UNL     1      -1.219   1.750   0.017  0.00  0.00    +0.003 A 
ATOM     17  C   UNL     1      -0.013   1.076   0.008  0.00  0.00    +0.040 A 
ATOM     18  C   UNL     1       1.176   1.783   0.000  0.00  0.00    +0.145 A 
ATOM     19  F   UNL     1       2.356   1.125  -0.014  0.00  0.00    -0.204 F 
ENDBRANCH   7  13
BRANCH   4  20
ATOM     20  C   UNL     1       4.342   6.955   1.611  0.00  0.00    +0.092 A 
ATOM     21  C   UNL     1       3.973   7.259   2.868  0.00  0.00    +0.043 A 
ATOM     22  C   UNL     1       3.160   8.413   2.789  0.00  0.00    +0.041 A 
ATOM     23  C   UNL     1       3.082   8.746   1.488  0.00  0.00    +0.195 A 
ATOM     24  O   UNL     1       3.805   7.863   0.780  0.00  0.00    -0.469 OA
ENDBRANCH   4  20
BRANCH   1  25
ATOM     25  C   UNL     1       5.142   6.878  -2.166  0.00  0.00    +0.297 C 
ATOM     26  O   UNL     1       4.124   6.998  -2.805  0.00  0.00    -0.252 OA
BRANCH  25  27
ATOM     27  O   UNL     1       6.132   7.774  -2.303  0.00  0.00    -0.466 OA
BRANCH  27  29
ATOM     28  C   UNL     1       7.137   9.775  -3.260  0.00  0.00    +0.048 C 
ATOM     29  C   UNL     1       5.910   8.862  -3.239  0.00  0.00    +0.228 C 
ENDBRANCH  27  29
ENDBRANCH  25  27
ENDBRANCH   1  25
BRANCH   1  30
ATOM     30  C   UNL     1       6.016   4.556  -1.900  0.00  0.00    +0.010 C 
BRANCH  30  31
ATOM     31  C   UNL     1       7.453   4.964  -2.233  0.00  0.00    +0.068 C 
BRANCH  31  32
ATOM     32  S   UNL     1       8.301   3.583  -3.048  0.00  0.00    -0.164 S 
ATOM     33  C   UNL     1       9.968   4.221  -3.371  0.00  0.00    +0.084 C 
ENDBRANCH  31  32
ENDBRANCH  30  31
ENDBRANCH   1  30
TORSDOF 8
