REMARK  Name = ZINC16949489
REMARK  6 active torsions:
REMARK  status: ('A' for Active; 'I' for Inactive)
REMARK    1  A    between atoms: C_1  and  C_2
REMARK    2  A    between atoms: N_4  and  C_5
REMARK    3  A    between atoms: N_4  and  C_12
REMARK    4  A    between atoms: C_5  and  C_6
REMARK    5  A    between atoms: C_12  and  C_28
REMARK    6  A    between atoms: N_30  and  C_31
REMARK                            x       y       z     vdW  Elec       q    Type
REMARK                         _______ _______ _______ _____ _____    ______ ____
ROOT
ATOM      1  C   UNL     1       5.568   2.737   0.536  0.00  0.00    +0.114 C 
ATOM      2  C   UNL     1       5.253   1.478  -0.276  0.00  0.00    +0.036 C 
ATOM      3  C   UNL     1       3.924   0.900   0.206  0.00  0.00    +0.007 C 
ATOM      4  C   UNL     1       2.796   1.915  -0.001  0.00  0.00    -0.003 C 
ATOM      5  C   UNL     1       1.505   1.323   0.572  0.00  0.00    +0.039 C 
ATOM      6  C   UNL     1       0.410   2.351   0.628  0.00  0.00    -0.044 A 
ATOM      7  C   UNL     1      -0.898   1.901   0.763  0.00  0.00    +0.004 A 
ATOM      8  C   UNL     1      -1.944   2.798   0.835  0.00  0.00    +0.000 A 
ATOM      9  C   UNL     1      -1.688   4.155   0.784  0.00  0.00    +0.000 A 
ATOM     10  C   UNL     1      -0.392   4.604   0.645  0.00  0.00    +0.004 A 
ATOM     11  C   UNL     1       0.662   3.702   0.562  0.00  0.00    -0.044 A 
ATOM     12  C   UNL     1       2.049   4.255   0.389  0.00  0.00    +0.039 C 
ATOM     13  C   UNL     1       3.112   3.213   0.750  0.00  0.00    -0.001 C 
ATOM     14  C   UNL     1       4.473   3.759   0.305  0.00  0.00    +0.039 C 
ENDROOT
BRANCH   1  18
ATOM     15  C   UNL     1       5.528   0.772   3.819  0.00  0.00    +0.109 C 
ATOM     16  C   UNL     1       5.580   1.113   2.352  0.00  0.00    +0.214 C 
ATOM     17  O   UNL     1       5.583   0.227   1.523  0.00  0.00    -0.276 OA
ATOM     18  N   UNL     1       5.622   2.402   1.961  0.00  0.00    -0.283 N 
BRANCH  18  19
ATOM     19  C   UNL     1       5.723   3.468   2.961  0.00  0.00    +0.144 C 
BRANCH  19  20
ATOM     20  C   UNL     1       4.341   3.869   3.409  0.00  0.00    -0.030 A 
ATOM     21  C   UNL     1       3.708   4.946   2.818  0.00  0.00    +0.005 A 
ATOM     22  C   UNL     1       2.439   5.311   3.227  0.00  0.00    +0.000 A 
ATOM     23  C   UNL     1       1.806   4.604   4.232  0.00  0.00    +0.000 A 
ATOM     24  C   UNL     1       2.442   3.530   4.827  0.00  0.00    +0.000 A 
ATOM     25  C   UNL     1       3.709   3.162   4.415  0.00  0.00    +0.005 A 
ENDBRANCH  19  20
ENDBRANCH  18  19
ENDBRANCH   1  18
BRANCH   1  26
ATOM     26  C   UNL     1       6.895   3.302   0.099  0.00  0.00    +0.237 C 
ATOM     27  O   UNL     1       6.939   4.138  -0.778  0.00  0.00    -0.273 OA
ATOM     28  N   UNL     1       8.033   2.877   0.683  0.00  0.00    -0.308 N 
ATOM     29  H   UNL     1       8.006   2.155   1.329  0.00  0.00    +0.149 HD
BRANCH  28  30
ATOM     30  C   UNL     1       9.311   3.506   0.340  0.00  0.00    +0.035 C 
ATOM     31  C   UNL     1       9.218   5.014   0.584  0.00  0.00    +0.029 C 
ATOM     32  C   UNL     1      10.553   5.672   0.226  0.00  0.00    -0.008 C 
ATOM     33  C   UNL     1      11.662   5.082   1.099  0.00  0.00    +0.007 C 
ATOM     34  C   UNL     1      11.755   3.574   0.856  0.00  0.00    -0.008 C 
ATOM     35  C   UNL     1      10.420   2.916   1.214  0.00  0.00    +0.029 C 
ATOM     36  C   UNL     1      12.073   3.313  -0.618  0.00  0.00    +0.007 C 
ATOM     37  C   UNL     1      10.964   3.904  -1.491  0.00  0.00    -0.008 C 
ATOM     38  C   UNL     1      10.871   5.411  -1.248  0.00  0.00    +0.007 C 
ATOM     39  C   UNL     1       9.629   3.246  -1.133  0.00  0.00    +0.029 C 
ENDBRANCH  28  30
ENDBRANCH   1  26
TORSDOF 5
