REMARK  Name = ZINC14248338
REMARK  10 active torsions:
REMARK  status: ('A' for Active; 'I' for Inactive)
REMARK    1  A    between atoms: C_1  and  C_2
REMARK    2  A    between atoms: C_2  and  C_3
REMARK    3  A    between atoms: C_2  and  C_4
REMARK    4  A    between atoms: C_7  and  S_10
REMARK    5  A    between atoms: S_10  and  N_13
REMARK    6  A    between atoms: C_16  and  C_19
REMARK    7  A    between atoms: N_21  and  C_22
REMARK    8  A    between atoms: C_22  and  C_23
REMARK    9  A    between atoms: C_23  and  C_25
REMARK   10  A    between atoms: C_23  and  N_71
REMARK                            x       y       z     vdW  Elec       q    Type
REMARK                         _______ _______ _______ _____ _____    ______ ____
ROOT
ATOM      1  N   UNL     1       1.129   4.182   1.561  0.00  0.00    -0.177 NA
ATOM      2  C   UNL     1      -0.144   4.355   2.275  0.00  0.00    +0.110 C 
ATOM      3  C   UNL     1      -0.075   3.570   3.593  0.00  0.00    +0.030 C 
ATOM      4  C   UNL     1       1.155   4.019   4.385  0.00  0.00    +0.077 C 
ATOM      5  C   UNL     1       2.421   3.717   3.578  0.00  0.00    +0.030 C 
ATOM      6  C   UNL     1       2.381   4.499   2.262  0.00  0.00    +0.110 C 
ENDROOT
BRANCH   4   7
ATOM      7  C   UNL     1       1.207   3.278   5.696  0.00  0.00    +0.216 C 
ATOM      8  O   UNL     1       2.161   2.578   5.960  0.00  0.00    -0.276 OA
ATOM      9  N   UNL     1       0.192   3.393   6.575  0.00  0.00    -0.316 N 
ATOM     10  H   UNL     1      -0.571   3.953   6.365  0.00  0.00    +0.149 HD
BRANCH   9  11
ATOM     11  C   UNL     1       0.242   2.673   7.850  0.00  0.00    +0.096 C 
BRANCH  11  12
ATOM     12  C   UNL     1      -1.022   2.974   8.656  0.00  0.00    +0.016 C 
BRANCH  12  18
ATOM     13  C   UNL     1       0.018   5.013   9.444  0.00  0.00    -0.078 C 
ATOM     14  C   UNL     1      -0.108   6.538   9.455  0.00  0.00    -0.019 C 
ATOM     15  C   UNL     1      -1.369   6.935  10.228  0.00  0.00    -0.004 C 
ATOM     16  C   UNL     1      -2.587   6.273   9.577  0.00  0.00    -0.019 C 
ATOM     17  C   UNL     1      -2.389   4.756   9.562  0.00  0.00    -0.078 C 
ATOM     18  N   UNL     1      -1.173   4.439   8.783  0.00  0.00    +0.387 N 
ATOM     19  H   UNL     1      -1.263   4.846   7.845  0.00  0.00    -0.081 HD
ENDBRANCH  12  18
BRANCH  12  20
ATOM     20  C   UNL     1      -0.916   2.333  10.016  0.00  0.00    +0.093 A 
ATOM     21  C   UNL     1      -1.603   1.254  10.433  0.00  0.00    +0.043 A 
ATOM     22  C   UNL     1      -1.196   0.999  11.763  0.00  0.00    +0.041 A 
ATOM     23  C   UNL     1      -0.285   1.937  12.079  0.00  0.00    +0.195 A 
ATOM     24  O   UNL     1      -0.115   2.739  11.015  0.00  0.00    -0.469 OA
ENDBRANCH  12  20
ENDBRANCH  11  12
ENDBRANCH   9  11
ENDBRANCH   4   7
BRANCH   1  25
ATOM     25  S   UNL     1       1.151   3.646  -0.006  0.00  0.00    +0.061 S 
ATOM     26  O   UNL     1       2.368   4.108  -0.576  0.00  0.00    -0.153 OA
ATOM     27  O   UNL     1      -0.118   3.960  -0.561  0.00  0.00    -0.153 OA
BRANCH  25  31
ATOM     28  C   UNL     1       1.421  -0.871   0.128  0.00  0.00    -0.045 A 
ATOM     29  C   UNL     1       0.184  -0.252   0.115  0.00  0.00    +0.006 A 
ATOM     30  C   UNL     1       0.102   1.127   0.074  0.00  0.00    +0.029 A 
ATOM     31  C   UNL     1       1.256   1.888   0.047  0.00  0.00    +0.105 A 
ATOM     32  C   UNL     1       2.492   1.269   0.058  0.00  0.00    +0.029 A 
ATOM     33  C   UNL     1       2.575  -0.110   0.100  0.00  0.00    +0.006 A 
BRANCH  28  35
ATOM     34  C   UNL     1       2.255  -2.879  -1.064  0.00  0.00    +0.012 C 
ATOM     35  C   UNL     1       1.510  -2.375   0.174  0.00  0.00    +0.013 C 
ATOM     36  C   UNL     1       2.267  -2.803   1.433  0.00  0.00    +0.012 C 
ENDBRANCH  28  35
ENDBRANCH  25  31
ENDBRANCH   1  25
TORSDOF 8
