REMARK  Name = ZINC41023746
REMARK  11 active torsions:
REMARK  status: ('A' for Active; 'I' for Inactive)
REMARK    1  A    between atoms: C_1  and  C_2
REMARK    2  A    between atoms: C_2  and  O_3
REMARK    3  A    between atoms: O_3  and  C_4
REMARK    4  A    between atoms: C_5  and  O_33
REMARK    5  A    between atoms: C_7  and  C_11
REMARK    6  A    between atoms: C_13  and  C_22
REMARK    7  A    between atoms: C_14  and  C_21
REMARK    8  A    between atoms: N_24  and  C_25
REMARK    9  A    between atoms: C_29  and  C_32
REMARK   10  A    between atoms: C_30  and  C_31
REMARK   11  A    between atoms: O_33  and  C_34
REMARK                            x       y       z     vdW  Elec       q    Type
REMARK                         _______ _______ _______ _____ _____    ______ ____
ROOT
ATOM      1  C   UNL     1       1.475  -6.456   1.833  0.00  0.00    +0.179 C 
ATOM      2  C   UNL     1       1.425  -6.884   0.390  0.00  0.00    +0.060 C 
ATOM      3  C   UNL     1       2.513  -7.250  -0.303  0.00  0.00    +0.018 C 
ATOM      4  N   UNL     1       3.767  -7.274   0.257  0.00  0.00    -0.286 N 
ATOM      5  C   UNL     1       3.850  -7.156   1.637  0.00  0.00    +0.240 A 
ATOM      6  N   UNL     1       2.784  -6.778   2.389  0.00  0.00    -0.201 N 
ATOM      7  N   UNL     1       3.235  -6.780   3.707  0.00  0.00    -0.042 NA
ATOM      8  N   UNL     1       4.480  -7.134   3.669  0.00  0.00    -0.021 NA
ATOM      9  N   UNL     1       4.846  -7.355   2.452  0.00  0.00    -0.092 NA
ATOM     10  C   UNL     1       2.354  -7.650  -1.748  0.00  0.00    +0.061 C 
ATOM     11  H   UNL     1       4.562  -7.370  -0.290  0.00  0.00    +0.155 HD
ENDROOT
BRANCH   1  15
ATOM     12  C   UNL     1       0.818  -2.237   2.090  0.00  0.00    +0.176 A 
ATOM     13  C   UNL     1      -0.001  -3.113   2.795  0.00  0.00    +0.163 A 
ATOM     14  C   UNL     1       0.215  -4.479   2.710  0.00  0.00    +0.055 A 
ATOM     15  C   UNL     1       1.242  -4.970   1.925  0.00  0.00    -0.014 A 
ATOM     16  C   UNL     1       2.056  -4.100   1.224  0.00  0.00    +0.025 A 
ATOM     17  C   UNL     1       1.843  -2.735   1.300  0.00  0.00    +0.063 A 
ATOM     18 BR   UNL     1       2.954  -1.549   0.334  0.00  0.00    -0.046 Br
BRANCH  13  19
ATOM     19  O   UNL     1      -1.010  -2.630   3.567  0.00  0.00    -0.491 OA
ATOM     20  C   UNL     1      -1.876  -3.589   4.178  0.00  0.00    +0.277 C 
ENDBRANCH  13  19
BRANCH  12  21
ATOM     21  O   UNL     1       0.611  -0.895   2.171  0.00  0.00    -0.487 OA
BRANCH  21  23
ATOM     22  C   UNL     1      -0.390   1.188   1.464  0.00  0.00    +0.048 C 
ATOM     23  C   UNL     1      -0.284  -0.319   1.217  0.00  0.00    +0.226 C 
ENDBRANCH  21  23
ENDBRANCH  12  21
ENDBRANCH   1  15
BRANCH   2  24
ATOM     24  C   UNL     1       0.171  -6.901  -0.265  0.00  0.00    +0.248 C 
ATOM     25  O   UNL     1      -0.621  -7.799  -0.041  0.00  0.00    -0.270 OA
ATOM     26  N   UNL     1      -0.147  -5.924  -1.137  0.00  0.00    -0.281 N 
ATOM     27  H   UNL     1       0.508  -5.247  -1.368  0.00  0.00    +0.155 HD
BRANCH  26  28
ATOM     28  C   UNL     1      -1.423  -5.885  -1.708  0.00  0.00    +0.037 A 
ATOM     29  C   UNL     1      -2.475  -6.566  -1.109  0.00  0.00    +0.023 A 
ATOM     30  C   UNL     1      -3.734  -6.525  -1.676  0.00  0.00    +0.002 A 
ATOM     31  C   UNL     1      -3.947  -5.808  -2.839  0.00  0.00    +0.004 A 
ATOM     32  C   UNL     1      -2.902  -5.130  -3.439  0.00  0.00    -0.046 A 
ATOM     33  C   UNL     1      -1.642  -5.162  -2.873  0.00  0.00    -0.026 A 
ATOM     34  C   UNL     1      -0.504  -4.418  -3.524  0.00  0.00    +0.046 C 
ATOM     35  C   UNL     1      -3.139  -4.351  -4.706  0.00  0.00    +0.044 C 
ENDBRANCH  26  28
ENDBRANCH   2  24
TORSDOF 6
