REMARK  Name = ZINC63490726
REMARK  7 active torsions:
REMARK  status: ('A' for Active; 'I' for Inactive)
REMARK    1  A    between atoms: C_7  and  C_10
REMARK    2  A    between atoms: C_10  and  C_11
REMARK    3  A    between atoms: C_11  and  N_12
REMARK    4  A    between atoms: C_13  and  C_15
REMARK    5  A    between atoms: N_18  and  S_21
REMARK    6  A    between atoms: S_21  and  C_24
REMARK    7  A    between atoms: C_27  and  N_30
REMARK                            x       y       z     vdW  Elec       q    Type
REMARK                         _______ _______ _______ _____ _____    ______ ____
ROOT
ATOM      1  C   UNL     1      -1.728  -6.577  -2.667  0.00  0.00    +0.077 C 
ATOM      2  C   UNL     1      -3.052  -6.153  -2.027  0.00  0.00    +0.030 C 
ATOM      3  C   UNL     1      -4.001  -7.355  -1.982  0.00  0.00    +0.110 C 
ATOM      4  N   UNL     1      -4.134  -7.903  -3.339  0.00  0.00    -0.177 NA
ATOM      5  C   UNL     1      -2.916  -8.259  -4.080  0.00  0.00    +0.110 C 
ATOM      6  C   UNL     1      -1.980  -7.047  -4.101  0.00  0.00    +0.030 C 
ENDROOT
BRANCH   1   8
ATOM      7  N   UNL     1      -0.412  -4.822  -1.524  0.00  0.00    -0.315 N 
ATOM      8  C   UNL     1      -0.780  -5.405  -2.682  0.00  0.00    +0.216 C 
ATOM      9  O   UNL     1      -0.348  -4.988  -3.735  0.00  0.00    -0.276 OA
ATOM     10  H   UNL     1      -0.757  -5.155  -0.681  0.00  0.00    +0.149 HD
BRANCH   7  11
ATOM     11  C   UNL     1       0.509  -3.683  -1.538  0.00  0.00    +0.108 C 
BRANCH  11  12
ATOM     12  C   UNL     1       0.761  -3.212  -0.104  0.00  0.00    +0.052 C 
BRANCH  12  19
ATOM     13  C   UNL     1       0.082   1.326  -0.076  0.00  0.00    +0.001 A 
ATOM     14  C   UNL     1       1.268   2.072  -0.098  0.00  0.00    +0.002 A 
ATOM     15  C   UNL     1       2.490   1.498  -0.124  0.00  0.00    +0.026 A 
ATOM     16  C   UNL     1       2.619   0.082  -0.131  0.00  0.00    +0.043 A 
ATOM     17  N   UNL     1       3.672  -0.699  -0.155  0.00  0.00    -0.380 N 
ATOM     18  C   UNL     1       3.220  -2.094  -0.150  0.00  0.00    +0.144 C 
ATOM     19  C   UNL     1       1.709  -2.041  -0.119  0.00  0.00    -0.040 C 
ATOM     20  C   UNL     1       1.381  -0.729  -0.108  0.00  0.00    -0.001 A 
ATOM     21  C   UNL     1       0.092  -0.027  -0.080  0.00  0.00    +0.010 A 
ATOM     22  H   UNL     1       4.596  -0.403  -0.173  0.00  0.00    +0.160 HD
ENDBRANCH  12  19
ENDBRANCH  11  12
ENDBRANCH   7  11
ENDBRANCH   1   8
BRANCH   4  23
ATOM     23  S   UNL     1      -5.628  -8.116  -4.020  0.00  0.00    +0.061 S 
ATOM     24  O   UNL     1      -5.483  -9.123  -5.012  0.00  0.00    -0.153 OA
ATOM     25  O   UNL     1      -6.551  -8.233  -2.946  0.00  0.00    -0.153 OA
BRANCH  23  26
ATOM     26  C   UNL     1      -6.031  -6.626  -4.870  0.00  0.00    +0.106 A 
ATOM     27  C   UNL     1      -6.697  -5.612  -4.207  0.00  0.00    +0.030 A 
ATOM     28  C   UNL     1      -7.014  -4.442  -4.870  0.00  0.00    +0.025 A 
ATOM     29  C   UNL     1      -6.662  -4.286  -6.205  0.00  0.00    +0.036 A 
ATOM     30  C   UNL     1      -5.992  -5.306  -6.867  0.00  0.00    +0.025 A 
ATOM     31  C   UNL     1      -5.674  -6.471  -6.197  0.00  0.00    +0.030 A 
BRANCH  29  32
ATOM     32  N   UNL     1      -6.981  -3.103  -6.880  0.00  0.00    -0.271 N 
ATOM     33  C   UNL     1      -6.558  -2.790  -8.250  0.00  0.00    +0.114 C 
ATOM     34  C   UNL     1      -7.476  -1.638  -8.713  0.00  0.00    +0.029 C 
ATOM     35  C   UNL     1      -7.872  -0.989  -7.366  0.00  0.00    +0.098 C 
ATOM     36  C   UNL     1      -7.721  -2.108  -6.359  0.00  0.00    +0.220 C 
ATOM     37  O   UNL     1      -8.196  -2.107  -5.243  0.00  0.00    -0.275 OA
ENDBRANCH  29  32
ENDBRANCH  23  26
ENDBRANCH   4  23
TORSDOF 7
