REMARK  Name = ZINC08995751
REMARK  6 active torsions:
REMARK  status: ('A' for Active; 'I' for Inactive)
REMARK    1  A    between atoms: C_1  and  C_2
REMARK    2  A    between atoms: C_11  and  O_14
REMARK    3  A    between atoms: C_12  and  C_13
REMARK    4  A    between atoms: O_14  and  C_15
REMARK    5  A    between atoms: C_15  and  C_16
REMARK    6  A    between atoms: C_16  and  N_18
REMARK                            x       y       z     vdW  Elec       q    Type
REMARK                         _______ _______ _______ _____ _____    ______ ____
ROOT
ATOM      1  O   UNL     1       0.086  -2.948   4.751  0.00  0.00    -0.482 OA
ENDROOT
BRANCH   1  12
ATOM      2  C   UNL     1      -0.018   1.503   0.010  0.00  0.00    +0.045 C 
ATOM      3  C   UNL     1       0.002  -0.004   0.002  0.00  0.00    -0.033 A 
ATOM      4  C   UNL     1       0.006  -0.695  -1.167  0.00  0.00    +0.096 A 
ATOM      5  C   UNL     1       0.026  -2.105  -1.149  0.00  0.00    +0.337 A 
ATOM      6  O   UNL     1       0.030  -2.712  -2.204  0.00  0.00    -0.245 OA
ATOM      7  O   UNL     1       0.041  -2.795   0.003  0.00  0.00    -0.422 OA
ATOM      8  C   UNL     1       0.038  -2.169   1.199  0.00  0.00    +0.146 A 
ATOM      9  C   UNL     1       0.024  -0.763   1.254  0.00  0.00    +0.021 A 
ATOM     10  C   UNL     1       0.026  -0.111   2.492  0.00  0.00    +0.015 A 
ATOM     11  C   UNL     1       0.046  -0.842   3.644  0.00  0.00    +0.047 A 
ATOM     12  C   UNL     1       0.066  -2.234   3.596  0.00  0.00    +0.128 A 
ATOM     13  C   UNL     1       0.053  -2.897   2.379  0.00  0.00    +0.034 A 
ATOM     14  C   UNL     1       0.074  -4.403   2.338  0.00  0.00    +0.051 C 
ENDBRANCH   1  12
BRANCH   1  15
ATOM     15  C   UNL     1       0.087  -2.206   5.972  0.00  0.00    +0.326 C 
BRANCH  15  16
ATOM     16  C   UNL     1       0.111  -3.159   7.139  0.00  0.00    +0.276 C 
ATOM     17  O   UNL     1       0.126  -4.359   6.944  0.00  0.00    -0.270 OA
BRANCH  16  18
ATOM     18  N   UNL     1       0.116  -2.688   8.381  0.00  0.00    -0.154 NA
ATOM     19  C   UNL     1       0.137  -3.530   9.412  0.00  0.00    +0.164 A 
ATOM     20  N   UNL     1       0.140  -3.226  10.735  0.00  0.00    -0.335 N 
ATOM     21  H   UNL     1       0.125  -2.300  11.021  0.00  0.00    +0.168 HD
ATOM     22  C   UNL     1       0.163  -4.241  11.673  0.00  0.00    +0.055 A 
ATOM     23  C   UNL     1       0.170  -4.153  13.072  0.00  0.00    +0.027 A 
ATOM     24  C   UNL     1       0.195  -5.290  13.845  0.00  0.00    +0.002 A 
ATOM     25  C   UNL     1       0.214  -6.549  13.268  0.00  0.00    +0.001 A 
ATOM     26  C   UNL     1       0.207  -6.663  11.889  0.00  0.00    +0.017 A 
ATOM     27  C   UNL     1       0.182  -5.527  11.116  0.00  0.00    +0.039 A 
ATOM     28  S   UNL     1       0.160  -5.210   9.371  0.00  0.00    -0.052 S 
ENDBRANCH  16  18
ENDBRANCH  15  16
ENDBRANCH   1  15
TORSDOF 4
