REMARK  Name = ZINC35882757
REMARK  12 active torsions:
REMARK  status: ('A' for Active; 'I' for Inactive)
REMARK    1  A    between atoms: C_1  and  C_2
REMARK    2  A    between atoms: C_6  and  C_31
REMARK    3  A    between atoms: C_6  and  C_32
REMARK    4  A    between atoms: C_13  and  C_15
REMARK    5  A    between atoms: C_15  and  C_16
REMARK    6  A    between atoms: C_16  and  C_17
REMARK    7  A    between atoms: C_21  and  C_22
REMARK    8  A    between atoms: C_22  and  N_23
REMARK    9  A    between atoms: N_23  and  C_24
REMARK   10  A    between atoms: C_24  and  C_25
REMARK   11  A    between atoms: C_32  and  O_34
REMARK   12  A    between atoms: O_34  and  C_35
REMARK                            x       y       z     vdW  Elec       q    Type
REMARK                         _______ _______ _______ _____ _____    ______ ____
ROOT
ATOM      1  C   UNL     1      -3.379   0.069   0.874  0.00  0.00    +0.013 C 
ENDROOT
BRANCH   1  13
ATOM      2  C   UNL     1      -1.172   1.815   1.500  0.00  0.00    +0.012 C 
ATOM      3  C   UNL     1      -0.893   0.332   1.211  0.00  0.00    -0.022 C 
ATOM      4  C   UNL     1      -0.694   0.144  -0.290  0.00  0.00    +0.007 C 
ATOM      5  C   UNL     1       0.567   0.882  -0.747  0.00  0.00    +0.002 C 
ATOM      6  C   UNL     1       1.786   0.335  -0.015  0.00  0.00    +0.018 C 
ATOM      7  C   UNL     1       1.632   0.457   1.499  0.00  0.00    +0.068 C 
ATOM      8  C   UNL     1       0.326  -0.182   1.971  0.00  0.00    +0.012 C 
ATOM      9  C   UNL     1       0.469  -1.700   1.802  0.00  0.00    +0.009 C 
ATOM     10  C   UNL     1      -0.779  -2.463   2.252  0.00  0.00    +0.031 C 
ATOM     11  C   UNL     1      -1.969  -1.884   1.519  0.00  0.00    -0.073 C 
ATOM     12  C   UNL     1      -2.769  -2.627   0.805  0.00  0.00    +0.008 C 
ATOM     13  C   UNL     1      -2.166  -0.398   1.672  0.00  0.00    +0.021 C 
ATOM     14  C   UNL     1       1.779   1.916   1.933  0.00  0.00    +0.023 C 
BRANCH   7  15
ATOM     15  C   UNL     1       2.813  -0.271   2.130  0.00  0.00    +0.313 C 
ATOM     16  O   UNL     1       3.685  -0.728   1.430  0.00  0.00    -0.250 OA
BRANCH  15  17
ATOM     17  O   UNL     1       2.884  -0.405   3.464  0.00  0.00    -0.468 OA
ATOM     18  C   UNL     1       4.018  -1.099   3.987  0.00  0.00    +0.280 C 
ENDBRANCH  15  17
ENDBRANCH   7  15
ENDBRANCH   1  13
BRANCH   1  19
ATOM     19  C   UNL     1      -4.649  -0.531   1.479  0.00  0.00    +0.039 C 
BRANCH  19  20
ATOM     20  C   UNL     1      -5.853  -0.021   0.729  0.00  0.00    -0.008 A 
ATOM     21  C   UNL     1      -6.654   1.091   1.078  0.00  0.00    +0.045 A 
ATOM     22  C   UNL     1      -7.613   1.190   0.140  0.00  0.00    +0.195 A 
ATOM     23  O   UNL     1      -7.436   0.203  -0.754  0.00  0.00    -0.469 OA
ATOM     24  C   UNL     1      -6.367  -0.531  -0.404  0.00  0.00    +0.091 A 
BRANCH  24  25
ATOM     25  C   UNL     1      -5.835  -1.726  -1.153  0.00  0.00    -0.006 C 
BRANCH  25  26
ATOM     26  N   UNL     1      -6.481  -2.946  -0.650  0.00  0.00    +0.386 N 
ATOM     27  H   UNL     1      -6.283  -3.050   0.334  0.00  0.00    -0.085 HD
ATOM     28  H   UNL     1      -7.479  -2.880  -0.788  0.00  0.00    -0.085 HD
BRANCH  26  29
ATOM     29  C   UNL     1      -5.963  -4.111  -1.380  0.00  0.00    -0.046 C 
BRANCH  29  30
ATOM     30  C   UNL     1      -6.626  -5.362  -0.864  0.00  0.00    -0.064 A 
ATOM     31  C   UNL     1      -6.064  -6.057   0.191  0.00  0.00    +0.002 A 
ATOM     32  C   UNL     1      -6.672  -7.205   0.664  0.00  0.00    +0.000 A 
ATOM     33  C   UNL     1      -7.842  -7.658   0.082  0.00  0.00    +0.000 A 
ATOM     34  C   UNL     1      -8.404  -6.962  -0.972  0.00  0.00    +0.000 A 
ATOM     35  C   UNL     1      -7.798  -5.812  -1.442  0.00  0.00    +0.002 A 
ENDBRANCH  29  30
ENDBRANCH  26  29
ENDBRANCH  25  26
ENDBRANCH  24  25
ENDBRANCH  19  20
ENDBRANCH   1  19
TORSDOF 9
