REMARK  Name = ZINC02393148
REMARK  9 active torsions:
REMARK  status: ('A' for Active; 'I' for Inactive)
REMARK    1  A    between atoms: C_1  and  O_2
REMARK    2  A    between atoms: O_2  and  C_3
REMARK    3  A    between atoms: C_6  and  C_11
REMARK    4  A    between atoms: C_8  and  O_9
REMARK    5  A    between atoms: O_9  and  C_10
REMARK    6  A    between atoms: N_12  and  N_13
REMARK    7  A    between atoms: C_14  and  N_34
REMARK    8  A    between atoms: C_15  and  S_26
REMARK    9  A    between atoms: S_26  and  C_29
REMARK                            x       y       z     vdW  Elec       q    Type
REMARK                         _______ _______ _______ _____ _____    ______ ____
ROOT
ATOM      1  N   UNL     1      -7.299  -2.568   0.054  0.00  0.00    -0.197 N 
ATOM      2  C   UNL     1      -8.012  -2.942  -1.060  0.00  0.00    +0.148 A 
ATOM      3  C   UNL     1      -9.169  -3.548  -0.706  0.00  0.00    +0.160 A 
ATOM      4  C   UNL     1      -9.234  -3.582   0.708  0.00  0.00    +0.113 A 
ATOM      5  C   UNL     1      -8.000  -2.942   1.183  0.00  0.00    +0.182 A 
ATOM      6  N   UNL     1      -7.779  -2.832   2.474  0.00  0.00    -0.224 NA
ATOM      7  C   UNL     1      -8.677  -3.307   3.347  0.00  0.00    +0.090 A 
ATOM      8  C   UNL     1      -8.449  -3.194   4.731  0.00  0.00    +0.030 A 
ATOM      9  C   UNL     1      -9.366  -3.678   5.611  0.00  0.00    +0.002 A 
ATOM     10  C   UNL     1     -10.536  -4.289   5.162  0.00  0.00    +0.002 A 
ATOM     11  C   UNL     1     -10.793  -4.417   3.833  0.00  0.00    +0.028 A 
ATOM     12  C   UNL     1      -9.867  -3.928   2.891  0.00  0.00    +0.066 A 
ATOM     13  N   UNL     1     -10.114  -4.043   1.581  0.00  0.00    -0.349 N 
ATOM     14  H   UNL     1     -10.929  -4.470   1.274  0.00  0.00    +0.166 HD
ENDROOT
BRANCH   3  15
ATOM     15  S   UNL     1     -10.384  -4.184  -1.812  0.00  0.00    +0.037 S 
ATOM     16  O   UNL     1     -11.613  -4.205  -1.098  0.00  0.00    -0.164 OA
ATOM     17  O   UNL     1     -10.227  -3.481  -3.037  0.00  0.00    -0.164 OA
BRANCH  15  18
ATOM     18  C   UNL     1      -9.963  -5.864  -2.139  0.00  0.00    +0.131 A 
ATOM     19  C   UNL     1     -10.349  -6.984  -1.481  0.00  0.00    +0.035 A 
ATOM     20  C   UNL     1      -9.889  -8.212  -1.921  0.00  0.00    +0.009 A 
ATOM     21  C   UNL     1      -9.066  -8.258  -2.996  0.00  0.00    +0.047 A 
ATOM     22  S   UNL     1      -8.923  -6.532  -3.428  0.00  0.00    -0.078 S 
ENDBRANCH  15  18
ENDBRANCH   3  15
BRANCH   2  23
ATOM     23  N   UNL     1      -7.602  -2.728  -2.365  0.00  0.00    -0.341 N 
ATOM     24  H   UNL     1      -6.757  -2.285  -2.542  0.00  0.00    +0.144 HD
ATOM     25  H   UNL     1      -8.161  -3.020  -3.103  0.00  0.00    +0.144 HD
ENDBRANCH   2  23
BRANCH   1  27
ATOM     26  C   UNL     1      -4.962  -2.613   0.035  0.00  0.00    +0.141 C 
ATOM     27  N   UNL     1      -6.058  -1.919   0.045  0.00  0.00    -0.171 NA
BRANCH  26  31
ATOM     28  C   UNL     1      -1.201  -0.638   0.010  0.00  0.00    +0.162 A 
ATOM     29  C   UNL     1      -2.373   0.104   0.019  0.00  0.00    +0.050 A 
ATOM     30  C   UNL     1      -3.596  -0.534   0.028  0.00  0.00    +0.013 A 
ATOM     31  C   UNL     1      -3.656  -1.930   0.026  0.00  0.00    -0.002 A 
ATOM     32  C   UNL     1      -2.474  -2.676   0.016  0.00  0.00    +0.059 A 
ATOM     33  C   UNL     1      -1.253  -2.030   0.003  0.00  0.00    +0.162 A 
BRANCH  28  35
ATOM     34  C   UNL     1      -0.017   1.425   0.010  0.00  0.00    +0.277 C 
ATOM     35  O   UNL     1       0.002  -0.004   0.002  0.00  0.00    -0.491 OA
ENDBRANCH  28  35
BRANCH  33  36
ATOM     36  O   UNL     1      -0.101  -2.753  -0.011  0.00  0.00    -0.491 OA
ATOM     37  C   UNL     1      -0.229  -4.176  -0.018  0.00  0.00    +0.277 C 
ENDBRANCH  33  36
ENDBRANCH  26  31
ENDBRANCH   1  27
TORSDOF 7
