REMARK  Name = ZINC13454479
REMARK  12 active torsions:
REMARK  status: ('A' for Active; 'I' for Inactive)
REMARK    1  A    between atoms: C_1  and  C_2
REMARK    2  A    between atoms: C_9  and  O_34
REMARK    3  A    between atoms: C_10  and  C_12
REMARK    4  A    between atoms: C_12  and  N_66
REMARK    5  A    between atoms: C_13  and  C_14
REMARK    6  A    between atoms: C_13  and  N_66
REMARK    7  A    between atoms: C_19  and  C_21
REMARK    8  A    between atoms: C_19  and  C_31
REMARK    9  A    between atoms: C_19  and  N_66
REMARK   10  A    between atoms: N_25  and  C_26
REMARK   11  A    between atoms: C_31  and  C_32
REMARK   12  A    between atoms: C_31  and  C_33
REMARK                            x       y       z     vdW  Elec       q    Type
REMARK                         _______ _______ _______ _____ _____    ______ ____
ROOT
ATOM      1  N   UNL     1       4.911   5.031  -1.455  0.00  0.00    +0.392 N 
ATOM      2  H   UNL     1       3.994   5.493  -1.427  0.00  0.00    -0.080 HD
ENDROOT
BRANCH   1   3
ATOM      3  C   UNL     1       5.147   4.354  -0.163  0.00  0.00    -0.036 C 
BRANCH   3  13
ATOM      4  C   UNL     1       4.356   8.792   4.575  0.00  0.00    +0.046 C 
ATOM      5  C   UNL     1       3.414   7.766   4.001  0.00  0.00    -0.024 A 
ATOM      6  C   UNL     1       2.143   7.661   4.479  0.00  0.00    +0.005 A 
ATOM      7  C   UNL     1       1.256   6.723   3.958  0.00  0.00    +0.001 A 
ATOM      8  C   UNL     1       1.635   5.883   2.955  0.00  0.00    +0.010 A 
ATOM      9  C   UNL     1       2.938   5.963   2.439  0.00  0.00    +0.001 A 
ATOM     10  C   UNL     1       3.842   6.916   2.967  0.00  0.00    +0.078 A 
ATOM     11  N   UNL     1       5.086   6.997   2.479  0.00  0.00    -0.213 NA
ATOM     12  C   UNL     1       5.492   6.205   1.510  0.00  0.00    +0.214 A 
ATOM     13  C   UNL     1       4.645   5.243   0.946  0.00  0.00    -0.002 A 
ATOM     14  C   UNL     1       3.367   5.111   1.401  0.00  0.00    +0.017 A 
BRANCH  12  15
ATOM     15  O   UNL     1       6.760   6.324   1.047  0.00  0.00    -0.492 OA
ATOM     16  H   UNL     1       7.402   5.768   1.510  0.00  0.00    +0.294 HD
ENDBRANCH  12  15
ENDBRANCH   3  13
ENDBRANCH   1   3
BRANCH   1  17
ATOM     17  C   UNL     1       4.916   4.041  -2.553  0.00  0.00    -0.034 C 
BRANCH  17  18
ATOM     18  C   UNL     1       3.594   3.318  -2.557  0.00  0.00    -0.027 A 
ATOM     19  C   UNL     1       2.450   3.635  -3.212  0.00  0.00    +0.009 A 
ATOM     20  C   UNL     1       1.346   2.816  -3.068  0.00  0.00    +0.008 A 
ATOM     21  C   UNL     1       1.440   1.720  -2.276  0.00  0.00    +0.045 A 
ATOM     22  S   UNL     1       3.130   1.818  -1.708  0.00  0.00    -0.103 S 
ENDBRANCH  17  18
ENDBRANCH   1  17
BRANCH   1  23
ATOM     23  C   UNL     1       5.955   6.051  -1.689  0.00  0.00    +0.006 C 
BRANCH  23  24
ATOM     24  C   UNL     1       5.407   7.095  -2.626  0.00  0.00    +0.139 A 
ATOM     25  N   UNL     1       4.737   6.880  -3.732  0.00  0.00    -0.115 NA
ATOM     26  N   UNL     1       4.443   8.024  -4.248  0.00  0.00    -0.023 NA
ATOM     27  N   UNL     1       4.908   8.962  -3.500  0.00  0.00    -0.044 NA
ATOM     28  N   UNL     1       5.505   8.430  -2.487  0.00  0.00    -0.228 N 
BRANCH  28  29
ATOM     29  C   UNL     1       6.167   9.145  -1.394  0.00  0.00    +0.111 C 
ATOM     30  C   UNL     1       5.165  10.087  -0.694  0.00  0.00    +0.027 C 
ATOM     31  C   UNL     1       6.005  11.340  -0.341  0.00  0.00    +0.002 C 
ATOM     32  C   UNL     1       6.936  11.487  -1.571  0.00  0.00    +0.002 C 
ATOM     33  C   UNL     1       7.293  10.035  -1.950  0.00  0.00    +0.027 C 
ENDBRANCH  28  29
ENDBRANCH  23  24
BRANCH  23  34
ATOM     34  C   UNL     1       7.198   5.410  -2.311  0.00  0.00    -0.024 C 
ATOM     35  C   UNL     1       8.220   6.498  -2.646  0.00  0.00    +0.006 C 
ATOM     36  C   UNL     1       7.813   4.421  -1.318  0.00  0.00    +0.006 C 
ENDBRANCH  23  34
ENDBRANCH   1  23
TORSDOF 9
