REMARK  Name = ZINC36146399
REMARK  10 active torsions:
REMARK  status: ('A' for Active; 'I' for Inactive)
REMARK    1  A    between atoms: C_4  and  C_7
REMARK    2  A    between atoms: C_7  and  C_8
REMARK    3  A    between atoms: C_8  and  C_10
REMARK    4  A    between atoms: C_8  and  O_34
REMARK    5  A    between atoms: C_10  and  N_11
REMARK    6  A    between atoms: N_11  and  C_12
REMARK    7  A    between atoms: N_11  and  C_20
REMARK    8  A    between atoms: C_12  and  C_13
REMARK    9  A    between atoms: C_20  and  C_21
REMARK   10  A    between atoms: C_24  and  C_27
REMARK                            x       y       z     vdW  Elec       q    Type
REMARK                         _______ _______ _______ _____ _____    ______ ____
ROOT
ATOM      1  N   UNL     1       5.552  -1.974   3.284  0.00  0.00    +0.386 N 
ATOM      2  H   UNL     1       5.216  -1.281   3.936  0.00  0.00    -0.081 HD
ENDROOT
BRANCH   1   3
ATOM      3  C   UNL     1       5.549  -1.412   1.927  0.00  0.00    -0.046 C 
BRANCH   3   4
ATOM      4  C   UNL     1       4.250  -0.638   1.698  0.00  0.00    +0.102 C 
BRANCH   4   5
ATOM      5  O   UNL     1       3.158  -1.556   1.610  0.00  0.00    -0.393 OA
ATOM      6  H   UNL     1       3.217  -2.167   0.863  0.00  0.00    +0.210 HD
ENDBRANCH   4   5
BRANCH   4   7
ATOM      7  C   UNL     1       4.353   0.158   0.395  0.00  0.00    +0.064 C 
BRANCH   7  11
ATOM      8  C   UNL     1       0.870   2.587  -0.072  0.00  0.00    +0.000 A 
ATOM      9  C   UNL     1       1.976   3.085   0.592  0.00  0.00    +0.000 A 
ATOM     10  C   UNL     1       3.103   2.299   0.743  0.00  0.00    +0.004 A 
ATOM     11  C   UNL     1       3.124   1.015   0.231  0.00  0.00    -0.045 A 
ATOM     12  C   UNL     1       2.017   0.517  -0.432  0.00  0.00    +0.004 A 
ATOM     13  C   UNL     1       0.891   1.304  -0.584  0.00  0.00    +0.000 A 
ENDBRANCH   7  11
ENDBRANCH   4   7
ENDBRANCH   3   4
ENDBRANCH   1   3
BRANCH   1  14
ATOM     14  C   UNL     1       4.675  -3.152   3.327  0.00  0.00    -0.043 C 
BRANCH  14  15
ATOM     15  C   UNL     1       5.171  -4.183   2.347  0.00  0.00    -0.061 A 
ATOM     16  C   UNL     1       4.684  -4.197   1.053  0.00  0.00    +0.002 A 
ATOM     17  C   UNL     1       5.138  -5.142   0.152  0.00  0.00    +0.003 A 
ATOM     18  C   UNL     1       6.078  -6.076   0.545  0.00  0.00    +0.038 A 
ATOM     19  C   UNL     1       6.566  -6.064   1.841  0.00  0.00    +0.124 A 
ATOM     20  C   UNL     1       6.115  -5.112   2.740  0.00  0.00    +0.040 A 
ATOM     21  F   UNL     1       7.484  -6.976   2.225  0.00  0.00    -0.205 F 
ENDBRANCH  14  15
ENDBRANCH   1  14
BRANCH   1  22
ATOM     22  C   UNL     1       6.919  -2.368   3.648  0.00  0.00    -0.030 C 
BRANCH  22  23
ATOM     23  C   UNL     1       6.974  -2.699   5.141  0.00  0.00    +0.194 C 
ATOM     24  C   UNL     1       8.387  -3.178   5.551  0.00  0.00    +0.104 C 
ATOM     25  C   UNL     1       8.085  -4.267   6.562  0.00  0.00    +0.091 C 
ATOM     26  N   UNL     1       6.841  -4.593   6.448  0.00  0.00    -0.089 NA
ATOM     27  O   UNL     1       6.171  -3.859   5.441  0.00  0.00    -0.392 OA
BRANCH  25  28
ATOM     28  C   UNL     1       9.049  -4.854   7.514  0.00  0.00    -0.000 A 
ATOM     29  C   UNL     1      10.371  -4.406   7.539  0.00  0.00    +0.012 A 
ATOM     30  C   UNL     1      11.267  -4.958   8.430  0.00  0.00    +0.039 A 
ATOM     31  C   UNL     1      10.857  -5.956   9.300  0.00  0.00    +0.123 A 
ATOM     32  C   UNL     1       9.546  -6.405   9.280  0.00  0.00    +0.039 A 
ATOM     33  C   UNL     1       8.640  -5.856   8.397  0.00  0.00    +0.012 A 
ATOM     34  F   UNL     1      11.739  -6.494  10.171  0.00  0.00    -0.205 F 
ENDBRANCH  25  28
ENDBRANCH  22  23
ENDBRANCH   1  22
TORSDOF 10
