REMARK  Name = ZINC01922677
REMARK  7 active torsions:
REMARK  status: ('A' for Active; 'I' for Inactive)
REMARK    1  A    between atoms: C_1  and  C_2
REMARK    2  A    between atoms: C_5  and  N_8
REMARK    3  A    between atoms: C_9  and  C_11
REMARK    4  A    between atoms: C_11  and  N_12
REMARK    5  A    between atoms: N_20  and  N_21
REMARK    6  A    between atoms: C_22  and  C_24
REMARK    7  A    between atoms: C_26  and  N_30
REMARK                            x       y       z     vdW  Elec       q    Type
REMARK                         _______ _______ _______ _____ _____    ______ ____
ROOT
ATOM      1  N   UNL     1       1.062   2.021   0.003  0.00  0.00    -0.257 N 
ATOM      2  C   UNL     1       0.690   3.361   0.006  0.00  0.00    +0.047 A 
ATOM      3  C   UNL     1       1.444   4.529  -0.005  0.00  0.00    +0.024 A 
ATOM      4  C   UNL     1       0.816   5.759   0.001  0.00  0.00    +0.002 A 
ATOM      5  C   UNL     1      -0.566   5.845   0.017  0.00  0.00    +0.001 A 
ATOM      6  C   UNL     1      -1.331   4.696   0.028  0.00  0.00    +0.012 A 
ATOM      7  C   UNL     1      -0.708   3.453   0.022  0.00  0.00    +0.028 A 
ATOM      8  C   UNL     1      -1.219   2.062   0.024  0.00  0.00    +0.153 C 
ATOM      9  N   UNL     1      -2.470   1.671   0.032  0.00  0.00    -0.174 NA
ATOM     10  C   UNL     1      -0.011   1.213   0.017  0.00  0.00    +0.272 C 
ATOM     11  O   UNL     1       0.009  -0.004   0.018  0.00  0.00    -0.268 OA
ENDROOT
BRANCH   9  12
ATOM     12  N   UNL     1      -2.777   0.304   0.036  0.00  0.00    -0.202 N 
ATOM     13  C   UNL     1      -4.063  -0.098   0.045  0.00  0.00    +0.267 C 
ATOM     14  O   UNL     1      -4.958   0.726   0.049  0.00  0.00    -0.268 OA
ATOM     15  H   UNL     1      -2.063  -0.353   0.033  0.00  0.00    +0.178 HD
BRANCH  13  16
ATOM     16  C   UNL     1      -4.386  -1.536   0.049  0.00  0.00    +0.087 A 
ATOM     17  C   UNL     1      -3.361  -2.486   0.038  0.00  0.00    +0.049 A 
ATOM     18  C   UNL     1      -3.670  -3.829   0.048  0.00  0.00    +0.127 A 
ATOM     19  C   UNL     1      -4.992  -4.243   0.056  0.00  0.00    +0.036 A 
ATOM     20  C   UNL     1      -6.015  -3.315   0.062  0.00  0.00    +0.054 A 
ATOM     21  C   UNL     1      -5.723  -1.959   0.058  0.00  0.00    +0.191 A 
ATOM     22  O   UNL     1      -6.726  -1.046   0.063  0.00  0.00    -0.287 OA
BRANCH  18  23
ATOM     23  N   UNL     1      -2.584  -4.835   0.042  0.00  0.00    +0.056 N 
ATOM     24  O   UNL     1      -2.853  -6.022   0.045  0.00  0.00    -0.126 OA
ATOM     25  O   UNL     1      -1.420  -4.474   0.034  0.00  0.00    -0.126 OA
ENDBRANCH  18  23
ENDBRANCH  13  16
ENDBRANCH   9  12
BRANCH   1  26
ATOM     26  C   UNL     1       2.450   1.551  -0.012  0.00  0.00    +0.210 C 
BRANCH  26  28
ATOM     27  N   UNL     1       4.161   0.962  -1.698  0.00  0.00    -0.284 N 
ATOM     28  C   UNL     1       2.909   1.388  -1.438  0.00  0.00    +0.235 C 
ATOM     29  O   UNL     1       2.152   1.640  -2.352  0.00  0.00    -0.274 OA
ATOM     30  H   UNL     1       4.788   0.824  -0.970  0.00  0.00    +0.155 HD
BRANCH  27  35
ATOM     31  C   UNL     1       5.766  -0.029  -7.048  0.00  0.00    +0.044 C 
ATOM     32  C   UNL     1       5.340   0.234  -5.627  0.00  0.00    -0.050 A 
ATOM     33  C   UNL     1       4.463   1.267  -5.350  0.00  0.00    +0.005 A 
ATOM     34  C   UNL     1       4.071   1.511  -4.048  0.00  0.00    +0.023 A 
ATOM     35  C   UNL     1       4.557   0.717  -3.018  0.00  0.00    +0.033 A 
ATOM     36  C   UNL     1       5.442  -0.316  -3.299  0.00  0.00    +0.023 A 
ATOM     37  C   UNL     1       5.827  -0.557  -4.603  0.00  0.00    +0.005 A 
ENDBRANCH  27  35
ENDBRANCH  26  28
ENDBRANCH   1  26
TORSDOF 6
