REMARK  Name = ZINC16042101
REMARK  7 active torsions:
REMARK  status: ('A' for Active; 'I' for Inactive)
REMARK    1  A    between atoms: C_1  and  C_2
REMARK    2  A    between atoms: C_5  and  N_34
REMARK    3  A    between atoms: C_7  and  N_8
REMARK    4  A    between atoms: C_13  and  C_30
REMARK    5  A    between atoms: C_30  and  C_31
REMARK    6  A    between atoms: C_31  and  S_32
REMARK    7  A    between atoms: S_32  and  C_33
REMARK                            x       y       z     vdW  Elec       q    Type
REMARK                         _______ _______ _______ _____ _____    ______ ____
ROOT
ATOM      1  N   UNL     1       0.026  -0.013   2.419  0.00  0.00    -0.209 N 
ATOM      2  C   UNL     1      -1.098   0.325   3.062  0.00  0.00    +0.232 C 
ATOM      3  O   UNL     1      -2.223   0.085   2.679  0.00  0.00    -0.274 OA
ATOM      4  C   UNL     1      -0.747   1.052   4.340  0.00  0.00    +0.107 C 
ATOM      5  C   UNL     1      -1.198   2.523   4.231  0.00  0.00    +0.068 C 
ATOM      6  N   UNL     1      -0.060   3.224   3.577  0.00  0.00    -0.295 NA
ATOM      7  C   UNL     1       1.137   2.597   4.166  0.00  0.00    +0.136 C 
ATOM      8  C   UNL     1       0.806   1.090   4.315  0.00  0.00    +0.123 C 
ATOM      9  C   UNL     1       1.152   0.359   3.037  0.00  0.00    +0.233 C 
ATOM     10  O   UNL     1       2.275   0.146   2.634  0.00  0.00    -0.274 OA
ATOM     11  C   UNL     1       1.487   3.212   5.491  0.00  0.00    +0.003 A 
ATOM     12  C   UNL     1       0.811   3.345   6.683  0.00  0.00    +0.008 A 
ATOM     13  C   UNL     1       1.414   3.979   7.755  0.00  0.00    +0.000 A 
ATOM     14  C   UNL     1       2.697   4.479   7.625  0.00  0.00    +0.002 A 
ATOM     15  C   UNL     1       3.378   4.349   6.433  0.00  0.00    +0.023 A 
ATOM     16  C   UNL     1       2.778   3.712   5.349  0.00  0.00    +0.039 A 
ATOM     17  N   UNL     1       3.254   3.461   4.060  0.00  0.00    -0.283 N 
ATOM     18  C   UNL     1       2.350   2.810   3.302  0.00  0.00    +0.243 C 
ATOM     19  O   UNL     1       2.488   2.463   2.148  0.00  0.00    -0.273 OA
ATOM     20  H   UNL     1      -0.082   3.093   2.577  0.00  0.00    +0.123 HD
ATOM     21  H   UNL     1       4.133   3.725   3.747  0.00  0.00    +0.155 HD
ENDROOT
BRANCH   1  28
ATOM     22  C   UNL     1      -0.018   1.503   0.010  0.00  0.00    +0.045 C 
ATOM     23  C   UNL     1       0.002  -0.004   0.002  0.00  0.00    -0.028 A 
ATOM     24  C   UNL     1       0.006  -0.689  -1.198  0.00  0.00    +0.007 A 
ATOM     25  C   UNL     1       0.024  -2.071  -1.206  0.00  0.00    +0.033 A 
ATOM     26  C   UNL     1       0.040  -2.773  -0.014  0.00  0.00    +0.128 A 
ATOM     27  C   UNL     1       0.036  -2.094   1.188  0.00  0.00    +0.057 A 
ATOM     28  C   UNL     1       0.023  -0.705   1.200  0.00  0.00    +0.049 A 
BRANCH  26  29
ATOM     29  N   UNL     1       0.059  -4.253  -0.028  0.00  0.00    +0.056 N 
ATOM     30  O   UNL     1       0.062  -4.848  -1.080  0.00  0.00    -0.126 OA
ATOM     31  O   UNL     1       0.072  -4.866   1.014  0.00  0.00    -0.126 OA
ENDBRANCH  26  29
ENDBRANCH   1  28
BRANCH   5  32
ATOM     32  C   UNL     1      -2.458   2.632   3.370  0.00  0.00    +0.030 C 
BRANCH  32  33
ATOM     33  C   UNL     1      -2.958   4.078   3.378  0.00  0.00    +0.070 C 
BRANCH  33  34
ATOM     34  S   UNL     1      -4.452   4.206   2.357  0.00  0.00    -0.164 S 
ATOM     35  C   UNL     1      -4.911   5.958   2.470  0.00  0.00    +0.084 C 
ENDBRANCH  33  34
ENDBRANCH  32  33
ENDBRANCH   5  32
TORSDOF 5
