REMARK  Name = ZINC08914721
REMARK  10 active torsions:
REMARK  status: ('A' for Active; 'I' for Inactive)
REMARK    1  A    between atoms: C_1  and  C_2
REMARK    2  A    between atoms: C_3  and  C_9
REMARK    3  A    between atoms: C_12  and  C_14
REMARK    4  A    between atoms: C_14  and  N_51
REMARK    5  A    between atoms: C_15  and  C_16
REMARK    6  A    between atoms: C_15  and  N_51
REMARK    7  A    between atoms: C_16  and  C_17
REMARK    8  A    between atoms: C_17  and  S_18
REMARK    9  A    between atoms: S_18  and  C_19
REMARK   10  A    between atoms: N_23  and  C_24
REMARK                            x       y       z     vdW  Elec       q    Type
REMARK                         _______ _______ _______ _____ _____    ______ ____
ROOT
ATOM      1  N   UNL     1       1.368   2.028  -0.000  0.00  0.00    +0.384 N 
ATOM      2  H   UNL     1       1.860   1.681   0.832  0.00  0.00    -0.085 HD
ATOM      3  H   UNL     1       1.844   1.690  -0.845  0.00  0.00    -0.085 HD
ENDROOT
BRANCH   1   4
ATOM      4  C   UNL     1       1.379   3.503   0.008  0.00  0.00    -0.007 C 
BRANCH   4   8
ATOM      5  C   UNL     1       4.779   4.649   0.696  0.00  0.00    +0.135 A 
ATOM      6  C   UNL     1       4.809   4.671  -0.663  0.00  0.00    +0.050 A 
ATOM      7  C   UNL     1       3.541   4.240  -1.104  0.00  0.00    +0.043 A 
ATOM      8  C   UNL     1       2.806   3.987  -0.003  0.00  0.00    +0.089 A 
ATOM      9  O   UNL     1       3.558   4.232   1.082  0.00  0.00    -0.462 OA
BRANCH   5  12
ATOM     10  C   UNL     1       4.313   6.505   2.866  0.00  0.00    +0.046 C 
ATOM     11  C   UNL     1       5.681   5.913   2.644  0.00  0.00    -0.022 A 
ATOM     12  C   UNL     1       5.894   5.018   1.593  0.00  0.00    +0.022 A 
ATOM     13  C   UNL     1       7.162   4.469   1.398  0.00  0.00    +0.012 A 
ATOM     14  C   UNL     1       8.200   4.823   2.236  0.00  0.00    +0.002 A 
ATOM     15  C   UNL     1       7.984   5.710   3.275  0.00  0.00    +0.020 A 
ATOM     16  C   UNL     1       6.726   6.253   3.478  0.00  0.00    +0.045 A 
ATOM     17 CL   UNL     1       6.464   7.366   4.785  0.00  0.00    -0.083 Cl
ENDBRANCH   5  12
ENDBRANCH   4   8
ENDBRANCH   1   4
BRANCH   1  18
ATOM     18  C   UNL     1      -0.019   1.526   0.010  0.00  0.00    -0.081 C 
BRANCH  18  19
ATOM     19  C   UNL     1       0.002  -0.004   0.002  0.00  0.00    -0.008 C 
BRANCH  19  20
ATOM     20  C   UNL     1      -1.433  -0.534   0.013  0.00  0.00    +0.075 C 
BRANCH  20  21
ATOM     21  S   UNL     1      -1.409  -2.344   0.003  0.00  0.00    -0.084 S 
BRANCH  21  22
ATOM     22  C   UNL     1      -3.140  -2.673   0.018  0.00  0.00    +0.214 A 
ATOM     23  N   UNL     1      -4.106  -1.780   0.031  0.00  0.00    -0.101 NA
ATOM     24  N   UNL     1      -5.253  -2.358   0.039  0.00  0.00    -0.022 NA
ATOM     25  N   UNL     1      -5.110  -3.639   0.031  0.00  0.00    -0.038 NA
ATOM     26  N   UNL     1      -3.728  -3.896   0.011  0.00  0.00    -0.187 N 
BRANCH  26  27
ATOM     27  C   UNL     1      -3.094  -5.146  -0.008  0.00  0.00    +0.070 A 
ATOM     28  C   UNL     1      -1.912  -5.316  -0.716  0.00  0.00    +0.028 A 
ATOM     29  C   UNL     1      -1.287  -6.547  -0.729  0.00  0.00    +0.002 A 
ATOM     30  C   UNL     1      -1.843  -7.614  -0.047  0.00  0.00    +0.000 A 
ATOM     31  C   UNL     1      -3.023  -7.449   0.655  0.00  0.00    +0.002 A 
ATOM     32  C   UNL     1      -3.650  -6.219   0.676  0.00  0.00    +0.028 A 
ENDBRANCH  26  27
ENDBRANCH  21  22
ENDBRANCH  20  21
ENDBRANCH  19  20
ENDBRANCH  18  19
ENDBRANCH   1  18
TORSDOF 9
