REMARK  Name = ZINC13096428
REMARK  9 active torsions:
REMARK  status: ('A' for Active; 'I' for Inactive)
REMARK    1  A    between atoms: C_1  and  C_2
REMARK    2  A    between atoms: C_2  and  C_3
REMARK    3  A    between atoms: C_3  and  N_4
REMARK    4  A    between atoms: N_4  and  C_5
REMARK    5  A    between atoms: N_4  and  C_18
REMARK    6  A    between atoms: C_5  and  C_6
REMARK    7  A    between atoms: C_18  and  C_19
REMARK    8  A    between atoms: N_21  and  C_22
REMARK    9  A    between atoms: C_23  and  C_27
REMARK                            x       y       z     vdW  Elec       q    Type
REMARK                         _______ _______ _______ _____ _____    ______ ____
ROOT
ATOM      1  N   UNL     1      -3.793   1.684  -0.010  0.00  0.00    -0.287 NA
ENDROOT
BRANCH   1   2
ATOM      2  C   UNL     1      -3.576   2.296  -1.327  0.00  0.00    +0.085 C 
BRANCH   2   4
ATOM      3  C   UNL     1      -3.153   1.836  -3.746  0.00  0.00    +0.005 C 
ATOM      4  C   UNL     1      -3.368   1.198  -2.372  0.00  0.00    +0.012 C 
ENDBRANCH   2   4
ENDBRANCH   1   2
BRANCH   1   5
ATOM      5  C   UNL     1      -2.647   0.851   0.379  0.00  0.00    +0.159 C 
BRANCH   5   6
ATOM      6  C   UNL     1      -1.438   1.727   0.586  0.00  0.00    +0.125 A 
ATOM      7  N   UNL     1      -0.268   1.136   0.946  0.00  0.00    -0.309 N 
ATOM      8  C   UNL     1       0.849   1.877   1.132  0.00  0.00    +0.259 A 
ATOM      9  O   UNL     1       1.905   1.359   1.449  0.00  0.00    -0.267 OA
ATOM     10  C   UNL     1       0.739   3.329   0.935  0.00  0.00    +0.065 A 
ATOM     11  C   UNL     1       1.830   4.181   1.102  0.00  0.00    +0.017 A 
ATOM     12  C   UNL     1       1.674   5.525   0.907  0.00  0.00    +0.021 A 
ATOM     13  C   UNL     1       0.440   6.051   0.544  0.00  0.00    +0.043 A 
ATOM     14  C   UNL     1      -0.654   5.231   0.373  0.00  0.00    +0.048 A 
ATOM     15  C   UNL     1      -0.521   3.855   0.573  0.00  0.00    +0.080 A 
ATOM     16  N   UNL     1      -1.567   3.007   0.410  0.00  0.00    -0.232 NA
ATOM     17 CL   UNL     1       0.274   7.763   0.304  0.00  0.00    -0.083 Cl
ATOM     18  H   UNL     1      -0.224   0.046   1.089  0.00  0.00    +0.170 HD
ENDBRANCH   5   6
ENDBRANCH   1   5
BRANCH   1  19
ATOM     19  C   UNL     1      -5.039   0.906   0.010  0.00  0.00    +0.181 C 
BRANCH  19  20
ATOM     20  C   UNL     1      -6.218   1.845  -0.010  0.00  0.00    +0.232 C 
ATOM     21  O   UNL     1      -6.040   3.042   0.066  0.00  0.00    -0.274 OA
ATOM     22  N   UNL     1      -7.469   1.354  -0.113  0.00  0.00    -0.278 N 
ATOM     23  H   UNL     1      -7.630   0.268  -0.182  0.00  0.00    +0.155 HD
BRANCH  22  24
ATOM     24  C   UNL     1      -8.553   2.218  -0.132  0.00  0.00    +0.084 A 
ATOM     25  C   UNL     1      -9.904   1.906  -0.236  0.00  0.00    +0.065 A 
ATOM     26  C   UNL     1     -10.828   3.015  -0.227  0.00  0.00    +0.022 A 
ATOM     27  C   UNL     1     -10.305   4.250  -0.128  0.00  0.00    +0.048 A 
ATOM     28  S   UNL     1      -8.553   3.947  -0.038  0.00  0.00    -0.081 S 
BRANCH  25  29
ATOM     29  C   UNL     1     -10.367   0.519  -0.347  0.00  0.00    +0.244 C 
ATOM     30  O   UNL     1      -9.561  -0.393  -0.349  0.00  0.00    -0.270 OA
ATOM     31  N   UNL     1     -11.684   0.255  -0.447  0.00  0.00    -0.325 N 
ATOM     32  H   UNL     1     -12.032  -0.786  -0.530  0.00  0.00    +0.145 HD
ATOM     33  H   UNL     1     -12.412   1.079  -0.445  0.00  0.00    +0.145 HD
ENDBRANCH  25  29
ENDBRANCH  22  24
ENDBRANCH  19  20
ENDBRANCH   1  19
TORSDOF 8
