REMARK  Name = ZINC13980666
REMARK  5 active torsions:
REMARK  status: ('A' for Active; 'I' for Inactive)
REMARK    1  A    between atoms: N_9  and  S_10
REMARK    2  A    between atoms: S_10  and  C_13
REMARK    3  A    between atoms: C_16  and  N_19
REMARK    4  A    between atoms: N_20  and  C_21
REMARK    5  A    between atoms: C_26  and  O_27
REMARK                            x       y       z     vdW  Elec       q    Type
REMARK                         _______ _______ _______ _____ _____    ______ ____
ROOT
ATOM      1  C   UNL     1       5.602  -0.226   1.629  0.00  0.00    +0.109 A 
ATOM      2  C   UNL     1       5.450   0.978   2.296  0.00  0.00    +0.031 A 
ATOM      3  C   UNL     1       5.852   1.097   3.610  0.00  0.00    +0.031 A 
ATOM      4  C   UNL     1       6.413  -0.001   4.268  0.00  0.00    +0.086 A 
ATOM      5  C   UNL     1       6.562  -1.213   3.588  0.00  0.00    +0.031 A 
ATOM      6  C   UNL     1       6.151  -1.319   2.276  0.00  0.00    +0.031 A 
ENDROOT
BRANCH   1   7
ATOM      7  S   UNL     1       5.086  -0.369  -0.050  0.00  0.00    +0.075 S 
ATOM      8  O   UNL     1       5.830  -1.440  -0.613  0.00  0.00    -0.150 OA
ATOM      9  O   UNL     1       5.108   0.944  -0.595  0.00  0.00    -0.150 OA
BRANCH   7  18
ATOM     10  C   UNL     1      -0.017   1.378   0.010  0.00  0.00    +0.000 A 
ATOM     11  C   UNL     1       1.174   2.082   0.002  0.00  0.00    +0.002 A 
ATOM     12  C   UNL     1       2.377   1.411  -0.013  0.00  0.00    +0.025 A 
ATOM     13  C   UNL     1       2.405   0.014  -0.021  0.00  0.00    +0.054 A 
ATOM     14  C   UNL     1       1.206  -0.682  -0.013  0.00  0.00    -0.023 A 
ATOM     15  C   UNL     1       0.002  -0.004   0.002  0.00  0.00    +0.005 A 
ATOM     16  C   UNL     1       1.510  -2.163  -0.023  0.00  0.00    +0.058 C 
ATOM     17  C   UNL     1       3.046  -2.241  -0.038  0.00  0.00    +0.136 C 
ATOM     18  N   UNL     1       3.501  -0.849  -0.036  0.00  0.00    -0.202 N 
ENDBRANCH   7  18
ENDBRANCH   1   7
BRANCH   4  19
ATOM     19  N   UNL     1       6.814   0.110   5.570  0.00  0.00    -0.149 NA
ATOM     20  N   UNL     1       7.331  -0.905   6.175  0.00  0.00    -0.146 NA
BRANCH  20  21
ATOM     21  C   UNL     1       7.731  -0.794   7.474  0.00  0.00    +0.130 A 
ATOM     22  C   UNL     1       7.577   0.417   8.157  0.00  0.00    +0.053 A 
ATOM     23  C   UNL     1       7.983   0.522   9.470  0.00  0.00    +0.045 A 
ATOM     24  C   UNL     1       8.544  -0.568  10.118  0.00  0.00    +0.043 A 
ATOM     25  C   UNL     1       8.702  -1.770   9.455  0.00  0.00    +0.086 A 
ATOM     26  C   UNL     1       8.294  -1.895   8.136  0.00  0.00    +0.162 A 
ATOM     27 CL   UNL     1       9.406  -3.127  10.277  0.00  0.00    -0.080 Cl
ATOM     28 CL   UNL     1       7.791   2.026  10.316  0.00  0.00    -0.083 Cl
BRANCH  26  29
ATOM     29  O   UNL     1       8.444  -3.078   7.485  0.00  0.00    -0.503 OA
ATOM     30  H   UNL     1       9.291  -3.171   7.028  0.00  0.00    +0.292 HD
ENDBRANCH  26  29
ENDBRANCH  20  21
ENDBRANCH   4  19
TORSDOF 5
