REMARK  Name = ZINC36346230
REMARK  19 active torsions:
REMARK  status: ('A' for Active; 'I' for Inactive)
REMARK    1  A    between atoms: C_1  and  C_2
REMARK    2  A    between atoms: C_3  and  C_21
REMARK    3  A    between atoms: C_4  and  O_13
REMARK    4  A    between atoms: N_5  and  C_7
REMARK    5  A    between atoms: O_13  and  C_14
REMARK    6  A    between atoms: C_21  and  N_22
REMARK    7  A    between atoms: N_22  and  C_23
REMARK    8  A    between atoms: N_22  and  C_33
REMARK    9  A    between atoms: C_23  and  C_24
REMARK   10  A    between atoms: C_24  and  C_26
REMARK   11  A    between atoms: C_24  and  O_32
REMARK   12  A    between atoms: C_26  and  O_27
REMARK   13  A    between atoms: O_27  and  C_28
REMARK   14  A    between atoms: C_28  and  C_29
REMARK   15  A    between atoms: C_28  and  C_30
REMARK   16  A    between atoms: C_28  and  C_31
REMARK   17  A    between atoms: C_33  and  C_34
REMARK   18  A    between atoms: C_34  and  C_35
REMARK   19  A    between atoms: C_34  and  C_36
REMARK                            x       y       z     vdW  Elec       q    Type
REMARK                         _______ _______ _______ _____ _____    ______ ____
ROOT
ATOM      1  C   UNL     1      -1.180   2.014   0.020  0.00  0.00    +0.068 C 
ATOM      2  C   UNL     1      -0.462   0.716   0.281  0.00  0.00    +0.065 A 
ATOM      3  C   UNL     1       0.019  -0.164  -0.694  0.00  0.00    +0.021 A 
ATOM      4  C   UNL     1       0.602  -1.215  -0.058  0.00  0.00    +0.225 A 
ATOM      5  N   UNL     1       0.488  -0.997   1.280  0.00  0.00    -0.200 N 
ATOM      6  N   UNL     1      -0.177   0.222   1.460  0.00  0.00    -0.168 NA
ENDROOT
BRANCH   5   7
ATOM      7  C   UNL     1       0.958  -1.839   2.296  0.00  0.00    +0.069 A 
ATOM      8  C   UNL     1       0.785  -3.213   2.197  0.00  0.00    +0.028 A 
ATOM      9  C   UNL     1       1.249  -4.041   3.200  0.00  0.00    +0.002 A 
ATOM     10  C   UNL     1       1.886  -3.503   4.304  0.00  0.00    +0.000 A 
ATOM     11  C   UNL     1       2.060  -2.135   4.406  0.00  0.00    +0.002 A 
ATOM     12  C   UNL     1       1.603  -1.302   3.403  0.00  0.00    +0.028 A 
ENDBRANCH   5   7
BRANCH   4  13
ATOM     13  O   UNL     1       1.190  -2.285  -0.650  0.00  0.00    -0.438 OA
BRANCH  13  14
ATOM     14  C   UNL     1       0.399  -3.333  -1.002  0.00  0.00    +0.133 A 
ATOM     15  C   UNL     1      -0.978  -3.245  -0.853  0.00  0.00    +0.046 A 
ATOM     16  C   UNL     1      -1.780  -4.311  -1.211  0.00  0.00    +0.006 A 
ATOM     17  C   UNL     1      -1.214  -5.466  -1.718  0.00  0.00    +0.038 A 
ATOM     18  C   UNL     1       0.160  -5.557  -1.868  0.00  0.00    +0.127 A 
ATOM     19  C   UNL     1       0.967  -4.490  -1.516  0.00  0.00    +0.084 A 
ATOM     20  F   UNL     1       0.712  -6.686  -2.363  0.00  0.00    -0.205 F 
ENDBRANCH  13  14
ENDBRANCH   4  13
BRANCH   3  21
ATOM     21  C   UNL     1      -0.090   0.021  -2.186  0.00  0.00    -0.036 C 
BRANCH  21  22
ATOM     22  N   UNL     1       1.087   0.750  -2.677  0.00  0.00    +0.384 N 
ATOM     23  H   UNL     1       1.181   1.617  -2.170  0.00  0.00    -0.081 HD
BRANCH  22  24
ATOM     24  C   UNL     1       0.924   1.034  -4.109  0.00  0.00    -0.044 C 
BRANCH  24  25
ATOM     25  C   UNL     1      -0.244   2.002  -4.307  0.00  0.00    +0.124 C 
BRANCH  25  26
ATOM     26  O   UNL     1       0.030   3.226  -3.624  0.00  0.00    -0.391 OA
ATOM     27  H   UNL     1       0.784   3.715  -3.980  0.00  0.00    +0.210 HD
ENDBRANCH  25  26
BRANCH  25  28
ATOM     28  C   UNL     1      -0.428   2.280  -5.800  0.00  0.00    +0.189 C 
BRANCH  28  29
ATOM     29  O   UNL     1      -1.589   3.089  -5.995  0.00  0.00    -0.372 OA
BRANCH  29  30
ATOM     30  C   UNL     1      -1.853   3.409  -7.362  0.00  0.00    +0.061 C 
ATOM     31  C   UNL     1      -2.064   2.119  -8.156  0.00  0.00    +0.041 C 
ATOM     32  C   UNL     1      -3.112   4.274  -7.450  0.00  0.00    +0.041 C 
ATOM     33  C   UNL     1      -0.665   4.178  -7.944  0.00  0.00    +0.041 C 
ENDBRANCH  29  30
ENDBRANCH  28  29
ENDBRANCH  25  28
ENDBRANCH  24  25
ENDBRANCH  22  24
BRANCH  22  34
ATOM     34  C   UNL     1       2.290  -0.069  -2.473  0.00  0.00    -0.075 C 
BRANCH  34  35
ATOM     35  C   UNL     1       3.530   0.744  -2.852  0.00  0.00    -0.034 C 
ATOM     36  C   UNL     1       3.654   1.950  -1.918  0.00  0.00    +0.005 C 
ATOM     37  C   UNL     1       4.775  -0.135  -2.719  0.00  0.00    +0.005 C 
ENDBRANCH  34  35
ENDBRANCH  22  34
ENDBRANCH  21  22
ENDBRANCH   3  21
TORSDOF 13
