REMARK  Name = ZINC21042172
REMARK  9 active torsions:
REMARK  status: ('A' for Active; 'I' for Inactive)
REMARK    1  A    between atoms: C_1  and  C_2
REMARK    2  A    between atoms: C_2  and  C_3
REMARK    3  A    between atoms: C_3  and  C_4
REMARK    4  A    between atoms: C_4  and  C_5
REMARK    5  A    between atoms: C_11  and  C_15
REMARK    6  A    between atoms: C_15  and  S_16
REMARK    7  A    between atoms: S_16  and  C_17
REMARK    8  A    between atoms: C_17  and  C_18
REMARK    9  A    between atoms: N_20  and  C_21
REMARK                            x       y       z     vdW  Elec       q    Type
REMARK                         _______ _______ _______ _____ _____    ______ ____
ROOT
ATOM      1  S   UNL     1       1.173  -4.739  -1.683  0.00  0.00    -0.145 S 
ENDROOT
BRANCH   1   2
ATOM      2  C   UNL     1       0.670  -4.217  -0.021  0.00  0.00    +0.125 C 
BRANCH   2   9
ATOM      3  C   UNL     1       1.128   2.088   0.003  0.00  0.00    +0.102 A 
ATOM      4  N   UNL     1       0.030   1.395   0.017  0.00  0.00    -0.159 NA
ATOM      5  N   UNL     1       0.045   0.003   0.011  0.00  0.00    -0.171 N 
ATOM      6  C   UNL     1      -1.033  -0.834   0.023  0.00  0.00    +0.275 A 
ATOM      7  O   UNL     1      -2.164  -0.375   0.043  0.00  0.00    -0.266 OA
ATOM      8  C   UNL     1      -0.840  -2.216   0.013  0.00  0.00    +0.096 A 
ATOM      9  C   UNL     1       0.440  -2.728  -0.010  0.00  0.00    +0.059 A 
ATOM     10  N   UNL     1       1.468  -1.883  -0.022  0.00  0.00    -0.225 NA
ATOM     11  C   UNL     1       1.278  -0.589  -0.012  0.00  0.00    +0.199 A 
ATOM     12  S   UNL     1       2.377   0.812  -0.023  0.00  0.00    -0.033 S 
BRANCH   3  13
ATOM     13  C   UNL     1       1.304   3.585   0.007  0.00  0.00    +0.065 C 
BRANCH  13  14
ATOM     14  C   UNL     1      -0.070   4.259   0.031  0.00  0.00    +0.006 C 
BRANCH  14  16
ATOM     15  C   UNL     1      -1.265   6.453   0.060  0.00  0.00    +0.004 C 
ATOM     16  C   UNL     1       0.108   5.779   0.035  0.00  0.00    -0.003 C 
ENDBRANCH  14  16
ENDBRANCH  13  14
ENDBRANCH   3  13
ENDBRANCH   2   9
ENDBRANCH   1   2
BRANCH   1  17
ATOM     17  C   UNL     1       1.408  -6.531  -1.529  0.00  0.00    +0.165 C 
BRANCH  17  18
ATOM     18  C   UNL     1       1.833  -7.099  -2.858  0.00  0.00    +0.227 C 
ATOM     19  O   UNL     1       1.965  -6.367  -3.816  0.00  0.00    -0.275 OA
ATOM     20  N   UNL     1       2.067  -8.420  -2.983  0.00  0.00    -0.284 N 
ATOM     21  H   UNL     1       2.020  -9.073  -2.099  0.00  0.00    +0.155 HD
BRANCH  20  22
ATOM     22  C   UNL     1       2.368  -8.961  -4.235  0.00  0.00    +0.041 A 
ATOM     23  C   UNL     1       3.106  -8.235  -5.146  0.00  0.00    +0.024 A 
ATOM     24  C   UNL     1       3.412  -8.765  -6.396  0.00  0.00    +0.002 A 
ATOM     25  C   UNL     1       2.994 -10.010  -6.753  0.00  0.00    +0.008 A 
ATOM     26  C   UNL     1       2.240 -10.783  -5.854  0.00  0.00    -0.016 A 
ATOM     27  C   UNL     1       1.926 -10.256  -4.576  0.00  0.00    +0.003 A 
ATOM     28  C   UNL     1       1.170 -11.027  -3.680  0.00  0.00    +0.010 A 
ATOM     29  C   UNL     1       0.755 -12.272  -4.045  0.00  0.00    +0.001 A 
ATOM     30  C   UNL     1       1.067 -12.792  -5.299  0.00  0.00    +0.001 A 
ATOM     31  C   UNL     1       1.795 -12.072  -6.195  0.00  0.00    +0.008 A 
ENDBRANCH  20  22
ENDBRANCH  17  18
ENDBRANCH   1  17
TORSDOF 8
