REMARK  Name = ZINC09744811
REMARK  6 active torsions:
REMARK  status: ('A' for Active; 'I' for Inactive)
REMARK    1  A    between atoms: C_6  and  C_7
REMARK    2  A    between atoms: C_12  and  C_13
REMARK    3  A    between atoms: C_12  and  N_61
REMARK    4  A    between atoms: C_13  and  C_14
REMARK    5  A    between atoms: N_16  and  C_17
REMARK    6  A    between atoms: C_18  and  C_26
REMARK                            x       y       z     vdW  Elec       q    Type
REMARK                         _______ _______ _______ _____ _____    ______ ____
ROOT
ATOM      1  C   UNL     1       3.728   4.965  -3.990  0.00  0.00    -0.069 C 
ENDROOT
BRANCH   1   6
ATOM      2  C   UNL     1       1.398   4.474  -4.474  0.00  0.00    -0.038 C 
ATOM      3  C   UNL     1       0.441   4.998  -5.573  0.00  0.00    -0.013 C 
ATOM      4  C   UNL     1       1.428   5.713  -6.533  0.00  0.00    -0.020 C 
ATOM      5  C   UNL     1       2.476   6.313  -5.572  0.00  0.00    -0.078 C 
ATOM      6  N   UNL     1       2.400   5.547  -4.317  0.00  0.00    +0.385 N 
ATOM      7  H   UNL     1       2.111   6.172  -3.555  0.00  0.00    -0.081 HD
BRANCH   2  13
ATOM      8  C   UNL     1       0.296   5.363  -2.412  0.00  0.00    +0.006 A 
ATOM      9  C   UNL     1      -0.389   5.184  -1.223  0.00  0.00    +0.049 A 
ATOM     10  C   UNL     1      -0.719   3.906  -0.806  0.00  0.00    +0.162 A 
ATOM     11  C   UNL     1      -0.362   2.809  -1.579  0.00  0.00    +0.162 A 
ATOM     12  C   UNL     1       0.324   2.991  -2.767  0.00  0.00    +0.051 A 
ATOM     13  C   UNL     1       0.651   4.271  -3.181  0.00  0.00    -0.057 A 
ATOM     14  O   UNL     1      -0.692   1.553  -1.159  0.00  0.00    -0.488 OA
ATOM     15  C   UNL     1      -0.013   1.086   0.008  0.00  0.00    +0.232 C 
ATOM     16  C   UNL     1      -0.712   1.570   1.269  0.00  0.00    +0.082 C 
ATOM     17  C   UNL     1      -0.662   3.083   1.414  0.00  0.00    +0.232 C 
ATOM     18  O   UNL     1      -1.395   3.716   0.363  0.00  0.00    -0.488 OA
ENDBRANCH   2  13
ENDBRANCH   1   6
BRANCH   1  19
ATOM     19  C   UNL     1       4.688   6.088  -3.596  0.00  0.00    +0.077 C 
BRANCH  19  20
ATOM     20  C   UNL     1       6.035   5.502  -3.258  0.00  0.00    +0.216 C 
ATOM     21  O   UNL     1       6.209   4.304  -3.326  0.00  0.00    -0.276 OA
ATOM     22  N   UNL     1       7.046   6.310  -2.880  0.00  0.00    -0.279 N 
ATOM     23  H   UNL     1       6.906   7.268  -2.826  0.00  0.00    +0.155 HD
BRANCH  22  24
ATOM     24  C   UNL     1       8.286   5.770  -2.569  0.00  0.00    +0.090 A 
ATOM     25  C   UNL     1       9.436   6.431  -2.165  0.00  0.00    +0.084 A 
ATOM     26  C   UNL     1      10.615   5.626  -1.898  0.00  0.00    -0.018 A 
ATOM     27  C   UNL     1      10.456   4.295  -2.078  0.00  0.00    -0.004 A 
ATOM     28  S   UNL     1       8.771   4.106  -2.584  0.00  0.00    -0.077 S 
ATOM     29  C   UNL     1      11.488   3.228  -1.881  0.00  0.00    +0.043 C 
ATOM     30  C   UNL     1      12.868   3.897  -1.804  0.00  0.00    +0.005 C 
ATOM     31  C   UNL     1      12.790   5.079  -0.833  0.00  0.00    +0.005 C 
ATOM     32  C   UNL     1      11.951   6.202  -1.446  0.00  0.00    +0.037 C 
BRANCH  25  33
ATOM     33  C   UNL     1       9.461   7.855  -2.015  0.00  0.00    +0.102 C 
ATOM     34  N   UNL     1       9.480   8.984  -1.897  0.00  0.00    -0.191 NA
ENDBRANCH  25  33
ENDBRANCH  22  24
ENDBRANCH  19  20
ENDBRANCH   1  19
TORSDOF 6
