REMARK  Name = ZINC13096079
REMARK  12 active torsions:
REMARK  status: ('A' for Active; 'I' for Inactive)
REMARK    1  A    between atoms: C_1  and  C_2
REMARK    2  A    between atoms: C_2  and  O_3
REMARK    3  A    between atoms: O_3  and  C_4
REMARK    4  A    between atoms: C_7  and  C_10
REMARK    5  A    between atoms: N_12  and  C_23
REMARK    6  A    between atoms: N_15  and  C_16
REMARK    7  A    between atoms: C_23  and  N_61
REMARK    8  A    between atoms: C_24  and  N_61
REMARK    9  A    between atoms: C_25  and  C_26
REMARK   10  A    between atoms: C_25  and  N_61
REMARK   11  A    between atoms: C_29  and  O_32
REMARK   12  A    between atoms: O_32  and  C_33
REMARK                            x       y       z     vdW  Elec       q    Type
REMARK                         _______ _______ _______ _____ _____    ______ ____
ROOT
ATOM      1  C   UNL     1      -0.291  -5.003  -4.710  0.00  0.00    +0.167 A 
ATOM      2  N   UNL     1      -0.489  -4.602  -3.485  0.00  0.00    -0.152 NA
ATOM      3  N   UNL     1       0.757  -4.530  -2.846  0.00  0.00    -0.257 N 
ATOM      4  C   UNL     1       1.694  -4.910  -3.738  0.00  0.00    +0.181 A 
ATOM      5  S   UNL     1       3.380  -5.002  -3.455  0.00  0.00    -0.011 S 
ATOM      6  N   UNL     1       1.064  -5.205  -4.892  0.00  0.00    -0.269 N 
ENDROOT
BRANCH   6   7
ATOM      7  C   UNL     1       1.677  -5.643  -6.075  0.00  0.00    +0.086 A 
ATOM      8  C   UNL     1       1.859  -7.000  -6.303  0.00  0.00    +0.029 A 
ATOM      9  C   UNL     1       2.464  -7.428  -7.469  0.00  0.00    +0.002 A 
ATOM     10  C   UNL     1       2.888  -6.507  -8.409  0.00  0.00    +0.003 A 
ATOM     11  C   UNL     1       2.709  -5.154  -8.186  0.00  0.00    +0.040 A 
ATOM     12  C   UNL     1       2.099  -4.718  -7.024  0.00  0.00    +0.147 A 
ATOM     13  F   UNL     1       1.919  -3.397  -6.809  0.00  0.00    -0.203 F 
ENDBRANCH   6   7
BRANCH   1  17
ATOM     14  C   UNL     1      -3.308  -5.600  -7.643  0.00  0.00    +0.121 A 
ATOM     15  C   UNL     1      -3.658  -5.470  -6.306  0.00  0.00    +0.046 A 
ATOM     16  C   UNL     1      -2.683  -5.277  -5.351  0.00  0.00    +0.015 A 
ATOM     17  C   UNL     1      -1.341  -5.210  -5.731  0.00  0.00    +0.020 A 
ATOM     18  C   UNL     1      -0.993  -5.335  -7.077  0.00  0.00    +0.015 A 
ATOM     19  C   UNL     1      -1.974  -5.534  -8.025  0.00  0.00    +0.046 A 
BRANCH  14  20
ATOM     20  O   UNL     1      -4.272  -5.791  -8.581  0.00  0.00    -0.492 OA
BRANCH  20  22
ATOM     21  C   UNL     1      -5.059  -6.124 -10.842  0.00  0.00    +0.048 C 
ATOM     22  C   UNL     1      -3.842  -5.916  -9.938  0.00  0.00    +0.225 C 
ENDBRANCH  20  22
ENDBRANCH  14  20
ENDBRANCH   1  17
BRANCH   3  23
ATOM     23  C   UNL     1       0.996  -4.121  -1.460  0.00  0.00    +0.072 C 
BRANCH  23  25
ATOM     24  C   UNL     1       2.460  -2.302  -2.100  0.00  0.00    -0.093 C 
ATOM     25  N   UNL     1       1.196  -2.657  -1.422  0.00  0.00    +0.394 N 
ATOM     26  H   UNL     1       0.416  -2.201  -1.910  0.00  0.00    -0.079 HD
BRANCH  25  27
ATOM     27  C   UNL     1       1.226  -2.187  -0.021  0.00  0.00    -0.041 C 
BRANCH  27  28
ATOM     28  C   UNL     1       1.208  -0.680  -0.013  0.00  0.00    -0.064 A 
ATOM     29  C   UNL     1       0.002  -0.004   0.002  0.00  0.00    +0.005 A 
ATOM     30  C   UNL     1      -0.017   1.377   0.010  0.00  0.00    +0.046 A 
ATOM     31  C   UNL     1       1.176   2.086   0.002  0.00  0.00    +0.120 A 
ATOM     32  C   UNL     1       2.385   1.405  -0.013  0.00  0.00    +0.046 A 
ATOM     33  C   UNL     1       2.398   0.024  -0.021  0.00  0.00    +0.005 A 
BRANCH  31  34
ATOM     34  O   UNL     1       1.160   3.445   0.010  0.00  0.00    -0.495 OA
ATOM     35  C   UNL     1       2.426   4.108   0.001  0.00  0.00    +0.277 C 
ENDBRANCH  31  34
ENDBRANCH  27  28
ENDBRANCH  25  27
ENDBRANCH  23  25
ENDBRANCH   3  23
TORSDOF 9
