REMARK  Name = ZINC01375884
REMARK  10 active torsions:
REMARK  status: ('A' for Active; 'I' for Inactive)
REMARK    1  A    between atoms: C_1  and  C_2
REMARK    2  A    between atoms: C_2  and  C_3
REMARK    3  A    between atoms: C_3  and  C_5
REMARK    4  A    between atoms: C_3  and  N_18
REMARK    5  A    between atoms: N_9  and  C_10
REMARK    6  A    between atoms: C_10  and  C_11
REMARK    7  A    between atoms: N_18  and  C_19
REMARK    8  A    between atoms: N_18  and  C_25
REMARK    9  A    between atoms: C_19  and  C_20
REMARK   10  A    between atoms: C_25  and  C_26
REMARK                            x       y       z     vdW  Elec       q    Type
REMARK                         _______ _______ _______ _____ _____    ______ ____
ROOT
ATOM      1  N   UNL     1      -0.123  -0.305  -2.467  0.00  0.00    -0.284 NA
ENDROOT
BRANCH   1   2
ATOM      2  C   UNL     1       0.950  -0.654  -1.526  0.00  0.00    +0.127 C 
BRANCH   2   3
ATOM      3  C   UNL     1       2.287  -0.364  -2.158  0.00  0.00    +0.169 A 
ATOM      4  N   UNL     1       2.655  -0.660  -3.381  0.00  0.00    -0.112 NA
ATOM      5  N   UNL     1       3.866  -0.249  -3.542  0.00  0.00    -0.023 NA
ATOM      6  N   UNL     1       4.279   0.301  -2.453  0.00  0.00    -0.044 NA
ATOM      7  N   UNL     1       3.332   0.254  -1.578  0.00  0.00    -0.223 N 
BRANCH   7   8
ATOM      8  C   UNL     1       3.386   0.773  -0.209  0.00  0.00    +0.182 C 
BRANCH   8   9
ATOM      9  C   UNL     1       3.893  -0.302   0.716  0.00  0.00    -0.026 A 
ATOM     10  C   UNL     1       3.002  -1.169   1.321  0.00  0.00    +0.008 A 
ATOM     11  C   UNL     1       3.466  -2.156   2.170  0.00  0.00    +0.038 A 
ATOM     12  C   UNL     1       4.823  -2.277   2.415  0.00  0.00    +0.123 A 
ATOM     13  C   UNL     1       5.715  -1.408   1.808  0.00  0.00    +0.038 A 
ATOM     14  C   UNL     1       5.249  -0.425   0.956  0.00  0.00    +0.008 A 
ATOM     15  F   UNL     1       5.277  -3.241   3.245  0.00  0.00    -0.205 F 
ENDBRANCH   8   9
ENDBRANCH   7   8
ENDBRANCH   2   3
BRANCH   2  17
ATOM     16  C   UNL     1      -0.442  -2.414  -0.425  0.00  0.00    +0.006 C 
ATOM     17  C   UNL     1       0.861  -2.142  -1.181  0.00  0.00    +0.023 C 
ENDBRANCH   2  17
ENDBRANCH   1   2
BRANCH   1  18
ATOM     18  C   UNL     1       0.088  -0.951  -3.769  0.00  0.00    +0.127 C 
BRANCH  18  19
ATOM     19  C   UNL     1      -1.192  -0.911  -4.563  0.00  0.00    +0.004 A 
ATOM     20  C   UNL     1      -1.588  -0.015  -5.500  0.00  0.00    +0.012 A 
ATOM     21  C   UNL     1      -2.820  -0.179  -6.106  0.00  0.00    +0.008 A 
ATOM     22  C   UNL     1      -3.595  -1.231  -5.747  0.00  0.00    +0.045 A 
ATOM     23  S   UNL     1      -2.578  -2.037  -4.521  0.00  0.00    -0.100 S 
ENDBRANCH  18  19
ENDBRANCH   1  18
BRANCH   1  24
ATOM     24  C   UNL     1      -0.239   1.152  -2.615  0.00  0.00    +0.126 C 
BRANCH  24  25
ATOM     25  C   UNL     1      -0.924   1.727  -1.402  0.00  0.00    +0.031 A 
ATOM     26  C   UNL     1      -0.183   2.264  -0.399  0.00  0.00    +0.020 A 
ATOM     27  C   UNL     1      -0.877   2.814   0.765  0.00  0.00    +0.003 A 
ATOM     28  C   UNL     1      -0.164   3.378   1.830  0.00  0.00    +0.059 A 
ATOM     29  C   UNL     1      -0.845   3.888   2.913  0.00  0.00    +0.167 A 
ATOM     30  C   UNL     1      -2.244   3.843   2.952  0.00  0.00    +0.168 A 
ATOM     31  C   UNL     1      -2.956   3.288   1.905  0.00  0.00    +0.075 A 
ATOM     32  C   UNL     1      -2.284   2.769   0.805  0.00  0.00    +0.053 A 
ATOM     33  N   UNL     1      -2.978   2.210  -0.249  0.00  0.00    -0.322 N 
ATOM     34  H   UNL     1      -3.947   2.181  -0.221  0.00  0.00    +0.169 HD
ATOM     35  C   UNL     1      -2.330   1.712  -1.316  0.00  0.00    +0.254 A 
ATOM     36  O   UNL     1      -2.976   1.229  -2.231  0.00  0.00    -0.268 OA
ATOM     37  O   UNL     1      -2.663   4.408   4.122  0.00  0.00    -0.453 OA
ATOM     38  C   UNL     1      -1.506   4.424   4.978  0.00  0.00    +0.466 C 
ATOM     39  O   UNL     1      -0.398   4.480   4.060  0.00  0.00    -0.453 OA
ENDBRANCH  24  25
ENDBRANCH   1  24
TORSDOF 9
