REMARK  Name = ZINC63546800
REMARK  11 active torsions:
REMARK  status: ('A' for Active; 'I' for Inactive)
REMARK    1  A    between atoms: C_1  and  C_2
REMARK    2  A    between atoms: C_5  and  C_8
REMARK    3  A    between atoms: C_8  and  C_10
REMARK    4  A    between atoms: N_14  and  C_27
REMARK    5  A    between atoms: C_15  and  C_17
REMARK    6  A    between atoms: C_19  and  O_25
REMARK    7  A    between atoms: C_22  and  O_23
REMARK    8  A    between atoms: O_23  and  C_24
REMARK    9  A    between atoms: O_25  and  C_26
REMARK   10  A    between atoms: C_27  and  C_28
REMARK   11  A    between atoms: C_28  and  C_29
REMARK                            x       y       z     vdW  Elec       q    Type
REMARK                         _______ _______ _______ _____ _____    ______ ____
ROOT
ATOM      1  C   UNL     1      -0.108  -4.968   1.103  0.00  0.00    +0.076 C 
ATOM      2  C   UNL     1       0.290  -6.230   1.387  0.00  0.00    +0.249 C 
ATOM      3  C   UNL     1       0.526  -6.349   2.842  0.00  0.00    +0.288 C 
ATOM      4  O   UNL     1       0.893  -7.359   3.409  0.00  0.00    -0.266 OA
ATOM      5  N   UNL     1       0.276  -5.173   3.445  0.00  0.00    -0.283 N 
ATOM      6  C   UNL     1      -0.133  -4.214   2.412  0.00  0.00    +0.148 C 
ATOM      7  O   UNL     1       0.447  -7.225   0.484  0.00  0.00    -0.282 OA
ENDROOT
BRANCH   6   8
ATOM      8  C   UNL     1       0.832  -3.058   2.363  0.00  0.00    +0.023 A 
ATOM      9  C   UNL     1       1.841  -3.040   1.419  0.00  0.00    +0.055 A 
ATOM     10  C   UNL     1       2.728  -1.975   1.373  0.00  0.00    +0.121 A 
ATOM     11  C   UNL     1       2.603  -0.929   2.275  0.00  0.00    +0.049 A 
ATOM     12  C   UNL     1       1.595  -0.947   3.218  0.00  0.00    +0.049 A 
ATOM     13  C   UNL     1       0.704  -2.009   3.261  0.00  0.00    +0.126 A 
BRANCH  13  14
ATOM     14  O   UNL     1      -0.293  -2.023   4.186  0.00  0.00    -0.495 OA
ATOM     15  C   UNL     1      -0.432  -0.863   5.008  0.00  0.00    +0.277 C 
ENDBRANCH  13  14
BRANCH  10  16
ATOM     16  O   UNL     1       3.722  -1.958   0.445  0.00  0.00    -0.495 OA
ATOM     17  C   UNL     1       4.600  -0.831   0.455  0.00  0.00    +0.277 C 
ENDBRANCH  10  16
ENDBRANCH   6   8
BRANCH   1  18
ATOM     18  C   UNL     1      -0.444  -4.434  -0.220  0.00  0.00    +0.195 C 
ATOM     19  O   UNL     1       0.413  -4.360  -1.081  0.00  0.00    -0.287 OA
BRANCH  18  24
ATOM     20  C   UNL     1      -5.813  -2.694  -1.343  0.00  0.00    +0.044 C 
ATOM     21  C   UNL     1      -4.407  -3.149  -1.049  0.00  0.00    -0.050 A 
ATOM     22  C   UNL     1      -3.414  -2.976  -1.997  0.00  0.00    +0.004 A 
ATOM     23  C   UNL     1      -2.125  -3.391  -1.735  0.00  0.00    +0.012 A 
ATOM     24  C   UNL     1      -1.823  -3.987  -0.508  0.00  0.00    +0.022 A 
ATOM     25  C   UNL     1      -2.830  -4.159   0.444  0.00  0.00    +0.012 A 
ATOM     26  C   UNL     1      -4.113  -3.734   0.171  0.00  0.00    +0.004 A 
ENDBRANCH  18  24
ENDBRANCH   1  18
BRANCH   5  27
ATOM     27  C   UNL     1       0.397  -4.896   4.879  0.00  0.00    +0.113 C 
BRANCH  27  28
ATOM     28  C   UNL     1       1.847  -4.538   5.209  0.00  0.00    +0.052 C 
BRANCH  28  29
ATOM     29  C   UNL     1       1.997  -4.372   6.699  0.00  0.00    -0.040 C 
ATOM     30  C   UNL     1       2.413  -5.308   7.583  0.00  0.00    -0.001 A 
ATOM     31  C   UNL     1       2.832  -6.706   7.428  0.00  0.00    +0.010 A 
ATOM     32  C   UNL     1       3.201  -7.405   8.525  0.00  0.00    +0.001 A 
ATOM     33  C   UNL     1       3.193  -6.830   9.804  0.00  0.00    +0.002 A 
ATOM     34  C   UNL     1       2.820  -5.552  10.026  0.00  0.00    +0.026 A 
ATOM     35  C   UNL     1       2.413  -4.723   8.944  0.00  0.00    +0.043 A 
ATOM     36  N   UNL     1       2.014  -3.475   8.902  0.00  0.00    -0.380 N 
ATOM     37  C   UNL     1       1.720  -3.125   7.508  0.00  0.00    +0.144 C 
ATOM     38  H   UNL     1       1.931  -2.882   9.665  0.00  0.00    +0.160 HD
ENDBRANCH  28  29
ENDBRANCH  27  28
ENDBRANCH   5  27
TORSDOF 8
