REMARK  Name = ZINC35804827
REMARK  17 active torsions:
REMARK  status: ('A' for Active; 'I' for Inactive)
REMARK    1  A    between atoms: C_1  and  C_2
REMARK    2  A    between atoms: C_2  and  C_3
REMARK    3  A    between atoms: C_3  and  N_4
REMARK    4  A    between atoms: N_4  and  C_5
REMARK    5  A    between atoms: C_5  and  C_6
REMARK    6  A    between atoms: N_8  and  C_9
REMARK    7  A    between atoms: N_8  and  C_21
REMARK    8  A    between atoms: C_9  and  C_10
REMARK    9  A    between atoms: C_10  and  C_11
REMARK   10  A    between atoms: C_14  and  O_19
REMARK   11  A    between atoms: C_15  and  O_17
REMARK   12  A    between atoms: O_17  and  C_18
REMARK   13  A    between atoms: O_19  and  C_20
REMARK   14  A    between atoms: C_21  and  C_22
REMARK   15  A    between atoms: C_25  and  C_27
REMARK   16  A    between atoms: N_30  and  C_31
REMARK   17  A    between atoms: C_34  and  C_37
REMARK                            x       y       z     vdW  Elec       q    Type
REMARK                         _______ _______ _______ _____ _____    ______ ____
ROOT
ATOM      1  C   UNL     1      -2.808  -3.021   1.713  0.00  0.00    +0.233 C 
ATOM      2  O   UNL     1      -3.743  -2.643   1.038  0.00  0.00    -0.274 OA
ATOM      3  N   UNL     1      -3.033  -3.694   2.858  0.00  0.00    -0.295 N 
ENDROOT
BRANCH   1   4
ATOM      4  C   UNL     1      -1.396  -2.737   1.270  0.00  0.00    +0.205 C 
BRANCH   4   5
ATOM      5  N   UNL     1      -1.420  -1.998   0.005  0.00  0.00    -0.277 N 
ATOM      6  C   UNL     1      -1.414  -2.666  -1.166  0.00  0.00    +0.307 C 
ATOM      7  O   UNL     1      -1.388  -3.881  -1.173  0.00  0.00    -0.252 OA
ATOM      8  N   UNL     1      -1.436  -1.986  -2.329  0.00  0.00    -0.269 N 
ATOM      9  H   UNL     1      -1.523  -1.020  -2.325  0.00  0.00    +0.156 HD
BRANCH   8  10
ATOM     10  C   UNL     1      -1.332  -2.674  -3.544  0.00  0.00    +0.035 A 
ATOM     11  C   UNL     1      -0.649  -2.104  -4.610  0.00  0.00    +0.023 A 
ATOM     12  C   UNL     1      -0.548  -2.785  -5.807  0.00  0.00    +0.005 A 
ATOM     13  C   UNL     1      -1.127  -4.034  -5.945  0.00  0.00    -0.050 A 
ATOM     14  C   UNL     1      -1.808  -4.604  -4.885  0.00  0.00    +0.005 A 
ATOM     15  C   UNL     1      -1.908  -3.930  -3.683  0.00  0.00    +0.023 A 
ATOM     16  C   UNL     1      -1.015  -4.775  -7.252  0.00  0.00    +0.044 C 
ENDBRANCH   8  10
BRANCH   5  17
ATOM     17  C   UNL     1      -1.451  -0.534   0.013  0.00  0.00    +0.109 C 
BRANCH  17  19
ATOM     18  C   UNL     1      -0.051   1.536   0.014  0.00  0.00    +0.005 C 
ATOM     19  C   UNL     1      -0.019   0.007   0.006  0.00  0.00    +0.016 C 
ENDBRANCH  17  19
ENDBRANCH   5  17
ENDBRANCH   4   5
ENDBRANCH   1   4
BRANCH   3  20
ATOM     20  C   UNL     1      -4.405  -3.970   3.289  0.00  0.00    +0.113 C 
BRANCH  20  21
ATOM     21  C   UNL     1      -4.862  -5.311   2.711  0.00  0.00    +0.054 C 
BRANCH  21  22
ATOM     22  C   UNL     1      -6.274  -5.594   3.154  0.00  0.00    -0.042 A 
ATOM     23  C   UNL     1      -6.503  -6.280   4.332  0.00  0.00    +0.007 A 
ATOM     24  C   UNL     1      -7.796  -6.543   4.743  0.00  0.00    +0.049 A 
ATOM     25  C   UNL     1      -8.867  -6.117   3.974  0.00  0.00    +0.161 A 
ATOM     26  C   UNL     1      -8.637  -5.426   2.788  0.00  0.00    +0.162 A 
ATOM     27  C   UNL     1      -7.338  -5.162   2.384  0.00  0.00    +0.053 A 
BRANCH  26  28
ATOM     28  O   UNL     1      -9.685  -5.007   2.029  0.00  0.00    -0.491 OA
ATOM     29  C   UNL     1      -9.374  -4.304   0.825  0.00  0.00    +0.277 C 
ENDBRANCH  26  28
BRANCH  25  30
ATOM     30  O   UNL     1     -10.141  -6.375   4.376  0.00  0.00    -0.491 OA
ATOM     31  C   UNL     1     -10.301  -7.090   5.603  0.00  0.00    +0.277 C 
ENDBRANCH  25  30
ENDBRANCH  21  22
ENDBRANCH  20  21
ENDBRANCH   3  20
BRANCH   3  32
ATOM     32  C   UNL     1      -1.904  -4.151   3.673  0.00  0.00    +0.150 C 
BRANCH  32  33
ATOM     33  C   UNL     1      -1.538  -3.081   4.669  0.00  0.00    +0.007 A 
ATOM     34  C   UNL     1      -1.997  -2.897   5.931  0.00  0.00    +0.013 A 
ATOM     35  C   UNL     1      -1.514  -1.835   6.672  0.00  0.00    +0.011 A 
ATOM     36  C   UNL     1      -0.594  -1.009   6.114  0.00  0.00    -0.013 A 
ATOM     37  S   UNL     1      -0.381  -1.733   4.497  0.00  0.00    -0.097 S 
ATOM     38  C   UNL     1       0.077   0.202   6.709  0.00  0.00    +0.051 C 
ENDBRANCH  32  33
ENDBRANCH   3  32
TORSDOF 12
