REMARK  Name = ZINC35502923
REMARK  4 active torsions:
REMARK  status: ('A' for Active; 'I' for Inactive)
REMARK    1  A    between atoms: C_1  and  N_2
REMARK    2  A    between atoms: N_2  and  C_3
REMARK    3  A    between atoms: C_3  and  C_5
REMARK    4  A    between atoms: C_3  and  C_12
REMARK                            x       y       z     vdW  Elec       q    Type
REMARK                         _______ _______ _______ _____ _____    ______ ____
ROOT
ATOM      1  C   UNL     1      -1.477  -0.514   0.079  0.00  0.00    -0.033 C 
ENDROOT
BRANCH   1   2
ATOM      2  C   UNL     1      -2.287  -0.108  -1.155  0.00  0.00    -0.037 C 
ATOM      3  C   UNL     1      -1.644  -0.707  -2.407  0.00  0.00    +0.009 C 
ATOM      4  C   UNL     1      -2.453  -0.301  -3.640  0.00  0.00    -0.010 C 
ATOM      5  C   UNL     1      -3.885  -0.821  -3.504  0.00  0.00    +0.007 C 
ATOM      6  C   UNL     1      -4.529  -0.222  -2.252  0.00  0.00    -0.010 C 
ATOM      7  C   UNL     1      -3.719  -0.628  -1.018  0.00  0.00    +0.009 C 
ATOM      8  C   UNL     1      -4.549   1.304  -2.369  0.00  0.00    +0.007 C 
ATOM      9  C   UNL     1      -3.116   1.824  -2.505  0.00  0.00    -0.010 C 
ATOM     10  C   UNL     1      -2.473   1.224  -3.758  0.00  0.00    +0.007 C 
ATOM     11  C   UNL     1      -2.307   1.418  -1.272  0.00  0.00    +0.009 C 
ENDBRANCH   1   2
BRANCH   1  12
ATOM     12  C   UNL     1      -2.131   0.046   1.315  0.00  0.00    -0.039 A 
ATOM     13  C   UNL     1      -2.928  -0.755   2.112  0.00  0.00    +0.026 A 
ATOM     14  C   UNL     1      -3.501  -0.219   3.218  0.00  0.00    +0.056 A 
ATOM     15  S   UNL     1      -2.916   1.467   3.158  0.00  0.00    -0.074 S 
ATOM     16  C   UNL     1      -1.943   1.343   1.666  0.00  0.00    +0.058 A 
ATOM     17 BR   UNL     1      -0.917   2.674   0.800  0.00  0.00    -0.042 Br
ATOM     18 BR   UNL     1      -4.628  -1.043   4.494  0.00  0.00    -0.043 Br
ENDBRANCH   1  12
BRANCH   1  20
ATOM     19  C   UNL     1      -0.532  -2.370   1.267  0.00  0.00    -0.100 C 
ATOM     20  N   UNL     1      -1.428  -1.979   0.171  0.00  0.00    +0.382 N 
ATOM     21  H   UNL     1      -1.084  -2.360  -0.697  0.00  0.00    -0.085 HD
ATOM     22  H   UNL     1      -2.355  -2.336   0.351  0.00  0.00    -0.085 HD
ENDBRANCH   1  20
TORSDOF 3
