REMARK  Name = ZINC36028130
REMARK  11 active torsions:
REMARK  status: ('A' for Active; 'I' for Inactive)
REMARK    1  A    between atoms: C_1  and  C_2
REMARK    2  A    between atoms: C_2  and  C_3
REMARK    3  A    between atoms: C_3  and  C_5
REMARK    4  A    between atoms: C_3  and  C_6
REMARK    5  A    between atoms: N_10  and  C_28
REMARK    6  A    between atoms: N_15  and  S_18
REMARK    7  A    between atoms: S_18  and  C_21
REMARK    8  A    between atoms: C_28  and  C_29
REMARK    9  A    between atoms: C_29  and  C_30
REMARK   10  A    between atoms: C_30  and  O_31
REMARK   11  A    between atoms: O_31  and  C_32
REMARK                            x       y       z     vdW  Elec       q    Type
REMARK                         _______ _______ _______ _____ _____    ______ ____
ROOT
ATOM      1  C   UNL     1       0.695  -1.990  -1.368  0.00  0.00    +0.022 C 
ATOM      2  C   UNL     1       1.447  -2.576  -0.193  0.00  0.00    +0.201 C 
ATOM      3  O   UNL     1       1.465  -2.126   0.933  0.00  0.00    -0.277 OA
ATOM      4  N   UNL     1       2.095  -3.684  -0.610  0.00  0.00    -0.314 N 
ATOM      5  C   UNL     1       1.822  -3.905  -2.032  0.00  0.00    +0.006 C 
ATOM      6  N   UNL     1       1.300  -2.626  -2.564  0.00  0.00    +0.401 N 
ATOM      7  C   UNL     1       3.108  -4.282  -2.765  0.00  0.00    +0.023 C 
ATOM      8  C   UNL     1       3.659  -5.589  -2.183  0.00  0.00    +0.109 C 
ATOM      9  N   UNL     1       2.604  -6.610  -2.232  0.00  0.00    -0.177 NA
ATOM     10  C   UNL     1       1.303  -6.311  -1.619  0.00  0.00    +0.109 C 
ATOM     11  C   UNL     1       0.771  -5.000  -2.205  0.00  0.00    +0.023 C 
ATOM     12  H   UNL     1       0.601  -2.791  -3.272  0.00  0.00    -0.082 HD
ATOM     13  H   UNL     1       2.051  -2.058  -2.927  0.00  0.00    -0.082 HD
ENDROOT
BRANCH   9  14
ATOM     14  S   UNL     1       2.877  -8.070  -2.964  0.00  0.00    +0.061 S 
ATOM     15  O   UNL     1       1.605  -8.578  -3.344  0.00  0.00    -0.153 OA
ATOM     16  O   UNL     1       3.926  -7.865  -3.900  0.00  0.00    -0.153 OA
BRANCH  14  17
ATOM     17  C   UNL     1       3.507  -9.161  -1.732  0.00  0.00    +0.106 A 
ATOM     18  C   UNL     1       4.869  -9.242  -1.512  0.00  0.00    +0.030 A 
ATOM     19  C   UNL     1       5.364 -10.098  -0.546  0.00  0.00    +0.022 A 
ATOM     20  C   UNL     1       4.496 -10.873   0.202  0.00  0.00    +0.041 A 
ATOM     21  C   UNL     1       3.132 -10.791  -0.018  0.00  0.00    +0.022 A 
ATOM     22  C   UNL     1       2.638  -9.931  -0.981  0.00  0.00    +0.030 A 
ATOM     23 CL   UNL     1       5.117 -11.948   1.415  0.00  0.00    -0.084 Cl
ENDBRANCH  14  17
ENDBRANCH   9  14
BRANCH   1  24
ATOM     24  C   UNL     1       0.884  -0.472  -1.419  0.00  0.00    -0.020 C 
ATOM     25  C   UNL     1       2.378  -0.147  -1.494  0.00  0.00    +0.006 C 
BRANCH  24  27
ATOM     26  C   UNL     1       0.365   1.683  -0.266  0.00  0.00    +0.004 C 
ATOM     27  C   UNL     1       0.288   0.158  -0.159  0.00  0.00    -0.001 C 
ENDBRANCH  24  27
ENDBRANCH   1  24
BRANCH   4  28
ATOM     28  C   UNL     1       2.941  -4.535   0.231  0.00  0.00    +0.108 C 
BRANCH  28  29
ATOM     29  C   UNL     1       4.376  -4.006   0.211  0.00  0.00    +0.047 C 
BRANCH  29  30
ATOM     30  C   UNL     1       5.285  -4.969   0.977  0.00  0.00    +0.161 C 
BRANCH  30  31
ATOM     31  O   UNL     1       6.626  -4.475   0.959  0.00  0.00    -0.383 OA
ATOM     32  C   UNL     1       7.561  -5.306   1.651  0.00  0.00    +0.193 C 
ENDBRANCH  30  31
ENDBRANCH  29  30
ENDBRANCH  28  29
ENDBRANCH   4  28
TORSDOF 8
