REMARK  Name = ZINC39999367
REMARK  13 active torsions:
REMARK  status: ('A' for Active; 'I' for Inactive)
REMARK    1  A    between atoms: C_1  and  C_2
REMARK    2  A    between atoms: C_2  and  C_3
REMARK    3  A    between atoms: C_3  and  C_4
REMARK    4  A    between atoms: C_4  and  C_5
REMARK    5  A    between atoms: C_5  and  C_7
REMARK    6  A    between atoms: C_5  and  C_9
REMARK    7  A    between atoms: C_7  and  C_8
REMARK    8  A    between atoms: C_9  and  N_10
REMARK    9  A    between atoms: C_14  and  C_15
REMARK   10  A    between atoms: C_16  and  O_27
REMARK   11  A    between atoms: C_21  and  C_26
REMARK   12  A    between atoms: O_27  and  C_28
REMARK   13  A    between atoms: C_33  and  C_34
REMARK                            x       y       z     vdW  Elec       q    Type
REMARK                         _______ _______ _______ _____ _____    ______ ____
ROOT
ATOM      1  C   UNL     1       2.563  -6.042  -8.562  0.00  0.00    +0.103 A 
ATOM      2  C   UNL     1       3.134  -7.271  -8.163  0.00  0.00    +0.235 A 
ATOM      3  N   UNL     1       4.062  -7.836  -8.918  0.00  0.00    -0.194 NA
ATOM      4  C   UNL     1       4.479  -7.274 -10.053  0.00  0.00    +0.144 A 
ATOM      5  C   UNL     1       5.469  -7.920 -10.815  0.00  0.00    +0.047 A 
ATOM      6  C   UNL     1       5.902  -7.353 -11.976  0.00  0.00    +0.008 A 
ATOM      7  C   UNL     1       5.354  -6.133 -12.396  0.00  0.00    -0.034 A 
ATOM      8  C   UNL     1       4.402  -5.526 -11.652  0.00  0.00    +0.099 A 
ATOM      9  N   UNL     1       3.963  -6.085 -10.489  0.00  0.00    -0.267 N 
ATOM     10  C   UNL     1       3.008  -5.455  -9.771  0.00  0.00    +0.269 A 
ATOM     11  O   UNL     1       2.541  -4.397 -10.155  0.00  0.00    -0.266 OA
ATOM     12  C   UNL     1       5.825  -5.498 -13.678  0.00  0.00    +0.045 C 
ENDROOT
BRANCH   1  17
ATOM     13  N   UNL     1       1.433  -4.386  -4.261  0.00  0.00    -0.255 N 
ATOM     14  C   UNL     1       0.944  -4.600  -5.470  0.00  0.00    +0.258 C 
ATOM     15  O   UNL     1      -0.225  -4.365  -5.724  0.00  0.00    -0.269 OA
ATOM     16  C   UNL     1       1.822  -5.112  -6.468  0.00  0.00    +0.077 C 
ATOM     17  C   UNL     1       1.568  -5.415  -7.774  0.00  0.00    +0.039 C 
ATOM     18  S   UNL     1       3.345  -5.250  -5.544  0.00  0.00    -0.061 S 
ATOM     19  C   UNL     1       2.731  -4.641  -3.982  0.00  0.00    +0.121 C 
ATOM     20  S   UNL     1       3.571  -4.436  -2.504  0.00  0.00    -0.027 S 
BRANCH  13  21
ATOM     21  C   UNL     1       0.558  -3.859  -3.211  0.00  0.00    +0.118 C 
BRANCH  21  22
ATOM     22  C   UNL     1       0.720  -2.340  -3.127  0.00  0.00    +0.007 C 
BRANCH  22  23
ATOM     23  C   UNL     1      -0.135  -1.798  -1.980  0.00  0.00    +0.002 C 
ATOM     24  C   UNL     1       0.413  -2.314  -0.648  0.00  0.00    +0.004 C 
ENDBRANCH  22  23
BRANCH  22  25
ATOM     25  C   UNL     1       0.267  -1.706  -4.444  0.00  0.00    +0.005 C 
BRANCH  25  26
ATOM     26  C   UNL     1       0.544  -0.202  -4.408  0.00  0.00    +0.000 C 
BRANCH  26  28
ATOM     27  C   UNL     1       0.368   1.937  -5.688  0.00  0.00    +0.004 C 
ATOM     28  C   UNL     1       0.091   0.433  -5.724  0.00  0.00    -0.003 C 
ENDBRANCH  26  28
ENDBRANCH  25  26
ENDBRANCH  22  25
ENDBRANCH  21  22
ENDBRANCH  13  21
ENDBRANCH   1  17
BRANCH   2  29
ATOM     29  O   UNL     1       2.733  -7.867  -7.017  0.00  0.00    -0.437 OA
BRANCH  29  30
ATOM     30  C   UNL     1       3.370  -9.005  -6.633  0.00  0.00    +0.133 A 
ATOM     31  C   UNL     1       4.351  -8.954  -5.653  0.00  0.00    +0.046 A 
ATOM     32  C   UNL     1       4.997 -10.112  -5.264  0.00  0.00    +0.004 A 
ATOM     33  C   UNL     1       4.667 -11.320  -5.851  0.00  0.00    +0.000 A 
ATOM     34  C   UNL     1       3.691 -11.372  -6.828  0.00  0.00    +0.007 A 
ATOM     35  C   UNL     1       3.037 -10.219  -7.217  0.00  0.00    -0.008 A 
ATOM     36  C   UNL     1       1.969 -10.278  -8.277  0.00  0.00    +0.047 C 
ENDBRANCH  29  30
ENDBRANCH   2  29
TORSDOF 9
