REMARK  Name = ZINC59166005
REMARK  4 active torsions:
REMARK  status: ('A' for Active; 'I' for Inactive)
REMARK    1  A    between atoms: C_1  and  C_2
REMARK    2  A    between atoms: C_4  and  C_22
REMARK    3  A    between atoms: N_9  and  N_10
REMARK    4  A    between atoms: C_11  and  C_13
REMARK                            x       y       z     vdW  Elec       q    Type
REMARK                         _______ _______ _______ _____ _____    ______ ____
ROOT
ATOM      1  C   UNL     1      -0.018   1.503   0.010  0.00  0.00    +0.044 C 
ATOM      2  C   UNL     1       0.002  -0.004   0.002  0.00  0.00    -0.049 A 
ATOM      3  C   UNL     1       0.006  -0.689  -1.201  0.00  0.00    +0.008 A 
ATOM      4  C   UNL     1       0.024  -2.069  -1.225  0.00  0.00    -0.028 A 
ATOM      5  C   UNL     1       0.039  -2.787  -0.034  0.00  0.00    +0.046 A 
ATOM      6  C   UNL     1       0.035  -2.090   1.181  0.00  0.00    +0.029 A 
ATOM      7  C   UNL     1       0.023  -0.700   1.194  0.00  0.00    +0.015 A 
ATOM      8  C   UNL     1       0.054  -3.115   2.251  0.00  0.00    +0.153 C 
ATOM      9  N   UNL     1       0.058  -2.916   3.547  0.00  0.00    -0.175 NA
ATOM     10  C   UNL     1       0.069  -4.409   1.539  0.00  0.00    +0.269 C 
ATOM     11  O   UNL     1       0.086  -5.511   2.056  0.00  0.00    -0.268 OA
ATOM     12  N   UNL     1       0.059  -4.154   0.220  0.00  0.00    -0.279 N 
ATOM     13  C   UNL     1       0.028  -2.799  -2.543  0.00  0.00    +0.046 C 
ATOM     14  H   UNL     1       0.065  -4.838  -0.469  0.00  0.00    +0.155 HD
ENDROOT
BRANCH   9  15
ATOM     15  N   UNL     1       0.077  -4.009   4.423  0.00  0.00    -0.206 N 
ATOM     16  C   UNL     1       0.080  -3.804   5.755  0.00  0.00    +0.235 C 
ATOM     17  O   UNL     1       0.067  -2.675   6.195  0.00  0.00    -0.274 OA
ATOM     18  H   UNL     1       0.087  -4.913   4.071  0.00  0.00    +0.177 HD
BRANCH  16  19
ATOM     19  C   UNL     1       0.101  -4.980   6.698  0.00  0.00    +0.077 C 
ATOM     20  C   UNL     1      -1.138  -5.846   6.460  0.00  0.00    +0.013 C 
ATOM     21  C   UNL     1      -1.117  -7.040   7.417  0.00  0.00    +0.001 C 
ATOM     22  C   UNL     1      -1.118  -6.535   8.861  0.00  0.00    +0.000 C 
ATOM     23  C   UNL     1       0.121  -5.669   9.099  0.00  0.00    +0.001 C 
ATOM     24  C   UNL     1       0.101  -4.476   8.142  0.00  0.00    +0.013 C 
ENDBRANCH  16  19
ENDBRANCH   9  15
TORSDOF 2
