REMARK  Name = ZINC06752775
REMARK  7 active torsions:
REMARK  status: ('A' for Active; 'I' for Inactive)
REMARK    1  A    between atoms: C_1  and  S_2
REMARK    2  A    between atoms: S_2  and  C_3
REMARK    3  A    between atoms: C_6  and  C_9
REMARK    4  A    between atoms: C_12  and  C_27
REMARK    5  A    between atoms: N_19  and  C_20
REMARK    6  A    between atoms: C_20  and  C_21
REMARK    7  A    between atoms: C_32  and  O_33
REMARK                            x       y       z     vdW  Elec       q    Type
REMARK                         _______ _______ _______ _____ _____    ______ ____
ROOT
ATOM      1  C   UNL     1      -5.789  -1.560   0.057  0.00  0.00    +0.141 C 
ATOM      2  C   UNL     1      -6.197  -2.091   1.403  0.00  0.00    +0.035 A 
ATOM      3  C   UNL     1      -6.331  -1.850   2.775  0.00  0.00    +0.102 A 
ATOM      4  N   UNL     1      -6.814  -2.947   3.323  0.00  0.00    -0.173 NA
ATOM      5  N   UNL     1      -6.998  -3.857   2.434  0.00  0.00    -0.272 N 
ATOM      6  H   UNL     1      -7.346  -4.745   2.610  0.00  0.00    +0.189 HD
ATOM      7  C   UNL     1      -6.631  -3.387   1.205  0.00  0.00    +0.126 A 
ATOM      8  C   UNL     1      -6.516  -3.705  -0.223  0.00  0.00    +0.266 C 
ATOM      9  O   UNL     1      -6.819  -4.771  -0.724  0.00  0.00    -0.268 OA
ATOM     10  N   UNL     1      -6.027  -2.648  -0.900  0.00  0.00    -0.283 N 
ENDROOT
BRANCH   1  14
ATOM     11  C   UNL     1      -1.647  -0.506   0.083  0.00  0.00    +0.008 A 
ATOM     12  C   UNL     1      -2.616   0.481  -0.050  0.00  0.00    +0.015 A 
ATOM     13  C   UNL     1      -3.953   0.137  -0.058  0.00  0.00    +0.007 A 
ATOM     14  C   UNL     1      -4.328  -1.188   0.066  0.00  0.00    -0.022 A 
ATOM     15  C   UNL     1      -3.367  -2.174   0.199  0.00  0.00    +0.007 A 
ATOM     16  C   UNL     1      -2.027  -1.837   0.202  0.00  0.00    +0.015 A 
BRANCH  11  18
ATOM     17  C   UNL     1       0.056   1.734  -0.083  0.00  0.00    +0.090 C 
ATOM     18  S   UNL     1       0.061  -0.072   0.094  0.00  0.00    -0.129 S 
ENDBRANCH  11  18
ENDBRANCH   1  14
BRANCH   3  19
ATOM     19  C   UNL     1      -5.991  -0.590   3.483  0.00  0.00    +0.044 A 
ATOM     20  C   UNL     1      -5.611   0.538   2.760  0.00  0.00    +0.014 A 
ATOM     21  C   UNL     1      -5.296   1.707   3.423  0.00  0.00    +0.001 A 
ATOM     22  C   UNL     1      -5.356   1.762   4.804  0.00  0.00    +0.004 A 
ATOM     23  C   UNL     1      -5.731   0.649   5.531  0.00  0.00    +0.046 A 
ATOM     24  C   UNL     1      -6.056  -0.529   4.878  0.00  0.00    +0.126 A 
BRANCH  24  25
ATOM     25  O   UNL     1      -6.432  -1.623   5.591  0.00  0.00    -0.506 OA
ATOM     26  H   UNL     1      -5.697  -2.196   5.848  0.00  0.00    +0.292 HD
ENDBRANCH  24  25
ENDBRANCH   3  19
BRANCH  10  27
ATOM     27  C   UNL     1      -5.777  -2.593  -2.343  0.00  0.00    +0.140 C 
BRANCH  27  28
ATOM     28  C   UNL     1      -4.347  -3.057  -2.630  0.00  0.00    +0.136 C 
ATOM     29  C   UNL     1      -4.034  -2.889  -4.132  0.00  0.00    +0.035 C 
ATOM     30  C   UNL     1      -3.205  -4.165  -4.441  0.00  0.00    +0.031 C 
ATOM     31  C   UNL     1      -3.882  -5.191  -3.497  0.00  0.00    +0.160 C 
ATOM     32  O   UNL     1      -4.214  -4.448  -2.312  0.00  0.00    -0.375 OA
ENDBRANCH  27  28
ENDBRANCH  10  27
TORSDOF 6
