REMARK  Name = ZINC26381226
REMARK  10 active torsions:
REMARK  status: ('A' for Active; 'I' for Inactive)
REMARK    1  A    between atoms: C_1  and  C_2
REMARK    2  A    between atoms: N_5  and  C_8
REMARK    3  A    between atoms: C_8  and  C_9
REMARK    4  A    between atoms: C_12  and  C_15
REMARK    5  A    between atoms: C_15  and  N_16
REMARK    6  A    between atoms: N_19  and  C_20
REMARK    7  A    between atoms: N_19  and  C_21
REMARK    8  A    between atoms: C_21  and  C_23
REMARK    9  A    between atoms: C_21  and  C_24
REMARK   10  A    between atoms: C_27  and  N_30
REMARK                            x       y       z     vdW  Elec       q    Type
REMARK                         _______ _______ _______ _____ _____    ______ ____
ROOT
ATOM      1  N   UNL     1       1.238  -2.667  -1.408  0.00  0.00    -0.295 N 
ATOM      2  C   UNL     1       1.257  -3.991  -1.662  0.00  0.00    +0.303 C 
ATOM      3  O   UNL     1       1.300  -4.786  -0.743  0.00  0.00    -0.253 OA
ATOM      4  N   UNL     1       1.227  -4.433  -2.935  0.00  0.00    -0.282 N 
ATOM      5  C   UNL     1       1.174  -3.474  -4.042  0.00  0.00    +0.134 C 
ATOM      6  H   UNL     1       1.198  -1.948  -2.239  0.00  0.00    +0.151 HD
ENDROOT
BRANCH   4   7
ATOM      7  C   UNL     1       1.247  -5.871  -3.212  0.00  0.00    +0.104 C 
ATOM      8  C   UNL     1       0.060  -6.235  -4.106  0.00  0.00    +0.033 C 
BRANCH   7   9
ATOM      9  C   UNL     1       2.532  -6.230  -3.912  0.00  0.00    -0.027 A 
ATOM     10  C   UNL     1       3.352  -7.213  -3.389  0.00  0.00    +0.007 A 
ATOM     11  C   UNL     1       4.527  -7.548  -4.032  0.00  0.00    +0.028 A 
ATOM     12  C   UNL     1       4.892  -6.888  -5.198  0.00  0.00    +0.067 A 
ATOM     13  C   UNL     1       4.070  -5.897  -5.717  0.00  0.00    +0.028 A 
ATOM     14  C   UNL     1       2.892  -5.571  -5.073  0.00  0.00    +0.007 A 
BRANCH  12  15
ATOM     15  N   UNL     1       6.087  -7.222  -5.850  0.00  0.00    -0.220 N 
ATOM     16  C   UNL     1       6.984  -8.151  -5.466  0.00  0.00    +0.225 A 
ATOM     17  N   UNL     1       7.958  -8.159  -6.340  0.00  0.00    -0.222 NA
ATOM     18  C   UNL     1       7.725  -7.249  -7.286  0.00  0.00    +0.245 A 
ATOM     19  N   UNL     1       6.592  -6.650  -7.029  0.00  0.00    -0.154 NA
ENDBRANCH  12  15
ENDBRANCH   7   9
ENDBRANCH   4   7
BRANCH   1  20
ATOM     20  C   UNL     1       1.270  -2.187  -0.024  0.00  0.00    +0.141 C 
BRANCH  20  24
ATOM     21  C   UNL     1       1.186   2.084   0.005  0.00  0.00    -0.064 A 
ATOM     22  C   UNL     1       0.003   1.369   0.036  0.00  0.00    +0.002 A 
ATOM     23  C   UNL     1       0.030  -0.013   0.026  0.00  0.00    +0.005 A 
ATOM     24  C   UNL     1       1.241  -0.680  -0.015  0.00  0.00    -0.030 A 
ATOM     25  C   UNL     1       2.423   0.035  -0.046  0.00  0.00    +0.005 A 
ATOM     26  C   UNL     1       2.396   1.417  -0.037  0.00  0.00    +0.002 A 
BRANCH  21  27
ATOM     27  C   UNL     1       1.156   3.591   0.015  0.00  0.00    -0.043 C 
BRANCH  27  32
ATOM     28  C   UNL     1       2.174   5.731   5.216  0.00  0.00    +0.007 C 
ATOM     29  C   UNL     1       2.327   5.295   3.757  0.00  0.00    -0.018 C 
ATOM     30  C   UNL     1       1.281   6.010   2.897  0.00  0.00    -0.016 C 
ATOM     31  C   UNL     1       1.398   5.524   1.451  0.00  0.00    -0.078 C 
ATOM     32  N   UNL     1       1.188   4.072   1.402  0.00  0.00    +0.382 N 
ATOM     33  C   UNL     1       2.209   3.361   2.183  0.00  0.00    -0.078 C 
ATOM     34  C   UNL     1       2.115   3.782   3.651  0.00  0.00    -0.016 C 
ATOM     35  H   UNL     1       0.209   3.859   1.858  0.00  0.00    -0.081 HD
ENDBRANCH  27  32
ENDBRANCH  21  27
ENDBRANCH  20  24
ENDBRANCH   1  20
TORSDOF 7
