REMARK  Name = ZINC31046169
REMARK  11 active torsions:
REMARK  status: ('A' for Active; 'I' for Inactive)
REMARK    1  A    between atoms: C_1  and  C_2
REMARK    2  A    between atoms: C_2  and  O_3
REMARK    3  A    between atoms: O_3  and  C_4
REMARK    4  A    between atoms: C_9  and  C_10
REMARK    5  A    between atoms: C_10  and  C_11
REMARK    6  A    between atoms: C_11  and  C_12
REMARK    7  A    between atoms: C_12  and  N_13
REMARK    8  A    between atoms: C_14  and  C_16
REMARK    9  A    between atoms: N_21  and  C_23
REMARK   10  A    between atoms: C_23  and  C_24
REMARK   11  A    between atoms: C_26  and  C_29
REMARK                            x       y       z     vdW  Elec       q    Type
REMARK                         _______ _______ _______ _____ _____    ______ ____
ROOT
ATOM      1  C   UNL     1      -0.019   1.526   0.010  0.00  0.00    +0.058 C 
ATOM      2  C   UNL     1       1.420   2.051  -0.001  0.00  0.00    +0.009 C 
ATOM      3  C   UNL     1       2.145   1.503  -1.232  0.00  0.00    -0.018 C 
ATOM      4  C   UNL     1       2.103  -0.026  -1.205  0.00  0.00    -0.078 C 
ATOM      5  N   UNL     1       0.706  -0.479  -1.196  0.00  0.00    +0.386 N 
ATOM      6  C   UNL     1       0.002  -0.004   0.002  0.00  0.00    -0.065 C 
ATOM      7  H   UNL     1       0.207  -0.042  -2.073  0.00  0.00    -0.081 HD
ENDROOT
BRANCH   1   9
ATOM      8  N   UNL     1      -0.861   3.335   1.472  0.00  0.00    -0.315 N 
ATOM      9  C   UNL     1      -0.723   2.013   1.251  0.00  0.00    +0.214 C 
ATOM     10  O   UNL     1      -1.165   1.215   2.050  0.00  0.00    -0.276 OA
ATOM     11  H   UNL     1      -0.460   4.059   0.747  0.00  0.00    +0.149 HD
BRANCH   8  12
ATOM     12  C   UNL     1      -1.546   3.808   2.678  0.00  0.00    +0.104 C 
BRANCH  12  13
ATOM     13  C   UNL     1      -1.566   5.338   2.685  0.00  0.00    +0.023 C 
BRANCH  13  14
ATOM     14  C   UNL     1      -2.280   5.832   3.945  0.00  0.00    +0.040 C 
BRANCH  14  20
ATOM     15  C   UNL     1      -3.301   8.024   3.277  0.00  0.00    +0.124 A 
ATOM     16  C   UNL     1      -3.317   9.411   3.287  0.00  0.00    +0.046 A 
ATOM     17  C   UNL     1      -2.337  10.107   3.967  0.00  0.00    +0.004 A 
ATOM     18  C   UNL     1      -1.341   9.423   4.640  0.00  0.00    +0.000 A 
ATOM     19  C   UNL     1      -1.326   8.040   4.636  0.00  0.00    +0.007 A 
ATOM     20  C   UNL     1      -2.300   7.339   3.952  0.00  0.00    -0.006 A 
BRANCH  15  21
ATOM     21  O   UNL     1      -4.263   7.336   2.608  0.00  0.00    -0.492 OA
BRANCH  21  23
ATOM     22  C   UNL     1      -6.251   7.167   1.244  0.00  0.00    +0.048 C 
ATOM     23  C   UNL     1      -5.261   8.107   1.935  0.00  0.00    +0.225 C 
ENDBRANCH  21  23
ENDBRANCH  15  21
ENDBRANCH  14  20
ENDBRANCH  13  14
ENDBRANCH  12  13
ENDBRANCH   8  12
ENDBRANCH   1   9
BRANCH   5  24
ATOM     24  C   UNL     1       0.626  -1.941  -1.309  0.00  0.00    +0.022 C 
BRANCH  24  25
ATOM     25  C   UNL     1       1.555  -2.413  -2.398  0.00  0.00    +0.211 A 
ATOM     26  N   UNL     1       2.813  -2.748  -2.256  0.00  0.00    -0.193 NA
ATOM     27  C   UNL     1       3.235  -3.103  -3.491  0.00  0.00    +0.202 A 
ATOM     28  N   UNL     1       2.221  -2.956  -4.303  0.00  0.00    -0.056 NA
ATOM     29  O   UNL     1       1.251  -2.561  -3.691  0.00  0.00    -0.340 OA
BRANCH  27  30
ATOM     30  C   UNL     1       4.597  -3.568  -3.857  0.00  0.00    +0.023 A 
ATOM     31  C   UNL     1       5.585  -3.671  -2.880  0.00  0.00    +0.013 A 
ATOM     32  C   UNL     1       6.848  -4.110  -3.224  0.00  0.00    +0.021 A 
ATOM     33  C   UNL     1       7.136  -4.435  -4.538  0.00  0.00    +0.041 A 
ATOM     34  C   UNL     1       6.159  -4.328  -5.513  0.00  0.00    +0.021 A 
ATOM     35  C   UNL     1       4.891  -3.896  -5.178  0.00  0.00    +0.013 A 
ATOM     36 CL   UNL     1       8.728  -4.979  -4.966  0.00  0.00    -0.084 Cl
ENDBRANCH  27  30
ENDBRANCH  24  25
ENDBRANCH   5  24
TORSDOF 10
