REMARK  Name = ZINC46710663
REMARK  9 active torsions:
REMARK  status: ('A' for Active; 'I' for Inactive)
REMARK    1  A    between atoms: C_1  and  C_2
REMARK    2  A    between atoms: C_2  and  C_4
REMARK    3  A    between atoms: C_2  and  N_13
REMARK    4  A    between atoms: C_7  and  O_11
REMARK    5  A    between atoms: O_11  and  C_12
REMARK    6  A    between atoms: C_14  and  C_16
REMARK    7  A    between atoms: C_16  and  N_21
REMARK    8  A    between atoms: N_24  and  C_25
REMARK    9  A    between atoms: C_25  and  C_26
REMARK                            x       y       z     vdW  Elec       q    Type
REMARK                         _______ _______ _______ _____ _____    ______ ____
ROOT
ATOM      1  C   UNL     1      -3.453  -1.188  -1.245  0.00  0.00    +0.112 C 
ATOM      2  C   UNL     1      -4.484  -0.048  -1.161  0.00  0.00    +0.035 C 
ATOM      3  C   UNL     1      -5.269  -0.065  -2.488  0.00  0.00    +0.003 C 
ATOM      4  C   UNL     1      -5.109  -1.517  -3.005  0.00  0.00    +0.003 C 
ATOM      5  C   UNL     1      -3.648  -1.858  -2.620  0.00  0.00    +0.035 C 
ENDROOT
BRANCH   1   6
ATOM      6  N   UNL     1      -3.690  -2.160  -0.175  0.00  0.00    -0.285 N 
ATOM      7  C   UNL     1      -3.673  -1.762   1.113  0.00  0.00    +0.301 C 
ATOM      8  O   UNL     1      -3.371  -0.618   1.392  0.00  0.00    -0.253 OA
ATOM      9  N   UNL     1      -3.991  -2.633   2.091  0.00  0.00    -0.295 N 
ATOM     10  H   UNL     1      -3.859  -3.090  -0.393  0.00  0.00    +0.151 HD
ATOM     11  H   UNL     1      -4.231  -3.546   1.869  0.00  0.00    +0.151 HD
BRANCH   9  12
ATOM     12  C   UNL     1      -3.972  -2.201   3.491  0.00  0.00    +0.141 C 
BRANCH  12  13
ATOM     13  C   UNL     1      -4.363  -3.355   4.378  0.00  0.00    -0.030 A 
ATOM     14  C   UNL     1      -5.692  -3.564   4.696  0.00  0.00    +0.005 A 
ATOM     15  C   UNL     1      -6.050  -4.622   5.509  0.00  0.00    +0.000 A 
ATOM     16  C   UNL     1      -5.079  -5.472   6.005  0.00  0.00    +0.000 A 
ATOM     17  C   UNL     1      -3.750  -5.264   5.687  0.00  0.00    +0.000 A 
ATOM     18  C   UNL     1      -3.393  -4.208   4.870  0.00  0.00    +0.005 A 
ENDBRANCH  12  13
ENDBRANCH   9  12
ENDBRANCH   1   6
BRANCH   1  20
ATOM     19  N   UNL     1      -1.045  -1.422  -0.730  0.00  0.00    -0.307 N 
ATOM     20  C   UNL     1      -2.057  -0.630  -1.135  0.00  0.00    +0.237 C 
ATOM     21  O   UNL     1      -1.845   0.531  -1.413  0.00  0.00    -0.273 OA
ATOM     22  H   UNL     1      -1.226  -2.330  -0.439  0.00  0.00    +0.149 HD
BRANCH  19  24
ATOM     23  C   UNL     1       0.591  -0.158   0.577  0.00  0.00    +0.033 C 
ATOM     24  C   UNL     1       0.328  -0.913  -0.728  0.00  0.00    +0.100 C 
BRANCH  24  25
ATOM     25  C   UNL     1       1.292  -2.066  -0.844  0.00  0.00    -0.026 A 
ATOM     26  C   UNL     1       1.046  -3.242  -0.160  0.00  0.00    +0.009 A 
ATOM     27  C   UNL     1       1.928  -4.300  -0.263  0.00  0.00    +0.047 A 
ATOM     28  C   UNL     1       3.061  -4.183  -1.055  0.00  0.00    +0.134 A 
ATOM     29  C   UNL     1       3.305  -3.002  -1.741  0.00  0.00    +0.060 A 
ATOM     30  C   UNL     1       2.417  -1.948  -1.638  0.00  0.00    +0.024 A 
ATOM     31 BR   UNL     1       4.849  -2.837  -2.822  0.00  0.00    -0.047 Br
BRANCH  28  32
ATOM     32  O   UNL     1       3.930  -5.223  -1.158  0.00  0.00    -0.494 OA
ATOM     33  C   UNL     1       3.614  -6.407  -0.424  0.00  0.00    +0.277 C 
ENDBRANCH  28  32
ENDBRANCH  24  25
ENDBRANCH  19  24
ENDBRANCH   1  20
TORSDOF 7
