REMARK  Name = ZINC13500510
REMARK  12 active torsions:
REMARK  status: ('A' for Active; 'I' for Inactive)
REMARK    1  A    between atoms: C_1  and  C_2
REMARK    2  A    between atoms: C_9  and  C_14
REMARK    3  A    between atoms: C_14  and  N_15
REMARK    4  A    between atoms: N_15  and  C_16
REMARK    5  A    between atoms: N_15  and  C_24
REMARK    6  A    between atoms: C_16  and  C_17
REMARK    7  A    between atoms: C_17  and  C_18
REMARK    8  A    between atoms: C_24  and  C_26
REMARK    9  A    between atoms: C_24  and  C_37
REMARK   10  A    between atoms: N_30  and  C_31
REMARK   11  A    between atoms: C_37  and  C_38
REMARK   12  A    between atoms: C_37  and  C_39
REMARK                            x       y       z     vdW  Elec       q    Type
REMARK                         _______ _______ _______ _____ _____    ______ ____
ROOT
ATOM      1  N   UNL     1      -2.620   4.857   1.340  0.00  0.00    -0.288 NA
ENDROOT
BRANCH   1   2
ATOM      2  C   UNL     1      -1.865   4.266   0.228  0.00  0.00    +0.125 C 
BRANCH   2  11
ATOM      3  C   UNL     1       3.022  -0.695   2.897  0.00  0.00    +0.044 C 
ATOM      4  C   UNL     1       2.687   0.697   2.425  0.00  0.00    -0.050 A 
ATOM      5  C   UNL     1       3.670   1.677   2.419  0.00  0.00    +0.005 A 
ATOM      6  C   UNL     1       3.385   2.956   1.992  0.00  0.00    +0.026 A 
ATOM      7  C   UNL     1       2.100   3.270   1.563  0.00  0.00    +0.049 A 
ATOM      8  C   UNL     1       1.106   2.274   1.571  0.00  0.00    -0.001 A 
ATOM      9  C   UNL     1       1.417   0.982   2.008  0.00  0.00    +0.013 A 
ATOM     10  C   UNL     1      -0.246   2.616   1.123  0.00  0.00    +0.020 A 
ATOM     11  C   UNL     1      -0.487   3.882   0.702  0.00  0.00    +0.031 A 
ATOM     12  C   UNL     1       0.545   4.845   0.714  0.00  0.00    +0.254 A 
ATOM     13  O   UNL     1       0.305   5.979   0.338  0.00  0.00    -0.268 OA
ATOM     14  N   UNL     1       1.787   4.541   1.130  0.00  0.00    -0.322 N 
ATOM     15  H   UNL     1       2.559   5.325   1.121  0.00  0.00    +0.169 HD
ENDBRANCH   2  11
ENDBRANCH   1   2
BRANCH   1  16
ATOM     16  C   UNL     1      -2.876   3.862   2.390  0.00  0.00    +0.090 C 
BRANCH  16  17
ATOM     17  C   UNL     1      -3.812   2.779   1.849  0.00  0.00    +0.050 C 
BRANCH  17  18
ATOM     18  C   UNL     1      -4.005   1.713   2.896  0.00  0.00    -0.046 A 
ATOM     19  C   UNL     1      -3.140   0.636   2.954  0.00  0.00    +0.003 A 
ATOM     20  C   UNL     1      -3.314  -0.339   3.918  0.00  0.00    +0.000 A 
ATOM     21  C   UNL     1      -4.359  -0.243   4.817  0.00  0.00    +0.000 A 
ATOM     22  C   UNL     1      -5.228   0.830   4.756  0.00  0.00    +0.000 A 
ATOM     23  C   UNL     1      -5.051   1.809   3.796  0.00  0.00    +0.003 A 
ENDBRANCH  17  18
ENDBRANCH  16  17
ENDBRANCH   1  16
BRANCH   1  24
ATOM     24  C   UNL     1      -3.874   5.457   0.866  0.00  0.00    +0.129 C 
BRANCH  24  25
ATOM     25  C   UNL     1      -4.678   5.939   2.046  0.00  0.00    +0.169 A 
ATOM     26  N   UNL     1      -4.216   6.540   3.115  0.00  0.00    -0.112 NA
ATOM     27  N   UNL     1      -5.213   6.793   3.891  0.00  0.00    -0.023 NA
ATOM     28  N   UNL     1      -6.298   6.369   3.345  0.00  0.00    -0.044 NA
ATOM     29  N   UNL     1      -6.011   5.840   2.204  0.00  0.00    -0.225 N 
BRANCH  29  30
ATOM     30  C   UNL     1      -6.958   5.242   1.259  0.00  0.00    +0.111 C 
ATOM     31  C   UNL     1      -8.045   6.262   0.912  0.00  0.00    +0.027 C 
ATOM     32  C   UNL     1      -9.033   5.637  -0.074  0.00  0.00    +0.002 C 
ATOM     33  C   UNL     1      -9.676   4.402   0.560  0.00  0.00    +0.000 C 
ATOM     34  C   UNL     1      -8.589   3.383   0.907  0.00  0.00    +0.002 C 
ATOM     35  C   UNL     1      -7.600   4.008   1.894  0.00  0.00    +0.027 C 
ENDBRANCH  29  30
ENDBRANCH  24  25
BRANCH  24  36
ATOM     36  C   UNL     1      -3.558   6.639  -0.053  0.00  0.00    +0.008 C 
ATOM     37  C   UNL     1      -4.865   7.264  -0.547  0.00  0.00    +0.009 C 
ATOM     38  C   UNL     1      -2.753   7.685   0.720  0.00  0.00    +0.009 C 
ENDBRANCH  24  36
ENDBRANCH   1  24
TORSDOF 9
