REMARK  Name = ZINC39599701
REMARK  9 active torsions:
REMARK  status: ('A' for Active; 'I' for Inactive)
REMARK    1  A    between atoms: C_1  and  C_2
REMARK    2  A    between atoms: C_2  and  C_4
REMARK    3  A    between atoms: C_2  and  O_32
REMARK    4  A    between atoms: C_8  and  C_17
REMARK    5  A    between atoms: N_19  and  C_20
REMARK    6  A    between atoms: C_20  and  C_21
REMARK    7  A    between atoms: C_24  and  O_27
REMARK    8  A    between atoms: O_27  and  C_28
REMARK    9  A    between atoms: O_32  and  C_33
REMARK                            x       y       z     vdW  Elec       q    Type
REMARK                         _______ _______ _______ _____ _____    ______ ____
ROOT
ATOM      1  C   UNL     1       0.610  -0.642  -1.166  0.00  0.00    +0.256 C 
ATOM      2  O   UNL     1       1.711  -1.064  -0.884  0.00  0.00    -0.272 OA
ATOM      3  N   UNL     1       0.225  -0.571  -2.456  0.00  0.00    -0.297 N 
ATOM      4  C   UNL     1      -1.096  -0.163  -2.989  0.00  0.00    +0.121 C 
ATOM      5  C   UNL     1      -0.768   0.674  -4.246  0.00  0.00    +0.100 C 
ATOM      6  C   UNL     1       0.626   0.194  -4.684  0.00  0.00    -0.004 C 
ATOM      7  C   UNL     1       1.031  -0.879  -3.662  0.00  0.00    +0.115 C 
ATOM      8  C   UNL     1       1.620   1.352  -4.645  0.00  0.00    -0.010 C 
ATOM      9  C   UNL     1       2.985   0.864  -5.139  0.00  0.00    -0.082 C 
ATOM     10  N   UNL     1       2.856   0.348  -6.507  0.00  0.00    +0.379 N 
ATOM     11  C   UNL     1       1.971  -0.823  -6.521  0.00  0.00    -0.082 C 
ATOM     12  C   UNL     1       0.563  -0.406  -6.085  0.00  0.00    -0.010 C 
ATOM     13  H   UNL     1       2.470   1.067  -7.101  0.00  0.00    -0.086 HD
ATOM     14  H   UNL     1       3.767   0.084  -6.853  0.00  0.00    -0.086 HD
ENDROOT
BRANCH   5  15
ATOM     15  C   UNL     1      -0.737   2.142  -3.906  0.00  0.00    +0.218 C 
ATOM     16  O   UNL     1      -0.264   2.510  -2.852  0.00  0.00    -0.275 OA
ATOM     17  N   UNL     1      -1.237   3.045  -4.773  0.00  0.00    -0.311 N 
ATOM     18  H   UNL     1      -1.616   2.750  -5.616  0.00  0.00    +0.149 HD
BRANCH  17  19
ATOM     19  C   UNL     1      -1.207   4.471  -4.443  0.00  0.00    +0.139 C 
BRANCH  19  20
ATOM     20  C   UNL     1      -1.822   5.261  -5.570  0.00  0.00    -0.030 A 
ATOM     21  C   UNL     1      -1.028   5.715  -6.607  0.00  0.00    +0.009 A 
ATOM     22  C   UNL     1      -1.589   6.440  -7.641  0.00  0.00    +0.046 A 
ATOM     23  C   UNL     1      -2.949   6.710  -7.639  0.00  0.00    +0.130 A 
ATOM     24  C   UNL     1      -3.744   6.253  -6.597  0.00  0.00    +0.046 A 
ATOM     25  C   UNL     1      -3.179   5.525  -5.568  0.00  0.00    +0.009 A 
BRANCH  23  26
ATOM     26  O   UNL     1      -3.503   7.423  -8.655  0.00  0.00    -0.406 OA
BRANCH  26  27
ATOM     27  C   UNL     1      -4.910   7.664  -8.587  0.00  0.00    +0.575 C 
ATOM     28  F   UNL     1      -5.205   8.380  -7.421  0.00  0.00    -0.133 F 
ATOM     29  F   UNL     1      -5.311   8.406  -9.703  0.00  0.00    -0.133 F 
ATOM     30  F   UNL     1      -5.592   6.443  -8.569  0.00  0.00    -0.133 F 
ENDBRANCH  26  27
ENDBRANCH  23  26
ENDBRANCH  19  20
ENDBRANCH  17  19
ENDBRANCH   5  15
BRANCH   1  32
ATOM     31  C   UNL     1      -0.493   1.323  -0.131  0.00  0.00    +0.062 C 
ATOM     32  C   UNL     1      -0.329  -0.197  -0.075  0.00  0.00    +0.256 C 
BRANCH  32  33
ATOM     33  O   UNL     1       0.206  -0.572   1.196  0.00  0.00    -0.480 OA
BRANCH  33  34
ATOM     34  C   UNL     1      -0.679  -0.739   2.213  0.00  0.00    +0.122 A 
ATOM     35  C   UNL     1      -2.021  -0.443   2.023  0.00  0.00    +0.045 A 
ATOM     36  C   UNL     1      -2.919  -0.615   3.059  0.00  0.00    +0.004 A 
ATOM     37  C   UNL     1      -2.481  -1.081   4.284  0.00  0.00    +0.000 A 
ATOM     38  C   UNL     1      -1.144  -1.377   4.477  0.00  0.00    +0.004 A 
ATOM     39  C   UNL     1      -0.243  -1.213   3.443  0.00  0.00    +0.045 A 
ENDBRANCH  33  34
ENDBRANCH  32  33
ENDBRANCH   1  32
TORSDOF 8
