REMARK  Name = ZINC23384968
REMARK  6 active torsions:
REMARK  status: ('A' for Active; 'I' for Inactive)
REMARK    1  A    between atoms: C_8  and  C_10
REMARK    2  A    between atoms: N_13  and  C_16
REMARK    3  A    between atoms: C_16  and  N_17
REMARK    4  A    between atoms: N_20  and  C_30
REMARK    5  A    between atoms: C_21  and  C_23
REMARK    6  A    between atoms: C_30  and  C_31
REMARK                            x       y       z     vdW  Elec       q    Type
REMARK                         _______ _______ _______ _____ _____    ______ ____
ROOT
ATOM      1  N   UNL     1       7.936   3.602   1.281  0.00  0.00    -0.257 N 
ATOM      2  C   UNL     1       8.396   2.709   2.182  0.00  0.00    +0.177 A 
ATOM      3  S   UNL     1       8.617   1.032   1.920  0.00  0.00    -0.011 S 
ATOM      4  N   UNL     1       8.652   3.377   3.324  0.00  0.00    -0.301 N 
ATOM      5  C   UNL     1       8.343   4.708   3.127  0.00  0.00    +0.163 A 
ATOM      6  N   UNL     1       7.918   4.857   1.904  0.00  0.00    -0.152 NA
ENDROOT
BRANCH   5   7
ATOM      7  C   UNL     1       8.477   5.785   4.133  0.00  0.00    +0.019 A 
ATOM      8  C   UNL     1       9.284   5.597   5.256  0.00  0.00    +0.014 A 
ATOM      9  C   UNL     1       9.411   6.606   6.187  0.00  0.00    +0.039 A 
ATOM     10  C   UNL     1       8.731   7.801   6.015  0.00  0.00    +0.123 A 
ATOM     11  C   UNL     1       7.924   7.990   4.904  0.00  0.00    +0.039 A 
ATOM     12  C   UNL     1       7.795   6.990   3.964  0.00  0.00    +0.014 A 
ATOM     13  F   UNL     1       8.855   8.784   6.933  0.00  0.00    -0.205 F 
ENDBRANCH   5   7
BRANCH   1  14
ATOM     14  C   UNL     1       7.533   3.312  -0.097  0.00  0.00    +0.072 C 
BRANCH  14  18
ATOM     15  C   UNL     1       3.785   1.276  -0.388  0.00  0.00    +0.072 C 
ATOM     16  C   UNL     1       4.243   1.820   0.968  0.00  0.00    -0.006 C 
ATOM     17  C   UNL     1       5.759   2.033   0.940  0.00  0.00    -0.075 C 
ATOM     18  N   UNL     1       6.103   2.978  -0.130  0.00  0.00    +0.393 N 
ATOM     19  C   UNL     1       5.715   2.454  -1.446  0.00  0.00    -0.075 C 
ATOM     20  C   UNL     1       4.198   2.255  -1.490  0.00  0.00    -0.006 C 
ATOM     21  H   UNL     1       5.534   3.903   0.044  0.00  0.00    -0.079 HD
BRANCH  15  29
ATOM     22  C   UNL     1      -2.209   1.351  -0.261  0.00  0.00    +0.002 A 
ATOM     23  C   UNL     1      -2.077  -0.008  -0.505  0.00  0.00    +0.004 A 
ATOM     24  C   UNL     1      -0.827  -0.578  -0.630  0.00  0.00    +0.048 A 
ATOM     25  C   UNL     1       0.307   0.212  -0.511  0.00  0.00    +0.155 A 
ATOM     26  C   UNL     1       0.177   1.587  -0.265  0.00  0.00    +0.110 A 
ATOM     27  C   UNL     1      -1.094   2.149  -0.136  0.00  0.00    +0.031 A 
ATOM     28  N   UNL     1       1.440   2.089  -0.200  0.00  0.00    -0.213 NA
ATOM     29  C   UNL     1       2.286   1.121  -0.388  0.00  0.00    +0.200 A 
ATOM     30  O   UNL     1       1.633  -0.036  -0.580  0.00  0.00    -0.439 OA
ENDBRANCH  15  29
ENDBRANCH  14  18
ENDBRANCH   1  14
BRANCH   4  31
ATOM     31  C   UNL     1       9.169   2.790   4.563  0.00  0.00    +0.157 C 
BRANCH  31  32
ATOM     32  C   UNL     1      10.692   2.671   4.474  0.00  0.00    +0.138 C 
ATOM     33  C   UNL     1      11.248   2.067   5.781  0.00  0.00    +0.035 C 
ATOM     34  C   UNL     1      12.550   2.886   5.996  0.00  0.00    +0.031 C 
ATOM     35  C   UNL     1      12.124   4.266   5.436  0.00  0.00    +0.160 C 
ATOM     36  O   UNL     1      11.273   3.971   4.317  0.00  0.00    -0.375 OA
ENDBRANCH  31  32
ENDBRANCH   4  31
TORSDOF 6
