REMARK  Name = ZINC16187206
REMARK  13 active torsions:
REMARK  status: ('A' for Active; 'I' for Inactive)
REMARK    1  A    between atoms: C_1  and  C_2
REMARK    2  A    between atoms: C_2  and  O_3
REMARK    3  A    between atoms: O_3  and  C_4
REMARK    4  A    between atoms: C_4  and  C_5
REMARK    5  A    between atoms: C_5  and  C_6
REMARK    6  A    between atoms: C_6  and  N_7
REMARK    7  A    between atoms: N_7  and  C_8
REMARK    8  A    between atoms: C_8  and  N_10
REMARK    9  A    between atoms: N_10  and  N_11
REMARK   10  A    between atoms: C_12  and  C_14
REMARK   11  A    between atoms: C_19  and  N_20
REMARK   12  A    between atoms: N_20  and  S_21
REMARK   13  A    between atoms: S_21  and  C_24
REMARK                            x       y       z     vdW  Elec       q    Type
REMARK                         _______ _______ _______ _____ _____    ______ ____
ROOT
ATOM      1  N   UNL     1       0.131   1.278   0.298  0.00  0.00    -0.231 N 
ATOM      2  C   UNL     1      -1.093   1.836   0.211  0.00  0.00    +0.262 C 
ATOM      3  O   UNL     1      -1.204   3.038   0.069  0.00  0.00    -0.269 OA
ATOM      4  H   UNL     1       0.220   0.319   0.412  0.00  0.00    +0.173 HD
ENDROOT
BRANCH   2   5
ATOM      5  C   UNL     1      -2.296   0.988   0.288  0.00  0.00    +0.060 A 
ATOM      6  C   UNL     1      -2.174  -0.394   0.452  0.00  0.00    +0.015 A 
ATOM      7  C   UNL     1      -3.302  -1.181   0.523  0.00  0.00    +0.001 A 
ATOM      8  C   UNL     1      -4.562  -0.608   0.434  0.00  0.00    +0.002 A 
ATOM      9  C   UNL     1      -4.700   0.755   0.272  0.00  0.00    +0.025 A 
ATOM     10  C   UNL     1      -3.573   1.565   0.204  0.00  0.00    +0.060 A 
BRANCH  10  11
ATOM     11  N   UNL     1      -3.709   2.938   0.047  0.00  0.00    -0.215 N 
ATOM     12  H   UNL     1      -3.068   3.431  -0.489  0.00  0.00    +0.174 HD
BRANCH  11  13
ATOM     13  S   UNL     1      -4.966   3.734   0.775  0.00  0.00    +0.079 S 
ATOM     14  O   UNL     1      -4.757   5.121   0.545  0.00  0.00    -0.149 OA
ATOM     15  O   UNL     1      -6.155   3.067   0.376  0.00  0.00    -0.149 OA
BRANCH  13  16
ATOM     16  C   UNL     1      -4.806   3.482   2.511  0.00  0.00    +0.146 A 
ATOM     17  C   UNL     1      -4.138   4.229   3.424  0.00  0.00    +0.036 A 
ATOM     18  C   UNL     1      -4.150   3.836   4.750  0.00  0.00    +0.010 A 
ATOM     19  C   UNL     1      -4.830   2.717   5.097  0.00  0.00    +0.047 A 
ATOM     20  S   UNL     1      -5.490   2.182   3.527  0.00  0.00    -0.077 S 
ENDBRANCH  13  16
ENDBRANCH  11  13
ENDBRANCH  10  11
ENDBRANCH   2   5
BRANCH   1  21
ATOM     21  N   UNL     1       1.275   2.083   0.219  0.00  0.00    -0.246 N 
ATOM     22  H   UNL     1       1.187   3.042   0.106  0.00  0.00    +0.172 HD
BRANCH  21  23
ATOM     23  C   UNL     1       2.499   1.524   0.301  0.00  0.00    +0.147 C 
ATOM     24  S   UNL     1       3.897   2.508   0.204  0.00  0.00    -0.017 S 
BRANCH  23  25
ATOM     25  N   UNL     1       2.622   0.191   0.459  0.00  0.00    -0.325 N 
ATOM     26  H   UNL     1       1.830  -0.366   0.513  0.00  0.00    +0.148 HD
BRANCH  25  27
ATOM     27  C   UNL     1       3.953  -0.416   0.547  0.00  0.00    +0.105 C 
BRANCH  27  28
ATOM     28  C   UNL     1       3.812  -1.929   0.723  0.00  0.00    +0.047 C 
BRANCH  28  29
ATOM     29  C   UNL     1       5.201  -2.563   0.815  0.00  0.00    +0.161 C 
BRANCH  29  30
ATOM     30  O   UNL     1       5.070  -3.977   0.979  0.00  0.00    -0.380 OA
BRANCH  30  32
ATOM     31  C   UNL     1       6.055  -6.167   1.249  0.00  0.00    +0.034 C 
ATOM     32  C   UNL     1       6.316  -4.669   1.077  0.00  0.00    +0.156 C 
ENDBRANCH  30  32
ENDBRANCH  29  30
ENDBRANCH  28  29
ENDBRANCH  27  28
ENDBRANCH  25  27
ENDBRANCH  23  25
ENDBRANCH  21  23
ENDBRANCH   1  21
TORSDOF 12
