REMARK  Name = ZINC09579412
REMARK  7 active torsions:
REMARK  status: ('A' for Active; 'I' for Inactive)
REMARK    1  A    between atoms: C_1  and  C_2
REMARK    2  A    between atoms: C_2  and  C_4
REMARK    3  A    between atoms: C_2  and  N_55
REMARK    4  A    between atoms: C_17  and  C_18
REMARK    5  A    between atoms: C_17  and  N_55
REMARK    6  A    between atoms: C_18  and  C_20
REMARK    7  A    between atoms: C_18  and  C_25
REMARK                            x       y       z     vdW  Elec       q    Type
REMARK                         _______ _______ _______ _____ _____    ______ ____
ROOT
ATOM      1  N   UNL     1      -1.029   5.246   2.483  0.00  0.00    +0.387 N 
ATOM      2  H   UNL     1      -0.596   4.316   2.508  0.00  0.00    -0.085 HD
ATOM      3  H   UNL     1      -0.296   5.963   2.429  0.00  0.00    -0.085 HD
ENDROOT
BRANCH   1   5
ATOM      4  C   UNL     1      -2.449   4.122   4.139  0.00  0.00    -0.004 C 
ATOM      5  C   UNL     1      -1.817   5.449   3.713  0.00  0.00    +0.013 C 
BRANCH   5   6
ATOM      6  C   UNL     1      -0.908   5.947   4.807  0.00  0.00    +0.206 C 
ATOM      7  O   UNL     1       0.272   6.118   4.584  0.00  0.00    -0.277 OA
ATOM      8  N   UNL     1      -1.407   6.202   6.033  0.00  0.00    -0.262 N 
ATOM      9  C   UNL     1      -2.834   6.009   6.327  0.00  0.00    +0.209 C 
ATOM     10  C   UNL     1      -3.327   7.157   7.165  0.00  0.00    +0.235 C 
ATOM     11  O   UNL     1      -4.490   7.495   7.092  0.00  0.00    -0.274 OA
ATOM     12  N   UNL     1      -2.494   7.816   7.991  0.00  0.00    -0.283 N 
ATOM     13  C   UNL     1      -1.138   7.479   8.058  0.00  0.00    +0.055 A 
ATOM     14  C   UNL     1      -0.580   6.667   7.069  0.00  0.00    +0.058 A 
ATOM     15  C   UNL     1       0.760   6.331   7.117  0.00  0.00    +0.025 A 
ATOM     16  C   UNL     1       1.548   6.802   8.154  0.00  0.00    +0.002 A 
ATOM     17  C   UNL     1       0.998   7.604   9.136  0.00  0.00    +0.002 A 
ATOM     18  C   UNL     1      -0.342   7.944   9.092  0.00  0.00    +0.025 A 
ATOM     19  H   UNL     1      -2.838   8.533   8.547  0.00  0.00    +0.155 HD
ENDBRANCH   5   6
ENDBRANCH   1   5
BRANCH   1  20
ATOM     20  C   UNL     1      -1.897   5.348   1.295  0.00  0.00    -0.068 C 
BRANCH  20  21
ATOM     21  C   UNL     1      -1.054   5.133   0.037  0.00  0.00    +0.041 C 
BRANCH  21  22
ATOM     22  C   UNL     1      -1.907   5.356  -1.184  0.00  0.00    -0.016 A 
ATOM     23  C   UNL     1      -3.013   4.674  -1.521  0.00  0.00    +0.087 A 
ATOM     24  N   UNL     1      -3.522   5.160  -2.695  0.00  0.00    -0.360 N 
ATOM     25  H   UNL     1      -4.319   4.828  -3.136  0.00  0.00    +0.165 HD
ATOM     26  C   UNL     1      -2.731   6.187  -3.159  0.00  0.00    +0.047 A 
ATOM     27  C   UNL     1      -1.684   6.355  -2.233  0.00  0.00    +0.003 A 
ATOM     28  C   UNL     1      -0.716   7.337  -2.447  0.00  0.00    +0.010 A 
ATOM     29  C   UNL     1      -0.789   8.132  -3.557  0.00  0.00    +0.001 A 
ATOM     30  C   UNL     1      -1.819   7.969  -4.473  0.00  0.00    +0.002 A 
ATOM     31  C   UNL     1      -2.785   7.006  -4.281  0.00  0.00    +0.026 A 
ENDBRANCH  21  22
BRANCH  21  32
ATOM     32  C   UNL     1      -0.518   3.725   0.025  0.00  0.00    -0.005 A 
ATOM     33  C   UNL     1       0.770   3.301   0.012  0.00  0.00    +0.012 A 
ATOM     34  C   UNL     1       1.029   1.944   0.003  0.00  0.00    +0.008 A 
ATOM     35  C   UNL     1      -0.013   1.076   0.008  0.00  0.00    +0.045 A 
ATOM     36  S   UNL     1      -1.415   2.181   0.019  0.00  0.00    -0.101 S 
ENDBRANCH  21  32
ENDBRANCH  20  21
ENDBRANCH   1  20
TORSDOF 6
