REMARK  Name = ZINC36498358
REMARK  13 active torsions:
REMARK  status: ('A' for Active; 'I' for Inactive)
REMARK    1  A    between atoms: C_1  and  C_2
REMARK    2  A    between atoms: C_2  and  C_3
REMARK    3  A    between atoms: C_3  and  C_4
REMARK    4  A    between atoms: C_4  and  N_5
REMARK    5  A    between atoms: C_6  and  C_8
REMARK    6  A    between atoms: C_8  and  C_10
REMARK    7  A    between atoms: C_8  and  N_19
REMARK    8  A    between atoms: C_11  and  O_18
REMARK    9  A    between atoms: C_13  and  O_17
REMARK   10  A    between atoms: C_15  and  O_16
REMARK   11  A    between atoms: N_19  and  C_20
REMARK   12  A    between atoms: C_20  and  C_21
REMARK   13  A    between atoms: C_26  and  C_28
REMARK                            x       y       z     vdW  Elec       q    Type
REMARK                         _______ _______ _______ _____ _____    ______ ____
ROOT
ATOM      1  C   UNL     1       2.319  -5.620  -5.209  0.00  0.00    +0.200 C 
ENDROOT
BRANCH   1   2
ATOM      2  C   UNL     1       1.173  -5.103  -6.040  0.00  0.00    +0.065 A 
ATOM      3  C   UNL     1      -0.095  -5.003  -5.488  0.00  0.00    +0.129 A 
ATOM      4  C   UNL     1      -1.149  -4.528  -6.253  0.00  0.00    +0.091 A 
ATOM      5  C   UNL     1      -0.935  -4.152  -7.570  0.00  0.00    +0.124 A 
ATOM      6  C   UNL     1       0.333  -4.251  -8.123  0.00  0.00    +0.091 A 
ATOM      7  C   UNL     1       1.388  -4.723  -7.356  0.00  0.00    +0.129 A 
BRANCH   7   8
ATOM      8  O   UNL     1       2.632  -4.816  -7.896  0.00  0.00    -0.506 OA
ATOM      9  H   UNL     1       2.814  -5.666  -8.319  0.00  0.00    +0.292 HD
ENDBRANCH   7   8
BRANCH   5  10
ATOM     10  O   UNL     1      -1.969  -3.687  -8.320  0.00  0.00    -0.507 OA
ATOM     11  H   UNL     1      -2.089  -2.729  -8.274  0.00  0.00    +0.292 HD
ENDBRANCH   5  10
BRANCH   3  12
ATOM     12  O   UNL     1      -0.304  -5.371  -4.196  0.00  0.00    -0.506 OA
ATOM     13  H   UNL     1      -0.227  -4.645  -3.563  0.00  0.00    +0.292 HD
ENDBRANCH   3  12
ENDBRANCH   1   2
BRANCH   1  15
ATOM     14  N   UNL     1       3.681  -3.586  -4.853  0.00  0.00    -0.313 N 
ATOM     15  C   UNL     1       2.847  -4.510  -4.337  0.00  0.00    +0.238 C 
ATOM     16  O   UNL     1       2.522  -4.449  -3.170  0.00  0.00    -0.273 OA
ATOM     17  H   UNL     1       3.942  -3.635  -5.786  0.00  0.00    +0.149 HD
BRANCH  14  18
ATOM     18  C   UNL     1       4.194  -2.507  -4.005  0.00  0.00    +0.104 C 
BRANCH  18  19
ATOM     19  C   UNL     1       5.112  -1.603  -4.830  0.00  0.00    +0.018 C 
BRANCH  19  21
ATOM     20  C   UNL     1       6.566   0.428  -4.770  0.00  0.00    +0.004 C 
ATOM     21  C   UNL     1       5.648  -0.476  -3.945  0.00  0.00    -0.002 C 
ENDBRANCH  19  21
ENDBRANCH  18  19
ENDBRANCH  14  18
ENDBRANCH   1  15
BRANCH   1  22
ATOM     22  N   UNL     1       1.852  -6.723  -4.366  0.00  0.00    -0.272 N 
ATOM     23  C   UNL     1       1.896  -7.989  -4.827  0.00  0.00    +0.283 C 
ATOM     24  O   UNL     1       2.374  -8.221  -5.922  0.00  0.00    -0.267 OA
BRANCH  23  25
ATOM     25  C   UNL     1       1.367  -9.086  -4.010  0.00  0.00    +0.189 A 
ATOM     26  C   UNL     1       1.420 -10.415  -4.320  0.00  0.00    +0.054 A 
ATOM     27  C   UNL     1       0.800 -11.100  -3.264  0.00  0.00    +0.042 A 
ATOM     28  C   UNL     1       0.401 -10.172  -2.366  0.00  0.00    +0.196 A 
ATOM     29  O   UNL     1       0.749  -8.960  -2.817  0.00  0.00    -0.458 OA
ENDBRANCH  23  25
BRANCH  22  30
ATOM     30  C   UNL     1       1.337  -6.451  -3.022  0.00  0.00    +0.183 C 
BRANCH  30  31
ATOM     31  C   UNL     1       2.432  -6.675  -2.010  0.00  0.00    +0.122 A 
ATOM     32  C   UNL     1       2.844  -5.787  -1.087  0.00  0.00    +0.046 A 
ATOM     33  C   UNL     1       3.882  -6.408  -0.356  0.00  0.00    +0.041 A 
ATOM     34  C   UNL     1       4.042  -7.639  -0.875  0.00  0.00    +0.195 A 
ATOM     35  O   UNL     1       3.157  -7.797  -1.872  0.00  0.00    -0.466 OA
ENDBRANCH  30  31
ENDBRANCH  22  30
ENDBRANCH   1  22
TORSDOF 12
