REMARK  Name = ZINC34812018
REMARK  1 active torsions:
REMARK  status: ('A' for Active; 'I' for Inactive)
REMARK    1  A    between atoms: C_16  and  C_18
REMARK                            x       y       z     vdW  Elec       q    Type
REMARK                         _______ _______ _______ _____ _____    ______ ____
ROOT
ATOM      1  C   UNL     1      -0.017   1.376   0.010  0.00  0.00    +0.056 A 
ATOM      2  C   UNL     1       1.187   2.079   0.002  0.00  0.00    +0.060 A 
ATOM      3  C   UNL     1       2.407   1.380  -0.017  0.00  0.00    +0.044 A 
ATOM      4  C   UNL     1       2.411  -0.003  -0.021  0.00  0.00    +0.065 A 
ATOM      5  C   UNL     1       1.210  -0.692  -0.012  0.00  0.00    +0.160 A 
ATOM      6  C   UNL     1       0.002  -0.004   0.002  0.00  0.00    +0.159 A 
ATOM      7  F   UNL     1      -1.161  -0.691   0.009  0.00  0.00    -0.202 F 
ATOM      8  F   UNL     1       1.213  -2.043  -0.018  0.00  0.00    -0.202 F 
ATOM      9  N   UNL     1       3.585   2.120  -0.035  0.00  0.00    -0.323 N 
ATOM     10  C   UNL     1       3.573   3.442  -0.674  0.00  0.00    +0.102 C 
ATOM     11  C   UNL     1       3.578   3.264  -2.195  0.00  0.00    +0.064 C 
ATOM     12  C   UNL     1       4.812   2.457  -2.607  0.00  0.00    +0.111 C 
ATOM     13  N   UNL     1       6.010   3.119  -2.075  0.00  0.00    -0.301 N 
ATOM     14  C   UNL     1       6.071   3.421  -0.638  0.00  0.00    +0.111 C 
ATOM     15  C   UNL     1       4.822   4.218  -0.248  0.00  0.00    +0.064 C 
ATOM     16  C   UNL     1       7.035   3.444  -2.888  0.00  0.00    +0.219 C 
ATOM     17  O   UNL     1       6.973   3.189  -4.072  0.00  0.00    -0.275 OA
ATOM     18  N   UNL     1       2.378   4.186  -0.274  0.00  0.00    -0.290 N 
ATOM     19  C   UNL     1       1.223   3.552   0.014  0.00  0.00    +0.247 C 
ATOM     20  O   UNL     1       0.222   4.189   0.281  0.00  0.00    -0.270 OA
ATOM     21  H   UNL     1       4.396   1.770   0.366  0.00  0.00    +0.148 HD
ATOM     22  H   UNL     1       2.418   5.153  -0.214  0.00  0.00    +0.151 HD
ENDROOT
BRANCH  16  23
ATOM     23  C   UNL     1       8.257   4.123  -2.326  0.00  0.00    +0.075 C 
ATOM     24  C   UNL     1       8.998   3.181  -1.346  0.00  0.00    +0.013 C 
ATOM     25  C   UNL     1      10.443   3.741  -1.360  0.00  0.00    +0.001 C 
ATOM     26  C   UNL     1      10.676   4.149  -2.829  0.00  0.00    +0.001 C 
ATOM     27  C   UNL     1       9.286   4.392  -3.444  0.00  0.00    +0.013 C 
ENDBRANCH  16  23
TORSDOF 1
