REMARK  Name = ZINC39795002
REMARK  2 active torsions:
REMARK  status: ('A' for Active; 'I' for Inactive)
REMARK    1  A    between atoms: C_6  and  C_7
REMARK    2  A    between atoms: C_10  and  C_12
REMARK                            x       y       z     vdW  Elec       q    Type
REMARK                         _______ _______ _______ _____ _____    ______ ____
ROOT
ATOM      1  C   UNL     1      -4.909  -1.042   0.039  0.00  0.00    +0.128 C 
ATOM      2  C   UNL     1      -5.304  -0.299   1.281  0.00  0.00    +0.070 A 
ATOM      3  C   UNL     1      -5.620   1.026   1.234  0.00  0.00    +0.113 A 
ATOM      4  N   UNL     1      -5.972   1.681   2.389  0.00  0.00    -0.295 N 
ATOM      5  C   UNL     1      -6.009   1.020   3.561  0.00  0.00    +0.328 A 
ATOM      6  O   UNL     1      -6.322   1.614   4.574  0.00  0.00    -0.247 OA
ATOM      7  N   UNL     1      -5.705  -0.289   3.627  0.00  0.00    -0.275 N 
ATOM      8  C   UNL     1      -5.353  -0.968   2.517  0.00  0.00    +0.260 A 
ATOM      9  O   UNL     1      -5.080  -2.154   2.584  0.00  0.00    -0.267 OA
ATOM     10  N   UNL     1      -5.588   1.700   0.039  0.00  0.00    -0.303 N 
ATOM     11  C   UNL     1      -5.634   1.020  -1.149  0.00  0.00    +0.017 C 
ATOM     12  C   UNL     1      -5.325  -0.291  -1.201  0.00  0.00    +0.027 C 
ATOM     13  C   UNL     1      -5.383  -1.000  -2.414  0.00  0.00    +0.162 C 
ATOM     14  O   UNL     1      -5.093  -2.179  -2.430  0.00  0.00    -0.292 OA
ATOM     15  C   UNL     1      -5.797  -0.325  -3.693  0.00  0.00    +0.080 C 
ATOM     16  C   UNL     1      -6.743   0.835  -3.361  0.00  0.00    +0.014 C 
ATOM     17  C   UNL     1      -6.032   1.776  -2.393  0.00  0.00    +0.051 C 
ATOM     18  H   UNL     1      -5.739  -0.748   4.481  0.00  0.00    +0.173 HD
ATOM     19  H   UNL     1      -5.533   2.668   0.035  0.00  0.00    +0.153 HD
ATOM     20  H   UNL     1      -6.196   2.624   2.360  0.00  0.00    +0.172 HD
ENDROOT
BRANCH   1  24
ATOM     21  C   UNL     1      -1.266  -0.763   0.011  0.00  0.00    +0.135 A 
ATOM     22  C   UNL     1      -1.385  -2.118   0.010  0.00  0.00    +0.050 A 
ATOM     23  C   UNL     1      -2.765  -2.404   0.021  0.00  0.00    +0.046 A 
ATOM     24  C   UNL     1      -3.413  -1.223   0.027  0.00  0.00    +0.118 A 
ATOM     25  O   UNL     1      -2.504  -0.234   0.026  0.00  0.00    -0.459 OA
BRANCH  21  31
ATOM     26  C   UNL     1      -0.017   1.392   0.010  0.00  0.00    +0.012 A 
ATOM     27  C   UNL     1       1.170   2.095   0.002  0.00  0.00    +0.016 A 
ATOM     28  C   UNL     1       2.378   1.419  -0.013  0.00  0.00    +0.018 A 
ATOM     29  C   UNL     1       2.404   0.035  -0.021  0.00  0.00    +0.016 A 
ATOM     30  C   UNL     1       1.224  -0.680  -0.013  0.00  0.00    +0.012 A 
ATOM     31  C   UNL     1       0.002  -0.004   0.002  0.00  0.00    +0.017 A 
ATOM     32 BR   UNL     1       4.000   2.390  -0.025  0.00  0.00    -0.050 Br
ENDBRANCH  21  31
ENDBRANCH   1  24
TORSDOF 2
