REMARK  Name = ZINC35700969
REMARK  16 active torsions:
REMARK  status: ('A' for Active; 'I' for Inactive)
REMARK    1  A    between atoms: C_1  and  C_2
REMARK    2  A    between atoms: C_3  and  C_30
REMARK    3  A    between atoms: C_4  and  C_20
REMARK    4  A    between atoms: C_7  and  C_12
REMARK    5  A    between atoms: C_13  and  N_15
REMARK    6  A    between atoms: N_15  and  C_16
REMARK    7  A    between atoms: C_16  and  C_17
REMARK    8  A    between atoms: C_22  and  O_28
REMARK    9  A    between atoms: C_24  and  O_26
REMARK   10  A    between atoms: O_26  and  C_27
REMARK   11  A    between atoms: O_28  and  C_29
REMARK   12  A    between atoms: C_30  and  O_32
REMARK   13  A    between atoms: O_32  and  C_33
REMARK   14  A    between atoms: C_33  and  C_34
REMARK   15  A    between atoms: C_34  and  O_35
REMARK   16  A    between atoms: O_35  and  C_36
REMARK                            x       y       z     vdW  Elec       q    Type
REMARK                         _______ _______ _______ _____ _____    ______ ____
ROOT
ATOM      1  C   UNL     1       0.811   1.144   0.399  0.00  0.00    +0.066 C 
ATOM      2  C   UNL     1       0.485  -0.313   0.197  0.00  0.00    +0.053 C 
ATOM      3  C   UNL     1      -0.824  -0.745   0.304  0.00  0.00    +0.082 C 
ATOM      4  C   UNL     1      -1.100  -2.216   0.092  0.00  0.00    +0.150 C 
ATOM      5  N   UNL     1       0.066  -3.087  -0.217  0.00  0.00    -0.267 N 
ATOM      6  C   UNL     1       0.049  -4.448  -0.447  0.00  0.00    +0.048 C 
ATOM      7  C   UNL     1       1.227  -5.053  -0.712  0.00  0.00    +0.072 C 
ATOM      8  S   UNL     1       2.369  -3.687  -0.637  0.00  0.00    -0.060 S 
ATOM      9  C   UNL     1       1.280  -2.462  -0.278  0.00  0.00    +0.166 C 
ATOM     10  N   UNL     1       1.452  -1.170  -0.087  0.00  0.00    -0.230 NA
ENDROOT
BRANCH   4  11
ATOM     11  C   UNL     1      -1.759  -2.749   1.338  0.00  0.00    -0.015 A 
ATOM     12  C   UNL     1      -1.032  -2.861   2.508  0.00  0.00    +0.051 A 
ATOM     13  C   UNL     1      -1.636  -3.351   3.657  0.00  0.00    +0.124 A 
ATOM     14  C   UNL     1      -2.969  -3.729   3.631  0.00  0.00    +0.091 A 
ATOM     15  C   UNL     1      -3.696  -3.615   2.456  0.00  0.00    +0.124 A 
ATOM     16  C   UNL     1      -3.090  -3.119   1.311  0.00  0.00    +0.051 A 
BRANCH  15  17
ATOM     17  O   UNL     1      -5.004  -3.985   2.427  0.00  0.00    -0.495 OA
ATOM     18  C   UNL     1      -5.565  -4.482   3.644  0.00  0.00    +0.277 C 
ENDBRANCH  15  17
BRANCH  13  19
ATOM     19  O   UNL     1      -0.920  -3.461   4.808  0.00  0.00    -0.495 OA
ATOM     20  C   UNL     1      -1.606  -3.974   5.952  0.00  0.00    +0.277 C 
ENDBRANCH  13  19
ENDBRANCH   4  11
BRANCH   6  21
ATOM     21  C   UNL     1      -1.206  -5.212  -0.403  0.00  0.00    +0.091 C 
ATOM     22  C   UNL     1      -1.180  -6.556  -0.483  0.00  0.00    +0.239 C 
ATOM     23  O   UNL     1       0.005  -7.213  -0.467  0.00  0.00    -0.271 OA
BRANCH  22  24
ATOM     24  N   UNL     1      -2.364  -7.267  -0.582  0.00  0.00    -0.312 N 
ATOM     25  H   UNL     1      -3.214  -6.804  -0.520  0.00  0.00    +0.149 HD
BRANCH  24  26
ATOM     26  C   UNL     1      -2.333  -8.718  -0.780  0.00  0.00    +0.108 C 
BRANCH  26  27
ATOM     27  C   UNL     1      -3.758  -9.237  -0.980  0.00  0.00    +0.006 C 
ATOM     28  C   UNL     1      -4.312 -10.204   0.068  0.00  0.00    +0.005 C 
ATOM     29  C   UNL     1      -3.929 -10.718  -1.321  0.00  0.00    +0.005 C 
ENDBRANCH  26  27
ENDBRANCH  24  26
ENDBRANCH  22  24
ENDBRANCH   6  21
BRANCH   3  30
ATOM     30  C   UNL     1      -1.859   0.151   0.599  0.00  0.00    +0.339 C 
ATOM     31  O   UNL     1      -1.613   1.333   0.766  0.00  0.00    -0.245 OA
BRANCH  30  32
ATOM     32  O   UNL     1      -3.131  -0.296   0.699  0.00  0.00    -0.459 OA
BRANCH  32  33
ATOM     33  C   UNL     1      -4.136   0.673   1.002  0.00  0.00    +0.260 C 
BRANCH  33  34
ATOM     34  C   UNL     1      -5.501  -0.014   1.074  0.00  0.00    +0.200 C 
BRANCH  34  35
ATOM     35  O   UNL     1      -5.516  -0.931   2.170  0.00  0.00    -0.380 OA
ATOM     36  C   UNL     1      -6.753  -1.630   2.326  0.00  0.00    +0.194 C 
ENDBRANCH  34  35
ENDBRANCH  33  34
ENDBRANCH  32  33
ENDBRANCH  30  32
ENDBRANCH   3  30
TORSDOF 12
