REMARK  Name = ZINC36346113
REMARK  20 active torsions:
REMARK  status: ('A' for Active; 'I' for Inactive)
REMARK    1  A    between atoms: C_1  and  C_2
REMARK    2  A    between atoms: C_2  and  C_3
REMARK    3  A    between atoms: C_3  and  C_4
REMARK    4  A    between atoms: C_4  and  O_5
REMARK    5  A    between atoms: O_5  and  C_6
REMARK    6  A    between atoms: C_6  and  C_7
REMARK    7  A    between atoms: C_7  and  C_9
REMARK    8  A    between atoms: C_7  and  O_36
REMARK    9  A    between atoms: C_9  and  N_10
REMARK   10  A    between atoms: N_10  and  C_11
REMARK   11  A    between atoms: N_10  and  C_32
REMARK   12  A    between atoms: C_11  and  C_12
REMARK   13  A    between atoms: C_13  and  C_31
REMARK   14  A    between atoms: N_15  and  C_25
REMARK   15  A    between atoms: C_16  and  O_17
REMARK   16  A    between atoms: O_17  and  C_18
REMARK   17  A    between atoms: C_22  and  C_24
REMARK   18  A    between atoms: C_32  and  C_33
REMARK   19  A    between atoms: C_33  and  C_34
REMARK   20  A    between atoms: C_33  and  C_35
REMARK                            x       y       z     vdW  Elec       q    Type
REMARK                         _______ _______ _______ _____ _____    ______ ____
ROOT
ATOM      1  C   UNL     1       4.829  -7.935  -6.751  0.00  0.00    +0.021 A 
ATOM      2  C   UNL     1       4.493  -7.761  -8.097  0.00  0.00    +0.065 A 
ATOM      3  N   UNL     1       5.592  -7.542  -8.773  0.00  0.00    -0.168 NA
ATOM      4  N   UNL     1       6.672  -7.568  -7.882  0.00  0.00    -0.200 N 
ATOM      5  C   UNL     1       6.178  -7.807  -6.638  0.00  0.00    +0.225 A 
ATOM      6  C   UNL     1       3.101  -7.817  -8.672  0.00  0.00    +0.068 C 
ENDROOT
BRANCH   4   7
ATOM      7  C   UNL     1       8.021  -7.377  -8.213  0.00  0.00    +0.069 A 
ATOM      8  C   UNL     1       8.844  -6.634  -7.377  0.00  0.00    +0.028 A 
ATOM      9  C   UNL     1      10.172  -6.448  -7.706  0.00  0.00    +0.002 A 
ATOM     10  C   UNL     1      10.683  -7.000  -8.866  0.00  0.00    +0.000 A 
ATOM     11  C   UNL     1       9.866  -7.740  -9.701  0.00  0.00    +0.002 A 
ATOM     12  C   UNL     1       8.538  -7.935  -9.374  0.00  0.00    +0.028 A 
ENDBRANCH   4   7
BRANCH   1  13
ATOM     13  C   UNL     1       3.866  -8.208  -5.624  0.00  0.00    -0.036 C 
BRANCH  13  14
ATOM     14  N   UNL     1       3.408  -6.935  -5.052  0.00  0.00    +0.384 N 
ATOM     15  H   UNL     1       4.206  -6.384  -4.774  0.00  0.00    -0.081 HD
BRANCH  14  16
ATOM     16  C   UNL     1       2.564  -7.201  -3.880  0.00  0.00    -0.044 C 
BRANCH  16  17
ATOM     17  C   UNL     1       3.409  -7.848  -2.780  0.00  0.00    +0.124 C 
BRANCH  17  18
ATOM     18  O   UNL     1       4.466  -6.962  -2.408  0.00  0.00    -0.391 OA
ATOM     19  H   UNL     1       4.164  -6.139  -2.000  0.00  0.00    +0.210 HD
ENDBRANCH  17  18
BRANCH  17  20
ATOM     20  C   UNL     1       2.528  -8.132  -1.561  0.00  0.00    +0.189 C 
BRANCH  20  21
ATOM     21  O   UNL     1       3.288  -8.840  -0.580  0.00  0.00    -0.377 OA
BRANCH  21  22
ATOM     22  C   UNL     1       2.555  -9.156   0.606  0.00  0.00    +0.160 C 
BRANCH  22  23
ATOM     23  C   UNL     1       3.462  -9.910   1.581  0.00  0.00    +0.028 C 
BRANCH  23  25
ATOM     24  C   UNL     1       3.584 -11.002   3.825  0.00  0.00    +0.004 C 
ATOM     25  C   UNL     1       2.677 -10.248   2.850  0.00  0.00    -0.001 C 
ENDBRANCH  23  25
ENDBRANCH  22  23
ENDBRANCH  21  22
ENDBRANCH  20  21
ENDBRANCH  17  20
ENDBRANCH  16  17
ENDBRANCH  14  16
BRANCH  14  26
ATOM     26  C   UNL     1       2.630  -6.199  -6.058  0.00  0.00    -0.075 C 
BRANCH  26  27
ATOM     27  C   UNL     1       2.267  -4.817  -5.510  0.00  0.00    -0.034 C 
ATOM     28  C   UNL     1       3.543  -4.000  -5.300  0.00  0.00    +0.005 C 
ATOM     29  C   UNL     1       1.358  -4.096  -6.507  0.00  0.00    +0.005 C 
ENDBRANCH  26  27
ENDBRANCH  14  26
ENDBRANCH  13  14
ENDBRANCH   1  13
BRANCH   5  30
ATOM     30  O   UNL     1       6.901  -7.904  -5.492  0.00  0.00    -0.438 OA
BRANCH  30  31
ATOM     31  C   UNL     1       7.424  -9.115  -5.168  0.00  0.00    +0.131 A 
ATOM     32  C   UNL     1       7.312 -10.180  -6.052  0.00  0.00    +0.046 A 
ATOM     33  C   UNL     1       7.845 -11.410  -5.720  0.00  0.00    +0.004 A 
ATOM     34  C   UNL     1       8.490 -11.581  -4.509  0.00  0.00    +0.003 A 
ATOM     35  C   UNL     1       8.604 -10.522  -3.627  0.00  0.00    -0.047 A 
ATOM     36  C   UNL     1       8.077  -9.288  -3.957  0.00  0.00    +0.049 A 
ATOM     37  C   UNL     1       9.307 -10.713  -2.308  0.00  0.00    +0.044 C 
ENDBRANCH  30  31
ENDBRANCH   5  30
TORSDOF 15
