REMARK  Name = ZINC13234380
REMARK  10 active torsions:
REMARK  status: ('A' for Active; 'I' for Inactive)
REMARK    1  A    between atoms: C_1  and  C_2
REMARK    2  A    between atoms: C_3  and  C_32
REMARK    3  A    between atoms: C_4  and  C_31
REMARK    4  A    between atoms: C_9  and  S_11
REMARK    5  A    between atoms: S_11  and  C_12
REMARK    6  A    between atoms: C_12  and  C_13
REMARK    7  A    between atoms: N_15  and  C_16
REMARK    8  A    between atoms: N_15  and  C_23
REMARK    9  A    between atoms: C_16  and  C_17
REMARK   10  A    between atoms: C_32  and  C_33
REMARK                            x       y       z     vdW  Elec       q    Type
REMARK                         _______ _______ _______ _____ _____    ______ ____
ROOT
ATOM      1  C   UNL     1      -1.399   1.306   2.193  0.00  0.00    +0.173 C 
ENDROOT
BRANCH   1   2
ATOM      2  C   UNL     1      -0.838   2.289   1.198  0.00  0.00    +0.226 C 
ATOM      3  O   UNL     1      -0.282   1.889   0.198  0.00  0.00    -0.275 OA
ATOM      4  N   UNL     1      -0.954   3.614   1.421  0.00  0.00    -0.294 N 
BRANCH   4   5
ATOM      5  C   UNL     1      -0.515   4.569   0.401  0.00  0.00    +0.099 C 
ATOM      6  C   UNL     1      -1.266   4.306  -0.914  0.00  0.00    +0.046 C 
ATOM      7  C   UNL     1      -0.592   5.083  -2.071  0.00  0.00    +0.168 C 
ATOM      8  S   UNL     1       1.157   5.197  -1.515  0.00  0.00    -0.029 S 
ATOM      9  O   UNL     1       1.495   6.565  -1.331  0.00  0.00    -0.174 OA
ATOM     10  O   UNL     1       1.964   4.385  -2.357  0.00  0.00    -0.174 OA
ATOM     11  C   UNL     1       1.007   4.389   0.134  0.00  0.00    +0.188 C 
ENDBRANCH   4   5
BRANCH   4  12
ATOM     12  C   UNL     1      -1.520   4.098   2.683  0.00  0.00    +0.139 C 
BRANCH  12  13
ATOM     13  C   UNL     1      -0.398   4.283   3.707  0.00  0.00    +0.136 C 
ATOM     14  C   UNL     1      -0.979   4.762   5.061  0.00  0.00    +0.035 C 
ATOM     15  C   UNL     1       0.119   4.267   6.043  0.00  0.00    +0.031 C 
ATOM     16  C   UNL     1       0.592   2.958   5.375  0.00  0.00    +0.160 C 
ATOM     17  O   UNL     1       0.232   3.024   3.990  0.00  0.00    -0.375 OA
ENDBRANCH  12  13
ENDBRANCH   4  12
ENDBRANCH   1   2
BRANCH   1  18
ATOM     18  S   UNL     1      -1.231  -0.378   1.540  0.00  0.00    -0.075 S 
BRANCH  18  27
ATOM     19  C   UNL     1      -4.448  -3.286   7.736  0.00  0.00    +0.066 C 
ATOM     20  C   UNL     1      -3.793  -3.225   6.380  0.00  0.00    +0.047 A 
ATOM     21  C   UNL     1      -3.554  -4.406   5.668  0.00  0.00    +0.006 A 
ATOM     22  C   UNL     1      -2.964  -4.337   4.447  0.00  0.00    +0.049 A 
ATOM     23  N   UNL     1      -2.621  -3.120   3.948  0.00  0.00    -0.200 N 
ATOM     24  C   UNL     1      -2.868  -1.986   4.669  0.00  0.00    +0.254 A 
ATOM     25  N   UNL     1      -3.450  -2.063   5.871  0.00  0.00    -0.216 NA
ATOM     26  N   UNL     1      -2.430  -0.957   3.951  0.00  0.00    -0.183 NA
ATOM     27  C   UNL     1      -1.923  -1.395   2.801  0.00  0.00    +0.211 A 
ATOM     28  N   UNL     1      -2.013  -2.710   2.754  0.00  0.00    -0.137 NA
ATOM     29  C   UNL     1      -2.693  -5.591   3.656  0.00  0.00    +0.066 C 
BRANCH  21  30
ATOM     30  C   UNL     1      -3.947  -5.740   6.250  0.00  0.00    +0.163 C 
BRANCH  30  31
ATOM     31  C   UNL     1      -5.356  -6.075   5.833  0.00  0.00    +0.360 C 
ATOM     32  O   UNL     1      -5.977  -5.309   5.135  0.00  0.00    -0.246 OA
ATOM     33  O   UNL     1      -5.920  -7.223   6.237  0.00  0.00    -0.246 OA
ENDBRANCH  30  31
ENDBRANCH  21  30
ENDBRANCH  18  27
ENDBRANCH   1  18
TORSDOF 8
