REMARK  Name = ZINC63182482
REMARK  5 active torsions:
REMARK  status: ('A' for Active; 'I' for Inactive)
REMARK    1  A    between atoms: C_11  and  C_13
REMARK    2  A    between atoms: C_13  and  S_14
REMARK    3  A    between atoms: S_14  and  C_15
REMARK    4  A    between atoms: C_18  and  C_23
REMARK    5  A    between atoms: N_19  and  C_20
REMARK                            x       y       z     vdW  Elec       q    Type
REMARK                         _______ _______ _______ _____ _____    ______ ____
ROOT
ATOM      1  C   UNL     1       7.823  -2.264  -0.338  0.00  0.00    +0.193 A 
ATOM      2  N   UNL     1       7.913  -3.583  -0.251  0.00  0.00    -0.122 NA
ATOM      3  N   UNL     1       9.120  -3.926   0.029  0.00  0.00    -0.129 NA
ATOM      4  C   UNL     1       9.879  -2.845   0.137  0.00  0.00    +0.163 A 
ATOM      5  N   UNL     1       9.062  -1.753  -0.101  0.00  0.00    -0.299 N 
ENDROOT
BRANCH   4   6
ATOM      6  C   UNL     1      11.250  -2.813   0.434  0.00  0.00    +0.025 C 
ATOM      7  C   UNL     1      12.088  -3.903   0.666  0.00  0.00    +0.006 A 
ATOM      8  C   UNL     1      11.859  -5.296   0.680  0.00  0.00    +0.010 A 
ATOM      9  C   UNL     1      12.886  -6.145   0.942  0.00  0.00    +0.001 A 
ATOM     10  C   UNL     1      14.175  -5.675   1.200  0.00  0.00    +0.002 A 
ATOM     11  C   UNL     1      14.467  -4.351   1.204  0.00  0.00    +0.026 A 
ATOM     12  C   UNL     1      13.446  -3.403   0.938  0.00  0.00    +0.043 A 
ATOM     13  N   UNL     1      13.472  -2.086   0.882  0.00  0.00    -0.380 N 
ATOM     14  C   UNL     1      12.130  -1.589   0.561  0.00  0.00    +0.152 C 
ATOM     15  H   UNL     1      14.255  -1.533   1.027  0.00  0.00    +0.160 HD
ENDBRANCH   4   6
BRANCH   5  16
ATOM     16  C   UNL     1       9.450  -0.341  -0.097  0.00  0.00    +0.091 C 
ATOM     17  C   UNL     1       8.332   0.699   0.007  0.00  0.00    +0.027 C 
ATOM     18  C   UNL     1       9.071   0.500  -1.318  0.00  0.00    +0.027 C 
ENDBRANCH   5  16
BRANCH   1  19
ATOM     19  S   UNL     1       6.367  -1.341  -0.702  0.00  0.00    -0.078 S 
BRANCH  19  20
ATOM     20  C   UNL     1       5.083  -2.607  -0.905  0.00  0.00    +0.151 C 
BRANCH  20  31
ATOM     21  C   UNL     1       0.203   1.320  -2.173  0.00  0.00    +0.001 A 
ATOM     22  C   UNL     1       1.367   2.048  -1.963  0.00  0.00    +0.002 A 
ATOM     23  C   UNL     1       2.554   1.413  -1.673  0.00  0.00    +0.028 A 
ATOM     24  C   UNL     1       2.589   0.019  -1.587  0.00  0.00    +0.078 A 
ATOM     25  C   UNL     1       1.403  -0.718  -1.800  0.00  0.00    +0.065 A 
ATOM     26  C   UNL     1       0.213  -0.056  -2.093  0.00  0.00    +0.015 A 
ATOM     27  C   UNL     1       1.475  -2.183  -1.702  0.00  0.00    +0.259 A 
ATOM     28  O   UNL     1       0.489  -2.877  -1.875  0.00  0.00    -0.267 OA
ATOM     29  N   UNL     1       2.678  -2.731  -1.413  0.00  0.00    -0.310 N 
ATOM     30  H   UNL     1       2.763  -3.694  -1.341  0.00  0.00    +0.170 HD
ATOM     31  C   UNL     1       3.769  -1.943  -1.224  0.00  0.00    +0.121 A 
ATOM     32  N   UNL     1       3.736  -0.647  -1.303  0.00  0.00    -0.233 NA
ENDBRANCH  20  31
ENDBRANCH  19  20
ENDBRANCH   1  19
TORSDOF 5
