REMARK  Name = ZINC08791421
REMARK  6 active torsions:
REMARK  status: ('A' for Active; 'I' for Inactive)
REMARK    1  A    between atoms: C_1  and  C_2
REMARK    2  A    between atoms: C_2  and  C_3
REMARK    3  A    between atoms: C_3  and  C_4
REMARK    4  A    between atoms: C_4  and  N_5
REMARK    5  A    between atoms: C_10  and  C_27
REMARK    6  A    between atoms: C_27  and  C_28
REMARK                            x       y       z     vdW  Elec       q    Type
REMARK                         _______ _______ _______ _____ _____    ______ ____
ROOT
ATOM      1  N   UNL     1       3.924  -5.652   3.470  0.00  0.00    -0.242 N 
ATOM      2  C   UNL     1       4.217  -4.649   2.635  0.00  0.00    +0.224 C 
ATOM      3  O   UNL     1       5.057  -3.798   2.830  0.00  0.00    -0.275 OA
ATOM      4  C   UNL     1       3.336  -4.743   1.410  0.00  0.00    +0.073 C 
ATOM      5  C   UNL     1       2.351  -3.554   1.398  0.00  0.00    -0.053 C 
ATOM      6  C   UNL     1       1.030  -5.428   1.848  0.00  0.00    +0.050 C 
ATOM      7  C   UNL     1       2.449  -5.990   1.699  0.00  0.00    +0.088 C 
ATOM      8  C   UNL     1       2.949  -6.467   3.044  0.00  0.00    +0.225 C 
ATOM      9  O   UNL     1       2.532  -7.436   3.642  0.00  0.00    -0.275 OA
ATOM     10  C   UNL     1       0.248  -6.178   2.889  0.00  0.00    -0.026 A 
ATOM     11  C   UNL     1       0.439  -6.411   4.233  0.00  0.00    +0.024 A 
ATOM     12  C   UNL     1      -0.483  -7.160   4.944  0.00  0.00    +0.041 A 
ATOM     13  C   UNL     1      -1.596  -7.673   4.301  0.00  0.00    +0.022 A 
ATOM     14  C   UNL     1      -1.790  -7.442   2.955  0.00  0.00    +0.025 A 
ATOM     15  C   UNL     1      -0.868  -6.689   2.232  0.00  0.00    +0.036 A 
ATOM     16  N   UNL     1      -0.843  -6.324   0.884  0.00  0.00    -0.286 N 
ATOM     17  C   UNL     1       0.239  -5.583   0.578  0.00  0.00    +0.211 C 
ATOM     18  O   UNL     1       0.522  -5.129  -0.511  0.00  0.00    -0.277 OA
ATOM     19 CL   UNL     1      -0.244  -7.454   6.638  0.00  0.00    -0.084 Cl
ATOM     20  H   UNL     1      -1.527  -6.573   0.243  0.00  0.00    +0.155 HD
ATOM     21  N   UNL     1       1.212  -4.028   2.188  0.00  0.00    +0.394 N 
ATOM     22  H   UNL     1       0.369  -3.492   1.950  0.00  0.00    -0.083 HD
ATOM     23  H   UNL     1       1.409  -3.928   3.191  0.00  0.00    -0.083 HD
ENDROOT
BRANCH   1  24
ATOM     24  C   UNL     1       4.612  -5.843   4.750  0.00  0.00    +0.116 C 
BRANCH  24  25
ATOM     25  C   UNL     1       3.867  -5.081   5.848  0.00  0.00    +0.019 C 
BRANCH  25  27
ATOM     26  C   UNL     1       3.840  -4.517   8.282  0.00  0.00    +0.004 C 
ATOM     27  C   UNL     1       4.584  -5.280   7.184  0.00  0.00    -0.002 C 
ENDBRANCH  25  27
ENDBRANCH  24  25
ENDBRANCH   1  24
BRANCH   5  28
ATOM     28  C   UNL     1       1.909  -3.244  -0.033  0.00  0.00    +0.022 C 
BRANCH  28  29
ATOM     29  C   UNL     1       2.823  -2.205  -0.628  0.00  0.00    -0.024 A 
ATOM     30  C   UNL     1       2.615  -0.879  -0.655  0.00  0.00    +0.087 A 
ATOM     31  N   UNL     1       3.662  -0.254  -1.276  0.00  0.00    -0.360 N 
ATOM     32  H   UNL     1       3.736   0.703  -1.415  0.00  0.00    +0.165 HD
ATOM     33  C   UNL     1       4.594  -1.186  -1.674  0.00  0.00    +0.047 A 
ATOM     34  C   UNL     1       4.109  -2.449  -1.285  0.00  0.00    +0.003 A 
ATOM     35  C   UNL     1       4.855  -3.596  -1.562  0.00  0.00    +0.010 A 
ATOM     36  C   UNL     1       6.053  -3.487  -2.210  0.00  0.00    +0.001 A 
ATOM     37  C   UNL     1       6.535  -2.244  -2.595  0.00  0.00    +0.002 A 
ATOM     38  C   UNL     1       5.816  -1.098  -2.332  0.00  0.00    +0.026 A 
ENDBRANCH  28  29
ENDBRANCH   5  28
TORSDOF 5
