REMARK  Name = ZINC19685790
REMARK  20 active torsions:
REMARK  status: ('A' for Active; 'I' for Inactive)
REMARK    1  A    between atoms: C_1  and  C_2
REMARK    2  A    between atoms: C_3  and  C_43
REMARK    3  A    between atoms: C_4  and  C_34
REMARK    4  A    between atoms: C_6  and  C_10
REMARK    5  A    between atoms: C_7  and  C_9
REMARK    6  A    between atoms: C_10  and  O_12
REMARK    7  A    between atoms: O_12  and  C_13
REMARK    8  A    between atoms: C_13  and  C_14
REMARK    9  A    between atoms: C_13  and  C_15
REMARK   10  A    between atoms: C_13  and  C_16
REMARK   11  A    between atoms: C_16  and  N_17
REMARK   12  A    between atoms: N_17  and  C_18
REMARK   13  A    between atoms: N_17  and  C_19
REMARK   14  A    between atoms: C_19  and  C_20
REMARK   15  A    between atoms: C_20  and  C_21
REMARK   16  A    between atoms: C_21  and  C_22
REMARK   17  A    between atoms: C_21  and  C_28
REMARK   18  A    between atoms: C_38  and  N_40
REMARK   19  A    between atoms: C_43  and  O_45
REMARK   20  A    between atoms: O_45  and  C_46
REMARK                            x       y       z     vdW  Elec       q    Type
REMARK                         _______ _______ _______ _____ _____    ______ ____
ROOT
ATOM      1  C   UNL     1       3.938   1.771   7.512  0.00  0.00    +0.338 C 
ATOM      2  O   UNL     1       4.416   1.022   8.344  0.00  0.00    -0.245 OA
ENDROOT
BRANCH   1   7
ATOM      3  C   UNL     1       3.994   7.433   7.460  0.00  0.00    +0.061 C 
ATOM      4  C   UNL     1       4.058   5.941   7.666  0.00  0.00    +0.016 C 
ATOM      5  C   UNL     1       3.151   5.341   8.456  0.00  0.00    +0.065 C 
ATOM      6  C   UNL     1       3.182   3.859   8.698  0.00  0.00    +0.096 C 
ATOM      7  C   UNL     1       4.044   3.171   7.678  0.00  0.00    +0.065 C 
ATOM      8  C   UNL     1       4.919   3.858   6.922  0.00  0.00    +0.016 C 
ATOM      9  N   UNL     1       5.038   5.215   7.047  0.00  0.00    -0.321 N 
ATOM     10  C   UNL     1       5.774   3.124   5.921  0.00  0.00    +0.061 C 
ATOM     11  H   UNL     1       5.929   5.722   6.647  0.00  0.00    +0.152 HD
BRANCH   6  12
ATOM     12  C   UNL     1       3.733   3.591  10.075  0.00  0.00    -0.033 A 
ATOM     13  C   UNL     1       5.018   3.990  10.394  0.00  0.00    +0.005 A 
ATOM     14  C   UNL     1       5.523   3.745  11.657  0.00  0.00    +0.003 A 
ATOM     15  C   UNL     1       4.744   3.102  12.601  0.00  0.00    +0.033 A 
ATOM     16  C   UNL     1       3.460   2.702  12.281  0.00  0.00    +0.126 A 
ATOM     17  C   UNL     1       2.953   2.952  11.019  0.00  0.00    +0.037 A 
BRANCH  16  18
ATOM     18  N   UNL     1       2.626   2.013  13.291  0.00  0.00    +0.056 N 
ATOM     19  O   UNL     1       3.072   1.797  14.404  0.00  0.00    -0.126 OA
ATOM     20  O   UNL     1       1.495   1.661  13.009  0.00  0.00    -0.126 OA
ENDBRANCH  16  18
ENDBRANCH   6  12
BRANCH   5  21
ATOM     21  C   UNL     1       2.147   6.122   9.074  0.00  0.00    +0.337 C 
ATOM     22  O   UNL     1       2.045   7.305   8.806  0.00  0.00    -0.245 OA
BRANCH  21  23
ATOM     23  O   UNL     1       1.301   5.556   9.959  0.00  0.00    -0.465 OA
ATOM     24  C   UNL     1       0.310   6.404  10.544  0.00  0.00    +0.280 C 
ENDBRANCH  21  23
ENDBRANCH   5  21
ENDBRANCH   1   7
BRANCH   1  25
ATOM     25  O   UNL     1       3.306   1.265   6.433  0.00  0.00    -0.457 OA
BRANCH  25  26
ATOM     26  C   UNL     1       3.235  -0.159   6.330  0.00  0.00    +0.094 C 
ATOM     27  C   UNL     1       2.491  -0.721   7.543  0.00  0.00    +0.053 C 
ATOM     28  C   UNL     1       4.651  -0.737   6.286  0.00  0.00    +0.053 C 
BRANCH  26  29
ATOM     29  C   UNL     1       2.488  -0.541   5.051  0.00  0.00    -0.031 C 
BRANCH  29  30
ATOM     30  N   UNL     1       1.084  -0.122   5.160  0.00  0.00    +0.380 N 
ATOM     31  C   UNL     1       0.963   1.339   5.066  0.00  0.00    -0.096 C 
ATOM     32  H   UNL     1       0.716  -0.429   6.149  0.00  0.00    -0.082 HD
BRANCH  30  33
ATOM     33  C   UNL     1       0.256  -0.786   4.144  0.00  0.00    -0.078 C 
BRANCH  33  34
ATOM     34  C   UNL     1      -1.222  -0.524   4.440  0.00  0.00    -0.006 C 
BRANCH  34  35
ATOM     35  C   UNL     1      -2.084  -1.215   3.382  0.00  0.00    +0.047 C 
BRANCH  35  36
ATOM     36  C   UNL     1      -1.914  -2.709   3.492  0.00  0.00    -0.040 A 
ATOM     37  C   UNL     1      -1.579  -3.451   2.375  0.00  0.00    +0.004 A 
ATOM     38  C   UNL     1      -1.423  -4.820   2.476  0.00  0.00    +0.000 A 
ATOM     39  C   UNL     1      -1.601  -5.448   3.695  0.00  0.00    +0.000 A 
ATOM     40  C   UNL     1      -1.935  -4.706   4.812  0.00  0.00    +0.000 A 
ATOM     41  C   UNL     1      -2.091  -3.336   4.711  0.00  0.00    +0.004 A 
ENDBRANCH  35  36
BRANCH  35  42
ATOM     42  C   UNL     1      -3.531  -0.857   3.601  0.00  0.00    -0.040 A 
ATOM     43  C   UNL     1      -4.105  -1.032   4.847  0.00  0.00    +0.004 A 
ATOM     44  C   UNL     1      -5.432  -0.698   5.049  0.00  0.00    +0.000 A 
ATOM     45  C   UNL     1      -6.187  -0.201   4.003  0.00  0.00    +0.000 A 
ATOM     46  C   UNL     1      -5.614  -0.032   2.757  0.00  0.00    +0.000 A 
ATOM     47  C   UNL     1      -4.286  -0.360   2.556  0.00  0.00    +0.004 A 
ENDBRANCH  35  42
ENDBRANCH  34  35
ENDBRANCH  33  34
ENDBRANCH  30  33
ENDBRANCH  29  30
ENDBRANCH  26  29
ENDBRANCH  25  26
ENDBRANCH   1  25
TORSDOF 14
