REMARK  Name = ZINC17044361
REMARK  11 active torsions:
REMARK  status: ('A' for Active; 'I' for Inactive)
REMARK    1  A    between atoms: C_1  and  C_2
REMARK    2  A    between atoms: C_2  and  C_5
REMARK    3  A    between atoms: N_3  and  O_4
REMARK    4  A    between atoms: C_5  and  O_39
REMARK    5  A    between atoms: C_6  and  O_38
REMARK    6  A    between atoms: C_11  and  C_37
REMARK    7  A    between atoms: C_21  and  C_36
REMARK    8  A    between atoms: C_24  and  O_27
REMARK    9  A    between atoms: O_27  and  C_28
REMARK   10  A    between atoms: C_28  and  C_30
REMARK   11  A    between atoms: O_39  and  C_40
REMARK                            x       y       z     vdW  Elec       q    Type
REMARK                         _______ _______ _______ _____ _____    ______ ____
ROOT
ATOM      1  C   UNL     1       5.733   2.670  -2.865  0.00  0.00    +0.141 C 
ATOM      2  C   UNL     1       5.545   1.482  -1.897  0.00  0.00    +0.153 C 
ATOM      3  C   UNL     1       5.259   2.137  -0.520  0.00  0.00    +0.039 C 
ATOM      4  C   UNL     1       6.143   3.397  -0.565  0.00  0.00    +0.004 C 
ATOM      5  C   UNL     1       6.061   3.906  -1.996  0.00  0.00    +0.008 C 
ATOM      6  C   UNL     1       5.031   4.986  -2.235  0.00  0.00    +0.010 C 
ATOM      7  C   UNL     1       4.870   5.985  -1.108  0.00  0.00    +0.005 C 
ATOM      8  C   UNL     1       4.705   5.324   0.253  0.00  0.00    +0.003 C 
ATOM      9  C   UNL     1       5.854   4.380   0.521  0.00  0.00    +0.000 C 
ATOM     10  C   UNL     1       5.717   3.726   1.894  0.00  0.00    +0.031 C 
ATOM     11  C   UNL     1       4.354   3.119   2.039  0.00  0.00    -0.027 C 
ATOM     12  C   UNL     1       3.308   3.568   1.411  0.00  0.00    -0.064 C 
ATOM     13  C   UNL     1       3.329   4.735   0.468  0.00  0.00    -0.008 C 
ATOM     14  C   UNL     1       2.647   4.347  -0.839  0.00  0.00    +0.015 C 
ATOM     15  C   UNL     1       1.268   3.736  -0.582  0.00  0.00    +0.046 C 
ATOM     16  C   UNL     1       1.398   2.483   0.284  0.00  0.00    +0.181 C 
ATOM     17  C   UNL     1       1.981   2.865   1.648  0.00  0.00    +0.075 C 
ATOM     18  C   UNL     1       2.486   5.846   1.117  0.00  0.00    +0.016 C 
ATOM     19  C   UNL     1       7.444   4.438  -2.405  0.00  0.00    +0.015 C 
ENDROOT
BRANCH   1  21
ATOM     20  C   UNL     1       6.976   3.079  -5.128  0.00  0.00    +0.067 C 
ATOM     21  C   UNL     1       6.891   2.384  -3.793  0.00  0.00    +0.089 C 
ATOM     22  N   UNL     1       7.798   1.551  -3.447  0.00  0.00    -0.094 NA
BRANCH  22  23
ATOM     23  O   UNL     1       8.883   1.283  -4.317  0.00  0.00    -0.409 OA
ATOM     24  H   UNL     1       9.517   0.641  -3.969  0.00  0.00    +0.328 HD
ENDBRANCH  22  23
ENDBRANCH   1  21
BRANCH   2  25
ATOM     25  O   UNL     1       4.437   0.677  -2.306  0.00  0.00    -0.389 OA
ATOM     26  H   UNL     1       4.242  -0.056  -1.706  0.00  0.00    +0.210 HD
ENDBRANCH   2  25
BRANCH   1  27
ATOM     27  O   UNL     1       4.548   2.868  -3.633  0.00  0.00    -0.368 OA
ATOM     28  C   UNL     1       4.263   1.808  -4.548  0.00  0.00    +0.195 C 
ENDBRANCH   1  27
BRANCH  16  29
ATOM     29  O   UNL     1       0.089   1.882   0.466  0.00  0.00    -0.458 OA
BRANCH  29  30
ATOM     30  C   UNL     1       0.048   0.545   0.629  0.00  0.00    +0.339 C 
ATOM     31  O   UNL     1       1.076  -0.100   0.619  0.00  0.00    -0.245 OA
BRANCH  30  32
ATOM     32  C   UNL     1      -1.250  -0.135   0.820  0.00  0.00    +0.059 A 
ATOM     33  C   UNL     1      -2.434   0.604   0.838  0.00  0.00    +0.015 A 
ATOM     34  C   UNL     1      -3.642  -0.038   1.011  0.00  0.00    +0.001 A 
ATOM     35  C   UNL     1      -3.681  -1.411   1.178  0.00  0.00    +0.000 A 
ATOM     36  C   UNL     1      -2.511  -2.150   1.167  0.00  0.00    +0.001 A 
ATOM     37  C   UNL     1      -1.296  -1.520   0.989  0.00  0.00    +0.015 A 
ENDBRANCH  30  32
ENDBRANCH  29  30
ENDBRANCH  16  29
TORSDOF 7
