REMARK  Name = ZINC35911778
REMARK  11 active torsions:
REMARK  status: ('A' for Active; 'I' for Inactive)
REMARK    1  A    between atoms: C_1  and  C_2
REMARK    2  A    between atoms: C_5  and  C_38
REMARK    3  A    between atoms: C_6  and  N_8
REMARK    4  A    between atoms: C_9  and  C_37
REMARK    5  A    between atoms: C_11  and  C_13
REMARK    6  A    between atoms: C_14  and  C_36
REMARK    7  A    between atoms: C_20  and  C_23
REMARK    8  A    between atoms: C_23  and  C_24
REMARK    9  A    between atoms: N_26  and  C_27
REMARK   10  A    between atoms: C_27  and  C_29
REMARK   11  A    between atoms: C_27  and  C_30
REMARK                            x       y       z     vdW  Elec       q    Type
REMARK                         _______ _______ _______ _____ _____    ______ ____
ROOT
ATOM      1  C   UNL     1       1.586  -6.169   4.117  0.00  0.00    +0.088 A 
ATOM      2  C   UNL     1       1.294  -7.230   3.266  0.00  0.00    +0.055 A 
ATOM      3  N   UNL     1       1.377  -8.468   3.739  0.00  0.00    -0.227 NA
ATOM      4  C   UNL     1       1.725  -8.701   4.981  0.00  0.00    +0.180 A 
ATOM      5  N   UNL     1       2.030  -7.722   5.890  0.00  0.00    -0.258 N 
ATOM      6  C   UNL     1       1.964  -6.432   5.445  0.00  0.00    +0.268 A 
ATOM      7  O   UNL     1       2.227  -5.510   6.200  0.00  0.00    -0.266 OA
ATOM      8  C   UNL     1       2.376  -8.137   7.154  0.00  0.00    +0.044 A 
ATOM      9  C   UNL     1       2.410  -9.431   7.468  0.00  0.00    +0.071 A 
ATOM     10  S   UNL     1       1.932 -10.195   5.926  0.00  0.00    -0.057 S 
ATOM     11  C   UNL     1       0.892  -6.980   1.835  0.00  0.00    +0.066 C 
ENDROOT
BRANCH   1  15
ATOM     12  N   UNL     1       1.285  -3.003   2.335  0.00  0.00    -0.236 N 
ATOM     13  C   UNL     1       1.507  -2.542   3.593  0.00  0.00    +0.042 A 
ATOM     14  C   UNL     1       1.646  -3.610   4.408  0.00  0.00    +0.053 A 
ATOM     15  C   UNL     1       1.505  -4.773   3.625  0.00  0.00    +0.100 A 
ATOM     16  N   UNL     1       1.282  -4.403   2.381  0.00  0.00    -0.166 NA
ATOM     17  C   UNL     1       1.585  -1.095   4.007  0.00  0.00    +0.066 C 
BRANCH  12  23
ATOM     18  C   UNL     1       2.732   0.702  -0.556  0.00  0.00    +0.044 C 
ATOM     19  C   UNL     1       1.773  -0.414  -0.232  0.00  0.00    -0.048 A 
ATOM     20  C   UNL     1       0.695  -0.662  -1.062  0.00  0.00    +0.004 A 
ATOM     21  C   UNL     1      -0.187  -1.685  -0.768  0.00  0.00    +0.006 A 
ATOM     22  C   UNL     1       0.006  -2.463   0.357  0.00  0.00    -0.025 A 
ATOM     23  C   UNL     1       1.087  -2.216   1.193  0.00  0.00    +0.069 A 
ATOM     24  C   UNL     1       1.974  -1.191   0.892  0.00  0.00    +0.031 A 
ATOM     25  C   UNL     1      -0.956  -3.578   0.678  0.00  0.00    +0.046 C 
ENDBRANCH  12  23
ENDBRANCH   1  15
BRANCH   8  26
ATOM     26  C   UNL     1       2.723  -7.110   8.202  0.00  0.00    +0.150 C 
BRANCH  26  27
ATOM     27  C   UNL     1       4.178  -6.737   8.077  0.00  0.00    +0.219 C 
ATOM     28  O   UNL     1       4.865  -7.254   7.222  0.00  0.00    -0.275 OA
ATOM     29  N   UNL     1       4.715  -5.829   8.916  0.00  0.00    -0.308 N 
ATOM     30  H   UNL     1       4.165  -5.416   9.600  0.00  0.00    +0.149 HD
BRANCH  29  31
ATOM     31  C   UNL     1       6.129  -5.467   8.795  0.00  0.00    +0.100 C 
ATOM     32  C   UNL     1       6.982  -6.472   9.571  0.00  0.00    +0.033 C 
BRANCH  31  33
ATOM     33  C   UNL     1       6.343  -4.085   9.358  0.00  0.00    -0.027 A 
ATOM     34  C   UNL     1       5.690  -3.701  10.514  0.00  0.00    +0.005 A 
ATOM     35  C   UNL     1       5.887  -2.434  11.031  0.00  0.00    +0.000 A 
ATOM     36  C   UNL     1       6.737  -1.551  10.391  0.00  0.00    +0.000 A 
ATOM     37  C   UNL     1       7.390  -1.935   9.235  0.00  0.00    +0.000 A 
ATOM     38  C   UNL     1       7.197  -3.204   8.721  0.00  0.00    +0.005 A 
ENDBRANCH  31  33
ENDBRANCH  29  31
ENDBRANCH  26  27
ENDBRANCH   8  26
TORSDOF 6
