REMARK  Name = ZINC11680127
REMARK  11 active torsions:
REMARK  status: ('A' for Active; 'I' for Inactive)
REMARK    1  A    between atoms: C_1  and  C_2
REMARK    2  A    between atoms: C_2  and  C_3
REMARK    3  A    between atoms: C_3  and  C_4
REMARK    4  A    between atoms: C_3  and  C_5
REMARK    5  A    between atoms: C_3  and  C_6
REMARK    6  A    between atoms: C_13  and  N_17
REMARK    7  A    between atoms: C_14  and  C_15
REMARK    8  A    between atoms: C_18  and  C_20
REMARK    9  A    between atoms: C_20  and  S_21
REMARK   10  A    between atoms: S_21  and  C_22
REMARK   11  A    between atoms: N_26  and  C_31
REMARK                            x       y       z     vdW  Elec       q    Type
REMARK                         _______ _______ _______ _____ _____    ______ ____
ROOT
ATOM      1  C   UNL     1       0.739  -2.027  -1.265  0.00  0.00    -0.000 C 
ATOM      2  C   UNL     1       1.460  -2.523  -2.521  0.00  0.00    +0.009 C 
ATOM      3  C   UNL     1       1.274  -4.035  -2.667  0.00  0.00    +0.037 C 
ATOM      4  C   UNL     1       1.672  -4.704  -1.359  0.00  0.00    -0.018 A 
ATOM      5  C   UNL     1       1.756  -4.000  -0.208  0.00  0.00    -0.004 A 
ATOM      6  S   UNL     1       2.244  -5.188   1.008  0.00  0.00    -0.077 S 
ATOM      7  C   UNL     1       2.335  -6.562   0.046  0.00  0.00    +0.090 A 
ATOM      8  C   UNL     1       1.990  -6.113  -1.218  0.00  0.00    +0.084 A 
ATOM      9  C   UNL     1       1.486  -2.538  -0.025  0.00  0.00    +0.047 C 
ENDROOT
BRANCH   7  10
ATOM     10  N   UNL     1       2.678  -7.851   0.430  0.00  0.00    -0.278 N 
ATOM     11  C   UNL     1       2.989  -8.111   1.716  0.00  0.00    +0.228 C 
ATOM     12  O   UNL     1       2.968  -7.219   2.537  0.00  0.00    -0.275 OA
ATOM     13  H   UNL     1       2.694  -8.565  -0.227  0.00  0.00    +0.155 HD
BRANCH  11  14
ATOM     14  C   UNL     1       3.361  -9.511   2.132  0.00  0.00    +0.172 C 
BRANCH  14  15
ATOM     15  S   UNL     1       3.721  -9.537   3.910  0.00  0.00    -0.096 S 
BRANCH  15  16
ATOM     16  C   UNL     1       4.133 -11.219   4.237  0.00  0.00    +0.111 A 
ATOM     17  C   UNL     1       4.474 -11.639   5.538  0.00  0.00    +0.070 A 
ATOM     18  C   UNL     1       4.585 -10.998   6.791  0.00  0.00    +0.147 A 
ATOM     19  N   UNL     1       4.941 -11.883   7.677  0.00  0.00    -0.177 NA
ATOM     20  N   UNL     1       5.081 -13.135   7.064  0.00  0.00    -0.249 N 
ATOM     21  C   UNL     1       4.794 -12.995   5.739  0.00  0.00    +0.162 A 
ATOM     22  N   UNL     1       4.763 -13.824   4.696  0.00  0.00    -0.216 NA
ATOM     23  C   UNL     1       4.439 -13.385   3.499  0.00  0.00    +0.224 A 
ATOM     24  N   UNL     1       4.126 -12.123   3.263  0.00  0.00    -0.228 NA
ATOM     25  C   UNL     1       5.470 -14.379   7.731  0.00  0.00    +0.174 C 
ENDBRANCH  15  16
ENDBRANCH  14  15
ENDBRANCH  11  14
ENDBRANCH   7  10
BRANCH   1  26
ATOM     26  C   UNL     1       0.718  -0.497  -1.257  0.00  0.00    -0.032 C 
ATOM     27  C   UNL     1      -0.022   0.009  -2.496  0.00  0.00    +0.011 C 
ATOM     28  C   UNL     1       2.154   0.032  -1.268  0.00  0.00    +0.011 C 
BRANCH  26  30
ATOM     29  C   UNL     1      -0.019   1.526   0.010  0.00  0.00    +0.004 C 
ATOM     30  C   UNL     1       0.002  -0.004   0.002  0.00  0.00    +0.003 C 
ENDBRANCH  26  30
ENDBRANCH   1  26
BRANCH   8  31
ATOM     31  C   UNL     1       1.949  -7.003  -2.339  0.00  0.00    +0.102 C 
ATOM     32  N   UNL     1       1.917  -7.709  -3.229  0.00  0.00    -0.191 NA
ENDBRANCH   8  31
TORSDOF 7
