REMARK  Name = ZINC12712978
REMARK  13 active torsions:
REMARK  status: ('A' for Active; 'I' for Inactive)
REMARK    1  A    between atoms: C_1  and  C_2
REMARK    2  A    between atoms: C_2  and  C_3
REMARK    3  A    between atoms: C_2  and  C_4
REMARK    4  A    between atoms: C_4  and  C_5
REMARK    5  A    between atoms: C_5  and  N_6
REMARK    6  A    between atoms: C_7  and  C_9
REMARK    7  A    between atoms: C_9  and  C_11
REMARK    8  A    between atoms: C_9  and  N_18
REMARK    9  A    between atoms: N_18  and  C_19
REMARK   10  A    between atoms: C_23  and  C_25
REMARK   11  A    between atoms: C_25  and  C_27
REMARK   12  A    between atoms: C_28  and  C_30
REMARK   13  A    between atoms: C_30  and  N_31
REMARK                            x       y       z     vdW  Elec       q    Type
REMARK                         _______ _______ _______ _____ _____    ______ ____
ROOT
ATOM      1  N   UNL     1      -5.489   3.086  -1.762  0.00  0.00    -0.254 N 
ATOM      2  C   UNL     1      -4.186   3.334  -1.522  0.00  0.00    +0.242 C 
ATOM      3  O   UNL     1      -3.494   3.834  -2.384  0.00  0.00    -0.273 OA
ENDROOT
BRANCH   1   4
ATOM      4  C   UNL     1      -6.310   2.606  -0.736  0.00  0.00    +0.038 A 
ATOM      5  C   UNL     1      -6.643   3.432   0.332  0.00  0.00    +0.023 A 
ATOM      6  C   UNL     1      -7.458   2.966   1.346  0.00  0.00    +0.002 A 
ATOM      7  C   UNL     1      -7.940   1.674   1.312  0.00  0.00    +0.011 A 
ATOM      8  C   UNL     1      -7.607   0.832   0.246  0.00  0.00    +0.019 A 
ATOM      9  C   UNL     1      -6.787   1.306  -0.782  0.00  0.00    +0.035 A 
BRANCH   8  10
ATOM     10  C   UNL     1      -8.119  -0.547   0.206  0.00  0.00    +0.160 C 
ATOM     11  O   UNL     1      -7.829  -1.275  -0.720  0.00  0.00    -0.292 OA
ATOM     12  C   UNL     1      -9.003  -1.056   1.316  0.00  0.00    +0.091 C 
ENDBRANCH   8  10
ENDBRANCH   1   4
BRANCH   1  13
ATOM     13  C   UNL     1      -6.044   3.320  -3.098  0.00  0.00    +0.197 C 
BRANCH  13  14
ATOM     14  C   UNL     1      -7.470   2.831  -3.141  0.00  0.00    -0.018 A 
ATOM     15  C   UNL     1      -8.402   3.342  -2.257  0.00  0.00    +0.009 A 
ATOM     16  C   UNL     1      -9.710   2.900  -2.300  0.00  0.00    +0.038 A 
ATOM     17  C   UNL     1     -10.085   1.935  -3.220  0.00  0.00    +0.123 A 
ATOM     18  C   UNL     1      -9.149   1.420  -4.100  0.00  0.00    +0.038 A 
ATOM     19  C   UNL     1      -7.842   1.869  -4.060  0.00  0.00    +0.009 A 
ATOM     20  F   UNL     1     -11.362   1.496  -3.258  0.00  0.00    -0.205 F 
ENDBRANCH  13  14
BRANCH  13  22
ATOM     21  N   UNL     1      -6.473   5.247  -4.587  0.00  0.00    -0.313 N 
ATOM     22  C   UNL     1      -6.009   4.794  -3.406  0.00  0.00    +0.238 C 
ATOM     23  O   UNL     1      -5.564   5.574  -2.590  0.00  0.00    -0.273 OA
ATOM     24  H   UNL     1      -6.829   4.624  -5.239  0.00  0.00    +0.149 HD
BRANCH  21  25
ATOM     25  C   UNL     1      -6.439   6.681  -4.887  0.00  0.00    +0.104 C 
BRANCH  25  26
ATOM     26  C   UNL     1      -7.019   6.925  -6.281  0.00  0.00    +0.022 C 
BRANCH  26  28
ATOM     27  C   UNL     1      -5.530   8.892  -6.673  0.00  0.00    +0.007 C 
ATOM     28  C   UNL     1      -6.984   8.422  -6.594  0.00  0.00    -0.016 C 
ATOM     29  C   UNL     1      -7.677   8.680  -7.933  0.00  0.00    +0.007 C 
ENDBRANCH  26  28
ENDBRANCH  25  26
ENDBRANCH  21  25
ENDBRANCH  13  22
ENDBRANCH   1  13
BRANCH   2  30
ATOM     30  C   UNL     1      -3.588   2.989  -0.183  0.00  0.00    +0.242 C 
BRANCH  30  31
ATOM     31  N   UNL     1      -2.143   3.234  -0.215  0.00  0.00    -0.235 N 
ATOM     32  C   UNL     1      -1.165   2.337  -0.574  0.00  0.00    +0.090 A 
ATOM     33  C   UNL     1      -1.177   1.013  -1.000  0.00  0.00    +0.029 A 
ATOM     34  C   UNL     1       0.001   0.381  -1.285  0.00  0.00    +0.002 A 
ATOM     35  C   UNL     1       1.211   1.052  -1.164  0.00  0.00    +0.002 A 
ATOM     36  C   UNL     1       1.249   2.353  -0.753  0.00  0.00    +0.032 A 
ATOM     37  C   UNL     1       0.056   3.022  -0.450  0.00  0.00    +0.113 A 
ATOM     38  N   UNL     1      -0.218   4.274  -0.031  0.00  0.00    -0.129 NA
ATOM     39  N   UNL     1      -1.487   4.429   0.115  0.00  0.00    -0.064 NA
ENDBRANCH  30  31
ENDBRANCH   2  30
TORSDOF 10
