REMARK  Name = ZINC21925330
REMARK  10 active torsions:
REMARK  status: ('A' for Active; 'I' for Inactive)
REMARK    1  A    between atoms: C_1  and  C_2
REMARK    2  A    between atoms: C_3  and  C_7
REMARK    3  A    between atoms: C_10  and  S_15
REMARK    4  A    between atoms: N_11  and  C_12
REMARK    5  A    between atoms: C_12  and  C_13
REMARK    6  A    between atoms: S_15  and  C_16
REMARK    7  A    between atoms: C_16  and  C_18
REMARK    8  A    between atoms: C_16  and  C_19
REMARK    9  A    between atoms: C_24  and  C_27
REMARK   10  A    between atoms: C_31  and  N_33
REMARK                            x       y       z     vdW  Elec       q    Type
REMARK                         _______ _______ _______ _____ _____    ______ ____
ROOT
ATOM      1  C   UNL     1      -8.707   0.447  -0.806  0.00  0.00    +0.232 C 
ATOM      2  O   UNL     1      -9.077  -0.618  -1.255  0.00  0.00    -0.274 OA
ATOM      3  N   UNL     1      -9.612   1.388  -0.472  0.00  0.00    -0.264 N 
ATOM      4  C   UNL     1     -10.968   1.140  -0.642  0.00  0.00    +0.165 A 
ATOM      5  N   UNL     1     -11.999   1.923  -0.384  0.00  0.00    -0.225 NA
ATOM      6  C   UNL     1     -13.241   1.520  -0.609  0.00  0.00    +0.080 A 
ATOM      7  C   UNL     1     -13.460   0.270  -1.117  0.00  0.00    +0.076 A 
ATOM      8  S   UNL     1     -11.780  -0.322  -1.274  0.00  0.00    -0.060 S 
ATOM      9  H   UNL     1      -9.316   2.240  -0.114  0.00  0.00    +0.157 HD
ENDROOT
BRANCH   6  10
ATOM     10  C   UNL     1     -14.384   2.418  -0.311  0.00  0.00    +0.003 A 
ATOM     11  C   UNL     1     -15.690   1.988  -0.543  0.00  0.00    +0.010 A 
ATOM     12  C   UNL     1     -16.749   2.827  -0.265  0.00  0.00    +0.003 A 
ATOM     13  C   UNL     1     -16.517   4.093   0.244  0.00  0.00    +0.033 A 
ATOM     14  C   UNL     1     -15.224   4.524   0.476  0.00  0.00    +0.127 A 
ATOM     15  C   UNL     1     -14.157   3.691   0.207  0.00  0.00    +0.042 A 
BRANCH  14  16
ATOM     16  N   UNL     1     -14.984   5.880   1.020  0.00  0.00    +0.056 N 
ATOM     17  O   UNL     1     -15.918   6.609   1.262  0.00  0.00    -0.126 OA
ATOM     18  O   UNL     1     -13.854   6.258   1.223  0.00  0.00    -0.126 OA
ENDBRANCH  14  16
ENDBRANCH   6  10
BRANCH   1  19
ATOM     19  C   UNL     1      -7.236   0.716  -0.622  0.00  0.00    +0.137 C 
ATOM     20  C   UNL     1      -6.724   1.567  -1.787  0.00  0.00    +0.029 C 
BRANCH  19  21
ATOM     21  S   UNL     1      -6.334  -0.857  -0.580  0.00  0.00    -0.073 S 
BRANCH  21  25
ATOM     22  C   UNL     1      -2.530  -0.417   0.202  0.00  0.00    +0.168 A 
ATOM     23  N   UNL     1      -2.974   0.818   0.221  0.00  0.00    -0.128 NA
ATOM     24  N   UNL     1      -4.236   0.836  -0.025  0.00  0.00    -0.122 NA
ATOM     25  C   UNL     1      -4.675  -0.387  -0.215  0.00  0.00    +0.193 A 
ATOM     26  N   UNL     1      -3.604  -1.227  -0.083  0.00  0.00    -0.298 N 
BRANCH  22  29
ATOM     27  C   UNL     1      -0.658   0.521   2.536  0.00  0.00    +0.087 C 
ATOM     28  C   UNL     1      -0.312  -0.459   1.444  0.00  0.00    +0.112 A 
ATOM     29  C   UNL     1      -1.137  -0.854   0.438  0.00  0.00    +0.060 A 
ATOM     30  C   UNL     1      -0.359  -1.805  -0.365  0.00  0.00    +0.053 A 
ATOM     31  C   UNL     1       0.845  -1.891   0.225  0.00  0.00    +0.196 A 
ATOM     32  O   UNL     1       0.866  -1.084   1.297  0.00  0.00    -0.467 OA
ENDBRANCH  22  29
BRANCH  26  33
ATOM     33  C   UNL     1      -3.602  -2.686  -0.215  0.00  0.00    +0.152 C 
BRANCH  33  34
ATOM     34  C   UNL     1      -3.752  -3.314   1.146  0.00  0.00    -0.013 C 
ATOM     35  C   UNL     1      -4.718  -4.171   1.370  0.00  0.00    +0.005 C 
ENDBRANCH  33  34
ENDBRANCH  26  33
ENDBRANCH  21  25
ENDBRANCH  19  21
ENDBRANCH   1  19
TORSDOF 8
