REMARK  Name = ZINC55231398
REMARK  2 active torsions:
REMARK  status: ('A' for Active; 'I' for Inactive)
REMARK    1  A    between atoms: C_14  and  C_16
REMARK    2  A    between atoms: C_19  and  C_22
REMARK                            x       y       z     vdW  Elec       q    Type
REMARK                         _______ _______ _______ _____ _____    ______ ____
ROOT
ATOM      1  C   UNL     1      -0.016   1.349   0.009  0.00  0.00    +0.020 A 
ATOM      2  C   UNL     1       1.324   1.792  -0.001  0.00  0.00    +0.025 A 
ATOM      3  C   UNL     1       2.108   0.700  -0.016  0.00  0.00    +0.045 A 
ATOM      4  N   UNL     1       1.296  -0.400  -0.009  0.00  0.00    -0.318 N 
ATOM      5  C   UNL     1       0.002  -0.004   0.002  0.00  0.00    +0.091 A 
ATOM      6  C   UNL     1       1.853  -1.692  -0.009  0.00  0.00    +0.054 A 
ATOM      7  C   UNL     1       1.380  -2.696  -0.832  0.00  0.00    +0.076 A 
ATOM      8  C   UNL     1       2.010  -3.931  -0.832  0.00  0.00    +0.168 A 
ATOM      9  C   UNL     1       3.112  -4.149  -0.009  0.00  0.00    +0.167 A 
ATOM     10  C   UNL     1       3.567  -3.142   0.828  0.00  0.00    +0.056 A 
ATOM     11  C   UNL     1       2.923  -1.921   0.850  0.00  0.00    -0.006 A 
ATOM     12  C   UNL     1       3.293  -0.863   1.845  0.00  0.00    +0.119 C 
ATOM     13  N   UNL     1       4.124   0.215   1.280  0.00  0.00    -0.300 NA
ATOM     14  C   UNL     1       3.608   0.627  -0.038  0.00  0.00    +0.132 C 
ATOM     15  O   UNL     1       3.558  -5.425  -0.209  0.00  0.00    -0.453 OA
ATOM     16  C   UNL     1       2.467  -6.117  -0.843  0.00  0.00    +0.466 C 
ATOM     17  O   UNL     1       1.754  -5.074  -1.533  0.00  0.00    -0.453 OA
ATOM     18  H   UNL     1       4.174   1.001   1.911  0.00  0.00    +0.123 HD
ENDROOT
BRANCH  14  19
ATOM     19  C   UNL     1       4.168   1.981  -0.390  0.00  0.00    -0.025 A 
ATOM     20  C   UNL     1       4.267   2.962   0.580  0.00  0.00    +0.006 A 
ATOM     21  C   UNL     1       4.780   4.204   0.257  0.00  0.00    +0.013 A 
ATOM     22  C   UNL     1       5.194   4.466  -1.036  0.00  0.00    +0.055 A 
ATOM     23  C   UNL     1       5.095   3.486  -2.005  0.00  0.00    +0.013 A 
ATOM     24  C   UNL     1       4.586   2.242  -1.681  0.00  0.00    +0.006 A 
BRANCH  22  25
ATOM     25  C   UNL     1       5.752   5.821  -1.388  0.00  0.00    +0.417 C 
ATOM     26  F   UNL     1       7.138   5.819  -1.194  0.00  0.00    -0.166 F 
ATOM     27  F   UNL     1       5.469   6.108  -2.728  0.00  0.00    -0.166 F 
ATOM     28  F   UNL     1       5.168   6.793  -0.569  0.00  0.00    -0.166 F 
ENDBRANCH  22  25
ENDBRANCH  14  19
TORSDOF 2
