REMARK  Name = ZINC63141707
REMARK  12 active torsions:
REMARK  status: ('A' for Active; 'I' for Inactive)
REMARK    1  A    between atoms: C_1  and  C_2
REMARK    2  A    between atoms: C_2  and  C_3
REMARK    3  A    between atoms: C_3  and  C_4
REMARK    4  A    between atoms: C_4  and  C_5
REMARK    5  A    between atoms: C_5  and  C_6
REMARK    6  A    between atoms: C_6  and  N_7
REMARK    7  A    between atoms: C_27  and  C_29
REMARK    8  A    between atoms: C_32  and  O_37
REMARK    9  A    between atoms: C_33  and  O_35
REMARK   10  A    between atoms: O_35  and  C_36
REMARK   11  A    between atoms: O_37  and  C_38
REMARK   12  A    between atoms: C_38  and  C_39
REMARK                            x       y       z     vdW  Elec       q    Type
REMARK                         _______ _______ _______ _____ _____    ______ ____
ROOT
ATOM      1  N   UNL     1       2.162  -4.523  -3.738  0.00  0.00    -0.291 N 
ATOM      2  C   UNL     1       1.432  -4.778  -4.993  0.00  0.00    +0.203 C 
ATOM      3  C   UNL     1       2.210  -4.159  -6.135  0.00  0.00    +0.234 C 
ATOM      4  O   UNL     1       1.657  -3.524  -7.009  0.00  0.00    -0.274 OA
ATOM      5  N   UNL     1       3.570  -4.349  -6.136  0.00  0.00    -0.279 N 
ATOM      6  C   UNL     1       4.080  -5.194  -5.077  0.00  0.00    +0.167 C 
ATOM      7  C   UNL     1       3.510  -4.744  -3.756  0.00  0.00    +0.237 C 
ATOM      8  O   UNL     1       4.202  -4.591  -2.772  0.00  0.00    -0.274 OA
ATOM      9  C   UNL     1       5.566  -5.434  -5.007  0.00  0.00    +0.065 C 
ATOM     10  C   UNL     1       6.277  -4.526  -5.972  0.00  0.00    -0.034 C 
ATOM     11  C   UNL     1       7.401  -3.830  -5.874  0.00  0.00    -0.001 A 
ATOM     12  C   UNL     1       8.398  -3.723  -4.795  0.00  0.00    +0.010 A 
ATOM     13  C   UNL     1       9.448  -2.892  -5.029  0.00  0.00    +0.001 A 
ATOM     14  C   UNL     1       9.606  -2.166  -6.214  0.00  0.00    +0.002 A 
ATOM     15  C   UNL     1       8.742  -2.208  -7.259  0.00  0.00    +0.026 A 
ATOM     16  C   UNL     1       7.599  -3.050  -7.133  0.00  0.00    +0.043 A 
ATOM     17  N   UNL     1       6.632  -3.284  -7.969  0.00  0.00    -0.375 N 
ATOM     18  C   UNL     1       5.713  -4.258  -7.365  0.00  0.00    +0.131 C 
ATOM     19  C   UNL     1       4.335  -3.649  -7.158  0.00  0.00    +0.134 C 
ATOM     20  H   UNL     1       6.533  -2.882  -8.846  0.00  0.00    +0.160 HD
ENDROOT
BRANCH  19  21
ATOM     21  C   UNL     1       4.532  -2.218  -6.729  0.00  0.00    -0.021 A 
ATOM     22  C   UNL     1       4.814  -1.927  -5.407  0.00  0.00    +0.009 A 
ATOM     23  C   UNL     1       4.997  -0.617  -5.008  0.00  0.00    +0.050 A 
ATOM     24  C   UNL     1       4.897   0.410  -5.934  0.00  0.00    +0.162 A 
ATOM     25  C   UNL     1       4.613   0.117  -7.265  0.00  0.00    +0.162 A 
ATOM     26  C   UNL     1       4.437  -1.200  -7.659  0.00  0.00    +0.055 A 
BRANCH  25  27
ATOM     27  O   UNL     1       4.514   1.120  -8.177  0.00  0.00    -0.491 OA
ATOM     28  C   UNL     1       4.221   0.745  -9.524  0.00  0.00    +0.277 C 
ENDBRANCH  25  27
BRANCH  24  29
ATOM     29  O   UNL     1       5.075   1.700  -5.543  0.00  0.00    -0.489 OA
BRANCH  29  30
ATOM     30  C   UNL     1       5.363   1.925  -4.162  0.00  0.00    +0.226 C 
ATOM     31  C   UNL     1       5.530   3.426  -3.914  0.00  0.00    +0.048 C 
ENDBRANCH  29  30
ENDBRANCH  24  29
ENDBRANCH  19  21
BRANCH   1  32
ATOM     32  C   UNL     1       1.476  -4.051  -2.532  0.00  0.00    +0.108 C 
BRANCH  32  33
ATOM     33  C   UNL     1       1.455  -2.521  -2.524  0.00  0.00    +0.019 C 
BRANCH  33  34
ATOM     34  C   UNL     1       0.739  -2.027  -1.265  0.00  0.00    +0.002 C 
BRANCH  34  35
ATOM     35  C   UNL     1       0.718  -0.497  -1.257  0.00  0.00    -0.000 C 
BRANCH  35  37
ATOM     36  C   UNL     1      -0.019   1.526   0.010  0.00  0.00    +0.004 C 
ATOM     37  C   UNL     1       0.002  -0.004   0.002  0.00  0.00    -0.003 C 
ENDBRANCH  35  37
ENDBRANCH  34  35
ENDBRANCH  33  34
ENDBRANCH  32  33
ENDBRANCH   1  32
TORSDOF 9
