REMARK  Name = ZINC15972195
REMARK  10 active torsions:
REMARK  status: ('A' for Active; 'I' for Inactive)
REMARK    1  A    between atoms: C_1  and  C_2
REMARK    2  A    between atoms: C_4  and  C_32
REMARK    3  A    between atoms: C_9  and  C_18
REMARK    4  A    between atoms: C_12  and  C_14
REMARK    5  A    between atoms: C_14  and  C_15
REMARK    6  A    between atoms: C_15  and  S_16
REMARK    7  A    between atoms: S_16  and  C_17
REMARK    8  A    between atoms: N_20  and  C_21
REMARK    9  A    between atoms: C_24  and  O_27
REMARK   10  A    between atoms: O_27  and  C_28
REMARK                            x       y       z     vdW  Elec       q    Type
REMARK                         _______ _______ _______ _____ _____    ______ ____
ROOT
ATOM      1  C   UNL     1      -3.466  -4.051   7.839  0.00  0.00    +0.044 C 
ATOM      2  C   UNL     1      -1.993  -3.756   7.720  0.00  0.00    -0.050 A 
ATOM      3  C   UNL     1      -1.063  -4.729   8.037  0.00  0.00    +0.008 A 
ATOM      4  C   UNL     1       0.287  -4.465   7.930  0.00  0.00    -0.029 A 
ATOM      5  C   UNL     1       0.723  -3.213   7.502  0.00  0.00    +0.039 A 
ATOM      6  C   UNL     1      -0.221  -2.241   7.187  0.00  0.00    -0.027 A 
ATOM      7  C   UNL     1      -1.568  -2.510   7.295  0.00  0.00    +0.008 A 
ATOM      8  C   UNL     1       0.559  -1.026   6.766  0.00  0.00    +0.049 C 
ATOM      9  C   UNL     1       0.252   0.170   7.676  0.00  0.00    +0.076 C 
ATOM     10  C   UNL     1      -0.248   1.278   6.719  0.00  0.00    -0.004 C 
ATOM     11  C   UNL     1       0.338   0.847   5.351  0.00  0.00    -0.068 C 
ATOM     12  C   UNL     1       2.004  -1.436   6.885  0.00  0.00    +0.211 C 
ATOM     13  O   UNL     1       2.973  -0.748   6.641  0.00  0.00    -0.277 OA
ATOM     14  N   UNL     1       2.013  -2.711   7.315  0.00  0.00    -0.286 N 
ATOM     15  C   UNL     1       1.292  -5.533   8.277  0.00  0.00    +0.045 C 
ATOM     16  H   UNL     1       2.821  -3.222   7.477  0.00  0.00    +0.155 HD
ATOM     17  N   UNL     1       0.239  -0.620   5.405  0.00  0.00    +0.394 N 
ATOM     18  H   UNL     1      -0.714  -0.916   5.164  0.00  0.00    -0.083 HD
ATOM     19  H   UNL     1       0.905  -1.041   4.746  0.00  0.00    -0.083 HD
ENDROOT
BRANCH   9  20
ATOM     20  C   UNL     1       1.500   0.616   8.393  0.00  0.00    +0.220 C 
ATOM     21  O   UNL     1       2.263   1.392   7.857  0.00  0.00    -0.275 OA
ATOM     22  N   UNL     1       1.767   0.154   9.631  0.00  0.00    -0.285 N 
ATOM     23  H   UNL     1       1.200  -0.525  10.028  0.00  0.00    +0.155 HD
BRANCH  22  24
ATOM     24  C   UNL     1       2.864   0.656  10.344  0.00  0.00    +0.034 A 
ATOM     25  C   UNL     1       3.582  -0.178  11.191  0.00  0.00    +0.027 A 
ATOM     26  C   UNL     1       4.666   0.316  11.889  0.00  0.00    +0.047 A 
ATOM     27  C   UNL     1       5.032   1.647  11.752  0.00  0.00    +0.120 A 
ATOM     28  C   UNL     1       4.312   2.482  10.910  0.00  0.00    +0.047 A 
ATOM     29  C   UNL     1       3.231   1.988  10.207  0.00  0.00    +0.027 A 
BRANCH  27  30
ATOM     30  O   UNL     1       6.096   2.134  12.444  0.00  0.00    -0.495 OA
ATOM     31  C   UNL     1       6.792   1.218  13.293  0.00  0.00    +0.277 C 
ENDBRANCH  27  30
ENDBRANCH  22  24
ENDBRANCH   9  20
BRANCH  11  32
ATOM     32  C   UNL     1      -0.493   1.421   4.202  0.00  0.00    -0.005 C 
BRANCH  32  33
ATOM     33  C   UNL     1       0.114   0.987   2.866  0.00  0.00    +0.067 C 
BRANCH  33  34
ATOM     34  S   UNL     1      -0.872   1.667   1.504  0.00  0.00    -0.164 S 
ATOM     35  C   UNL     1      -0.032   1.069   0.012  0.00  0.00    +0.084 C 
ENDBRANCH  33  34
ENDBRANCH  32  33
ENDBRANCH  11  32
TORSDOF 6
