REMARK  Name = ZINC22430277
REMARK  11 active torsions:
REMARK  status: ('A' for Active; 'I' for Inactive)
REMARK    1  A    between atoms: C_1  and  C_2
REMARK    2  A    between atoms: C_5  and  N_8
REMARK    3  A    between atoms: N_8  and  C_9
REMARK    4  A    between atoms: N_8  and  S_26
REMARK    5  A    between atoms: C_9  and  C_10
REMARK    6  A    between atoms: N_12  and  C_13
REMARK    7  A    between atoms: C_13  and  C_14
REMARK    8  A    between atoms: C_17  and  N_20
REMARK    9  A    between atoms: C_24  and  C_25
REMARK   10  A    between atoms: S_26  and  C_29
REMARK   11  A    between atoms: C_32  and  C_35
REMARK                            x       y       z     vdW  Elec       q    Type
REMARK                         _______ _______ _______ _____ _____    ______ ____
ROOT
ATOM      1  C   UNL     1       0.370   0.885  -0.440  0.00  0.00    +0.227 C 
ENDROOT
BRANCH   1   2
ATOM      2  C   UNL     1      -0.018   0.751   1.010  0.00  0.00    +0.232 C 
ATOM      3  O   UNL     1      -1.084   1.183   1.395  0.00  0.00    -0.274 OA
ATOM      4  N   UNL     1       0.819   0.151   1.879  0.00  0.00    -0.310 N 
ATOM      5  H   UNL     1       1.786  -0.241   1.530  0.00  0.00    +0.149 HD
BRANCH   4   6
ATOM      6  C   UNL     1       0.442   0.021   3.288  0.00  0.00    +0.139 C 
BRANCH   6   7
ATOM      7  C   UNL     1       1.542  -0.682   4.040  0.00  0.00    -0.030 A 
ATOM      8  C   UNL     1       1.530  -2.060   4.154  0.00  0.00    +0.007 A 
ATOM      9  C   UNL     1       2.540  -2.707   4.839  0.00  0.00    +0.026 A 
ATOM     10  C   UNL     1       3.563  -1.972   5.422  0.00  0.00    +0.048 A 
ATOM     11  C   UNL     1       3.570  -0.588   5.311  0.00  0.00    +0.026 A 
ATOM     12  C   UNL     1       2.560   0.053   4.620  0.00  0.00    +0.007 A 
BRANCH  10  13
ATOM     13  N   UNL     1       4.588  -2.625   6.122  0.00  0.00    -0.305 N 
ATOM     14  C   UNL     1       5.936  -2.440   5.955  0.00  0.00    +0.110 A 
ATOM     15  C   UNL     1       6.553  -3.262   6.824  0.00  0.00    +0.102 A 
ATOM     16  N   UNL     1       5.613  -3.934   7.505  0.00  0.00    -0.350 N 
ATOM     17  C   UNL     1       4.432  -3.558   7.097  0.00  0.00    +0.088 A 
ATOM     18  C   UNL     1       3.115  -4.074   7.619  0.00  0.00    +0.084 C 
ATOM     19  H   UNL     1       5.907  -4.668   8.270  0.00  0.00    +0.166 HD
ENDBRANCH  10  13
ENDBRANCH   6   7
ENDBRANCH   4   6
ENDBRANCH   1   2
BRANCH   1  20
ATOM     20  N   UNL     1      -0.700   1.568  -1.171  0.00  0.00    -0.194 N 
BRANCH  20  25
ATOM     21  C   UNL     1      -5.096  -1.394  -3.186  0.00  0.00    +0.044 C 
ATOM     22  C   UNL     1      -3.928  -0.607  -2.650  0.00  0.00    -0.050 A 
ATOM     23  C   UNL     1      -3.640  -0.632  -1.298  0.00  0.00    +0.005 A 
ATOM     24  C   UNL     1      -2.570   0.087  -0.804  0.00  0.00    +0.025 A 
ATOM     25  C   UNL     1      -1.782   0.838  -1.667  0.00  0.00    +0.052 A 
ATOM     26  C   UNL     1      -2.078   0.866  -3.025  0.00  0.00    +0.025 A 
ATOM     27  C   UNL     1      -3.146   0.140  -3.513  0.00  0.00    +0.005 A 
ENDBRANCH  20  25
BRANCH  20  28
ATOM     28  S   UNL     1      -0.626   3.205  -1.409  0.00  0.00    +0.075 S 
ATOM     29  O   UNL     1      -1.941   3.627  -1.746  0.00  0.00    -0.150 OA
ATOM     30  O   UNL     1       0.088   3.744  -0.305  0.00  0.00    -0.150 OA
BRANCH  28  31
ATOM     31  C   UNL     1       0.371   3.480  -2.836  0.00  0.00    +0.109 A 
ATOM     32  C   UNL     1       1.747   3.530  -2.718  0.00  0.00    +0.029 A 
ATOM     33  C   UNL     1       2.530   3.741  -3.838  0.00  0.00    +0.005 A 
ATOM     34  C   UNL     1       1.935   3.911  -5.075  0.00  0.00    -0.050 A 
ATOM     35  C   UNL     1       0.558   3.866  -5.192  0.00  0.00    +0.005 A 
ATOM     36  C   UNL     1      -0.224   3.651  -4.072  0.00  0.00    +0.029 A 
ATOM     37  C   UNL     1       2.788   4.146  -6.295  0.00  0.00    +0.044 C 
ENDBRANCH  28  31
ENDBRANCH  20  28
ENDBRANCH   1  20
TORSDOF 8
