REMARK  Name = ZINC40931216
REMARK  6 active torsions:
REMARK  status: ('A' for Active; 'I' for Inactive)
REMARK    1  A    between atoms: C_3  and  C_8
REMARK    2  A    between atoms: C_8  and  N_9
REMARK    3  A    between atoms: C_10  and  C_12
REMARK    4  A    between atoms: N_15  and  C_18
REMARK    5  A    between atoms: C_18  and  C_19
REMARK    6  A    between atoms: C_21  and  C_24
REMARK                            x       y       z     vdW  Elec       q    Type
REMARK                         _______ _______ _______ _____ _____    ______ ____
ROOT
ATOM      1  C   UNL     1       5.691   3.353   3.013  0.00  0.00    +0.071 C 
ATOM      2  C   UNL     1       5.910   2.015   3.724  0.00  0.00    -0.006 C 
ATOM      3  C   UNL     1       6.438   2.274   5.136  0.00  0.00    -0.077 C 
ATOM      4  N   UNL     1       7.710   3.004   5.061  0.00  0.00    +0.386 N 
ATOM      5  C   UNL     1       7.494   4.319   4.444  0.00  0.00    -0.077 C 
ATOM      6  C   UNL     1       7.006   4.138   3.005  0.00  0.00    -0.006 C 
ATOM      7  H   UNL     1       8.366   2.477   4.505  0.00  0.00    -0.081 HD
ENDROOT
BRANCH   1   9
ATOM      8  N   UNL     1       4.105   2.426   1.356  0.00  0.00    -0.311 N 
ATOM      9  C   UNL     1       5.245   3.104   1.595  0.00  0.00    +0.216 C 
ATOM     10  O   UNL     1       5.913   3.512   0.668  0.00  0.00    -0.276 OA
ATOM     11  H   UNL     1       3.571   2.099   2.097  0.00  0.00    +0.149 HD
BRANCH   8  12
ATOM     12  C   UNL     1       3.672   2.183  -0.022  0.00  0.00    +0.139 C 
BRANCH  12  15
ATOM     13  C   UNL     1      -0.017   1.378   0.010  0.00  0.00    +0.001 A 
ATOM     14  C   UNL     1       1.171   2.086   0.002  0.00  0.00    +0.005 A 
ATOM     15  C   UNL     1       2.378   1.411  -0.013  0.00  0.00    -0.029 A 
ATOM     16  C   UNL     1       2.397   0.029  -0.022  0.00  0.00    +0.020 A 
ATOM     17  C   UNL     1       1.210  -0.679  -0.014  0.00  0.00    +0.018 A 
ATOM     18  C   UNL     1       0.002  -0.004   0.002  0.00  0.00    +0.015 A 
ATOM     19 BR   UNL     1       1.236  -2.570  -0.025  0.00  0.00    -0.050 Br
ENDBRANCH  12  15
ENDBRANCH   8  12
ENDBRANCH   1   9
BRANCH   4  20
ATOM     20  C   UNL     1       8.251   3.183   6.415  0.00  0.00    +0.022 C 
BRANCH  20  21
ATOM     21  C   UNL     1       9.613   3.822   6.330  0.00  0.00    +0.211 A 
ATOM     22  N   UNL     1       9.856   5.101   6.345  0.00  0.00    -0.193 NA
ATOM     23  C   UNL     1      11.180   5.321   6.253  0.00  0.00    +0.202 A 
ATOM     24  N   UNL     1      11.791   4.164   6.179  0.00  0.00    -0.056 NA
ATOM     25  O   UNL     1      10.779   3.170   6.234  0.00  0.00    -0.340 OA
BRANCH  23  26
ATOM     26  C   UNL     1      11.838   6.650   6.239  0.00  0.00    +0.026 A 
ATOM     27  C   UNL     1      11.071   7.810   6.330  0.00  0.00    +0.015 A 
ATOM     28  C   UNL     1      11.683   9.046   6.316  0.00  0.00    +0.050 A 
ATOM     29  C   UNL     1      13.063   9.139   6.211  0.00  0.00    +0.166 A 
ATOM     30  C   UNL     1      13.836   7.981   6.119  0.00  0.00    +0.167 A 
ATOM     31  C   UNL     1      13.225   6.741   6.139  0.00  0.00    +0.061 A 
ATOM     32  O   UNL     1      15.149   8.341   6.025  0.00  0.00    -0.453 OA
ATOM     33  C   UNL     1      15.142   9.730   5.649  0.00  0.00    +0.466 C 
ATOM     34  O   UNL     1      13.895  10.221   6.175  0.00  0.00    -0.453 OA
ENDBRANCH  23  26
ENDBRANCH  20  21
ENDBRANCH   4  20
TORSDOF 6
