REMARK  Name = ZINC22430859
REMARK  13 active torsions:
REMARK  status: ('A' for Active; 'I' for Inactive)
REMARK    1  A    between atoms: C_1  and  C_2
REMARK    2  A    between atoms: C_5  and  S_8
REMARK    3  A    between atoms: S_8  and  N_11
REMARK    4  A    between atoms: N_11  and  C_12
REMARK    5  A    between atoms: N_11  and  C_29
REMARK    6  A    between atoms: C_12  and  C_13
REMARK    7  A    between atoms: N_15  and  C_16
REMARK    8  A    between atoms: C_16  and  C_18
REMARK    9  A    between atoms: C_16  and  C_19
REMARK   10  A    between atoms: C_22  and  O_27
REMARK   11  A    between atoms: C_23  and  O_25
REMARK   12  A    between atoms: O_25  and  C_26
REMARK   13  A    between atoms: O_27  and  C_28
REMARK                            x       y       z     vdW  Elec       q    Type
REMARK                         _______ _______ _______ _____ _____    ______ ____
ROOT
ATOM      1  N   UNL     1       2.117  -2.657   1.426  0.00  0.00    -0.194 N 
ENDROOT
BRANCH   1   2
ATOM      2  C   UNL     1       3.364  -2.774   0.807  0.00  0.00    +0.053 A 
ATOM      3  C   UNL     1       3.703  -1.926  -0.240  0.00  0.00    +0.025 A 
ATOM      4  C   UNL     1       4.937  -2.043  -0.850  0.00  0.00    +0.003 A 
ATOM      5  C   UNL     1       5.835  -3.002  -0.419  0.00  0.00    +0.020 A 
ATOM      6  C   UNL     1       5.501  -3.848   0.624  0.00  0.00    +0.043 A 
ATOM      7  C   UNL     1       4.269  -3.733   1.241  0.00  0.00    +0.044 A 
ATOM      8 CL   UNL     1       6.632  -5.051   1.161  0.00  0.00    -0.083 Cl
ENDBRANCH   1   2
BRANCH   1   9
ATOM      9  S   UNL     1       2.025  -2.370   3.054  0.00  0.00    +0.075 S 
ATOM     10  O   UNL     1       3.297  -1.880   3.453  0.00  0.00    -0.150 OA
ATOM     11  O   UNL     1       0.825  -1.639   3.270  0.00  0.00    -0.150 OA
BRANCH   9  16
ATOM     12  C   UNL     1       1.304  -7.710   5.770  0.00  0.00    +0.044 C 
ATOM     13  C   UNL     1       1.484  -6.376   5.092  0.00  0.00    -0.050 A 
ATOM     14  C   UNL     1       2.746  -5.824   4.976  0.00  0.00    +0.005 A 
ATOM     15  C   UNL     1       2.911  -4.601   4.353  0.00  0.00    +0.029 A 
ATOM     16  C   UNL     1       1.814  -3.929   3.847  0.00  0.00    +0.109 A 
ATOM     17  C   UNL     1       0.551  -4.479   3.967  0.00  0.00    +0.029 A 
ATOM     18  C   UNL     1       0.387  -5.704   4.586  0.00  0.00    +0.005 A 
ENDBRANCH   9  16
ENDBRANCH   1   9
BRANCH   1  19
ATOM     19  C   UNL     1       0.892  -2.789   0.634  0.00  0.00    +0.227 C 
BRANCH  19  20
ATOM     20  C   UNL     1       0.547  -1.459   0.015  0.00  0.00    +0.233 C 
ATOM     21  O   UNL     1       1.256  -0.496   0.216  0.00  0.00    -0.274 OA
ATOM     22  N   UNL     1      -0.548  -1.340  -0.761  0.00  0.00    -0.307 N 
ATOM     23  H   UNL     1      -1.191  -2.214  -0.942  0.00  0.00    +0.149 HD
BRANCH  22  24
ATOM     24  C   UNL     1      -0.882  -0.047  -1.362  0.00  0.00    +0.100 C 
ATOM     25  C   UNL     1      -1.681   0.790  -0.361  0.00  0.00    +0.033 C 
BRANCH  24  26
ATOM     26  C   UNL     1      -1.709  -0.269  -2.603  0.00  0.00    -0.024 A 
ATOM     27  C   UNL     1      -2.685  -1.247  -2.615  0.00  0.00    +0.009 A 
ATOM     28  C   UNL     1      -3.446  -1.454  -3.751  0.00  0.00    +0.050 A 
ATOM     29  C   UNL     1      -3.231  -0.680  -4.880  0.00  0.00    +0.162 A 
ATOM     30  C   UNL     1      -2.248   0.305  -4.867  0.00  0.00    +0.162 A 
ATOM     31  C   UNL     1      -1.492   0.510  -3.724  0.00  0.00    +0.054 A 
BRANCH  30  32
ATOM     32  O   UNL     1      -2.032   1.067  -5.973  0.00  0.00    -0.491 OA
ATOM     33  C   UNL     1      -1.006   2.058  -5.888  0.00  0.00    +0.277 C 
ENDBRANCH  30  32
BRANCH  29  34
ATOM     34  O   UNL     1      -3.978  -0.882  -5.998  0.00  0.00    -0.491 OA
ATOM     35  C   UNL     1      -4.969  -1.910  -5.938  0.00  0.00    +0.277 C 
ENDBRANCH  29  34
ENDBRANCH  24  26
ENDBRANCH  22  24
ENDBRANCH  19  20
ENDBRANCH   1  19
TORSDOF 9
