REMARK  Name = ZINC38904781
REMARK  7 active torsions:
REMARK  status: ('A' for Active; 'I' for Inactive)
REMARK    1  A    between atoms: C_1  and  C_2
REMARK    2  A    between atoms: C_2  and  C_4
REMARK    3  A    between atoms: C_2  and  N_11
REMARK    4  A    between atoms: C_12  and  C_14
REMARK    5  A    between atoms: N_19  and  C_21
REMARK    6  A    between atoms: C_21  and  C_22
REMARK    7  A    between atoms: C_24  and  C_27
REMARK                            x       y       z     vdW  Elec       q    Type
REMARK                         _______ _______ _______ _____ _____    ______ ____
ROOT
ATOM      1  C   UNL     1      -3.442  -1.177   1.191  0.00  0.00    +0.058 C 
ATOM      2  C   UNL     1      -4.340  -0.239   0.379  0.00  0.00    +0.009 C 
ATOM      3  C   UNL     1      -5.787  -0.734   0.461  0.00  0.00    -0.018 C 
ATOM      4  C   UNL     1      -6.210  -0.814   1.929  0.00  0.00    -0.078 C 
ATOM      5  N   UNL     1      -5.331  -1.746   2.646  0.00  0.00    +0.386 N 
ATOM      6  C   UNL     1      -3.952  -1.241   2.633  0.00  0.00    -0.065 C 
ATOM      7  H   UNL     1      -5.361  -2.649   2.196  0.00  0.00    -0.081 HD
ENDROOT
BRANCH   1   9
ATOM      8  N   UNL     1      -1.372  -0.511   0.012  0.00  0.00    -0.309 N 
ATOM      9  C   UNL     1      -2.029  -0.655   1.181  0.00  0.00    +0.215 C 
ATOM     10  O   UNL     1      -1.481  -0.365   2.224  0.00  0.00    -0.276 OA
ATOM     11  H   UNL     1      -1.810  -0.743  -0.822  0.00  0.00    +0.149 HD
BRANCH   8  13
ATOM     12  C   UNL     1      -0.019   1.526   0.010  0.00  0.00    +0.033 C 
ATOM     13  C   UNL     1       0.002  -0.004   0.002  0.00  0.00    +0.100 C 
BRANCH  13  14
ATOM     14  C   UNL     1       0.707  -0.490  -1.238  0.00  0.00    -0.027 A 
ATOM     15  C   UNL     1       0.037  -0.521  -2.446  0.00  0.00    +0.008 A 
ATOM     16  C   UNL     1       0.683  -0.966  -3.584  0.00  0.00    +0.038 A 
ATOM     17  C   UNL     1       2.002  -1.381  -3.513  0.00  0.00    +0.123 A 
ATOM     18  C   UNL     1       2.673  -1.349  -2.302  0.00  0.00    +0.038 A 
ATOM     19  C   UNL     1       2.026  -0.899  -1.167  0.00  0.00    +0.008 A 
ATOM     20  F   UNL     1       2.635  -1.817  -4.625  0.00  0.00    -0.205 F 
ENDBRANCH  13  14
ENDBRANCH   8  13
ENDBRANCH   1   9
BRANCH   5  21
ATOM     21  C   UNL     1      -5.789  -1.879   4.035  0.00  0.00    +0.022 C 
BRANCH  21  22
ATOM     22  C   UNL     1      -7.152  -2.521   4.056  0.00  0.00    +0.211 A 
ATOM     23  N   UNL     1      -7.391  -3.799   4.128  0.00  0.00    -0.193 NA
ATOM     24  C   UNL     1      -8.717  -4.021   4.125  0.00  0.00    +0.202 A 
ATOM     25  N   UNL     1      -9.334  -2.868   4.049  0.00  0.00    -0.056 NA
ATOM     26  O   UNL     1      -8.323  -1.872   4.008  0.00  0.00    -0.340 OA
BRANCH  24  27
ATOM     27  C   UNL     1      -9.373  -5.351   4.195  0.00  0.00    +0.023 A 
ATOM     28  C   UNL     1      -8.600  -6.508   4.278  0.00  0.00    +0.012 A 
ATOM     29  C   UNL     1      -9.214  -7.742   4.343  0.00  0.00    +0.002 A 
ATOM     30  C   UNL     1     -10.594  -7.832   4.326  0.00  0.00    +0.015 A 
ATOM     31  C   UNL     1     -11.367  -6.687   4.243  0.00  0.00    +0.019 A 
ATOM     32  C   UNL     1     -10.762  -5.447   4.183  0.00  0.00    +0.027 A 
ATOM     33 BR   UNL     1     -13.253  -6.820   4.218  0.00  0.00    -0.050 Br
ENDBRANCH  24  27
ENDBRANCH  21  22
ENDBRANCH   5  21
TORSDOF 6
