REMARK  Name = ZINC05616156
REMARK  8 active torsions:
REMARK  status: ('A' for Active; 'I' for Inactive)
REMARK    1  A    between atoms: C_4  and  C_7
REMARK    2  A    between atoms: C_13  and  C_15
REMARK    3  A    between atoms: C_15  and  C_16
REMARK    4  A    between atoms: N_18  and  C_19
REMARK    5  A    between atoms: N_26  and  C_27
REMARK    6  A    between atoms: N_26  and  C_31
REMARK    7  A    between atoms: C_27  and  C_28
REMARK    8  A    between atoms: C_28  and  C_29
REMARK                            x       y       z     vdW  Elec       q    Type
REMARK                         _______ _______ _______ _____ _____    ______ ____
ROOT
ATOM      1  C   UNL     1       0.130   0.930  -0.002  0.00  0.00    +0.138 C 
ATOM      2  C   UNL     1       0.251  -0.607  -0.001  0.00  0.00    +0.103 C 
ATOM      3  C   UNL     1       1.742  -0.854  -0.010  0.00  0.00    +0.123 C 
ATOM      4  N   UNL     1       2.365   0.270  -0.015  0.00  0.00    -0.166 NA
ATOM      5  N   UNL     1       1.530   1.385  -0.010  0.00  0.00    -0.183 N 
ATOM      6  C   UNL     1       1.937   2.671  -0.014  0.00  0.00    +0.244 C 
ATOM      7  O   UNL     1       1.119   3.567  -0.010  0.00  0.00    -0.273 OA
ATOM      8  N   UNL     1       2.344  -2.099  -0.013  0.00  0.00    -0.286 N 
ENDROOT
BRANCH   8   9
ATOM      9  C   UNL     1       1.562  -3.253   0.100  0.00  0.00    +0.035 A 
ATOM     10  C   UNL     1       0.856  -3.504   1.269  0.00  0.00    +0.025 A 
ATOM     11  C   UNL     1       0.080  -4.641   1.375  0.00  0.00    +0.022 A 
ATOM     12  C   UNL     1       0.017  -5.538   0.323  0.00  0.00    +0.041 A 
ATOM     13  C   UNL     1       0.724  -5.293  -0.841  0.00  0.00    +0.022 A 
ATOM     14  C   UNL     1       1.496  -4.154  -0.956  0.00  0.00    +0.025 A 
ATOM     15 CL   UNL     1      -0.953  -6.971   0.462  0.00  0.00    -0.084 Cl
ENDBRANCH   8   9
BRANCH   1  19
ATOM     16  C   UNL     1      -1.869   2.283   3.523  0.00  0.00    +0.000 A 
ATOM     17  C   UNL     1      -2.562   2.179   2.332  0.00  0.00    +0.000 A 
ATOM     18  C   UNL     1      -1.916   1.742   1.191  0.00  0.00    +0.005 A 
ATOM     19  C   UNL     1      -0.575   1.408   1.242  0.00  0.00    -0.025 A 
ATOM     20  C   UNL     1       0.117   1.506   2.434  0.00  0.00    +0.005 A 
ATOM     21  C   UNL     1      -0.529   1.948   3.574  0.00  0.00    +0.000 A 
ENDBRANCH   1  19
BRANCH   6  22
ATOM     22  C   UNL     1       3.409   2.994  -0.023  0.00  0.00    +0.193 C 
BRANCH  22  23
ATOM     23  C   UNL     1       3.595   4.490  -0.026  0.00  0.00    +0.226 C 
ATOM     24  O   UNL     1       2.627   5.221  -0.021  0.00  0.00    -0.275 OA
ATOM     25  N   UNL     1       4.836   5.015  -0.034  0.00  0.00    -0.285 N 
ATOM     26  H   UNL     1       5.608   4.434  -0.117  0.00  0.00    +0.155 HD
BRANCH  25  27
ATOM     27  C   UNL     1       5.011   6.399   0.078  0.00  0.00    +0.033 A 
ATOM     28  C   UNL     1       6.051   7.025  -0.596  0.00  0.00    +0.025 A 
ATOM     29  C   UNL     1       6.219   8.392  -0.488  0.00  0.00    +0.022 A 
ATOM     30  C   UNL     1       5.358   9.136   0.299  0.00  0.00    +0.041 A 
ATOM     31  C   UNL     1       4.323   8.514   0.975  0.00  0.00    +0.022 A 
ATOM     32  C   UNL     1       4.148   7.148   0.867  0.00  0.00    +0.025 A 
ATOM     33 CL   UNL     1       5.576  10.853   0.438  0.00  0.00    -0.084 Cl
ENDBRANCH  25  27
ENDBRANCH  22  23
ENDBRANCH   6  22
BRANCH   8  34
ATOM     34  C   UNL     1       3.799  -2.209  -0.133  0.00  0.00    +0.127 C 
BRANCH  34  35
ATOM     35  C   UNL     1       4.429  -2.191   1.261  0.00  0.00    +0.138 C 
BRANCH  35  36
ATOM     36  C   UNL     1       5.892  -2.301   1.140  0.00  0.00    +0.064 C 
ATOM     37  N   UNL     1       7.021  -2.386   1.046  0.00  0.00    -0.197 NA
ENDBRANCH  35  36
ENDBRANCH  34  35
ENDBRANCH   8  34
TORSDOF 8
