REMARK  Name = ZINC08573523
REMARK  7 active torsions:
REMARK  status: ('A' for Active; 'I' for Inactive)
REMARK    1  A    between atoms: C_1  and  C_2
REMARK    2  A    between atoms: C_2  and  O_3
REMARK    3  A    between atoms: O_3  and  C_4
REMARK    4  A    between atoms: C_7  and  N_10
REMARK    5  A    between atoms: C_13  and  C_19
REMARK    6  A    between atoms: C_14  and  O_18
REMARK    7  A    between atoms: C_16  and  S_17
REMARK                            x       y       z     vdW  Elec       q    Type
REMARK                         _______ _______ _______ _____ _____    ______ ____
ROOT
ATOM      1  N   UNL     1       5.704  -3.148   3.129  0.00  0.00    -0.256 N 
ATOM      2  C   UNL     1       4.753  -3.707   2.353  0.00  0.00    +0.265 A 
ATOM      3  O   UNL     1       3.708  -4.106   2.842  0.00  0.00    -0.267 OA
ATOM      4  C   UNL     1       4.986  -3.827   0.978  0.00  0.00    +0.070 A 
ATOM      5  C   UNL     1       6.182  -3.357   0.461  0.00  0.00    +0.222 A 
ATOM      6  N   UNL     1       7.087  -2.806   1.275  0.00  0.00    -0.188 NA
ATOM      7  C   UNL     1       6.865  -2.700   2.570  0.00  0.00    +0.177 A 
ENDROOT
BRANCH   4   8
ATOM      8  C   UNL     1       3.953  -4.452   0.076  0.00  0.00    +0.018 C 
ATOM      9  C   UNL     1       2.708  -3.595   0.058  0.00  0.00    +0.011 A 
ATOM     10  C   UNL     1       1.464  -4.108   0.137  0.00  0.00    -0.022 A 
ATOM     11  C   UNL     1       0.527  -2.992   0.094  0.00  0.00    +0.003 A 
ATOM     12  C   UNL     1      -0.865  -2.881   0.136  0.00  0.00    +0.010 A 
ATOM     13  C   UNL     1      -1.451  -1.649   0.071  0.00  0.00    +0.001 A 
ATOM     14  C   UNL     1      -0.674  -0.503  -0.037  0.00  0.00    +0.002 A 
ATOM     15  C   UNL     1       0.700  -0.588  -0.080  0.00  0.00    +0.026 A 
ATOM     16  C   UNL     1       1.319  -1.832  -0.015  0.00  0.00    +0.047 A 
ATOM     17  N   UNL     1       2.637  -2.235  -0.033  0.00  0.00    -0.359 N 
ATOM     18  H   UNL     1       3.401  -1.641  -0.101  0.00  0.00    +0.166 HD
ATOM     19  C   UNL     1       1.171  -5.582   0.245  0.00  0.00    +0.018 C 
ATOM     20  C   UNL     1       2.445  -6.346  -0.143  0.00  0.00    -0.076 C 
ATOM     21  N   UNL     1       3.599  -5.792   0.595  0.00  0.00    +0.388 N 
ATOM     22  H   UNL     1       3.358  -5.715   1.590  0.00  0.00    -0.084 HD
ATOM     23  H   UNL     1       4.403  -6.420   0.484  0.00  0.00    -0.084 HD
ENDBRANCH   4   8
BRANCH   1  27
ATOM     24  C   UNL     1       5.088  -2.771   7.237  0.00  0.00    +0.121 A 
ATOM     25  C   UNL     1       4.690  -1.755   6.380  0.00  0.00    +0.047 A 
ATOM     26  C   UNL     1       4.894  -1.879   5.020  0.00  0.00    +0.030 A 
ATOM     27  C   UNL     1       5.497  -3.021   4.510  0.00  0.00    +0.052 A 
ATOM     28  C   UNL     1       5.890  -4.040   5.368  0.00  0.00    +0.030 A 
ATOM     29  C   UNL     1       5.691  -3.912   6.728  0.00  0.00    +0.047 A 
BRANCH  24  30
ATOM     30  O   UNL     1       4.887  -2.648   8.576  0.00  0.00    -0.492 OA
BRANCH  30  32
ATOM     31  C   UNL     1       5.013  -3.415  10.864  0.00  0.00    +0.048 C 
ATOM     32  C   UNL     1       5.321  -3.732   9.399  0.00  0.00    +0.225 C 
ENDBRANCH  30  32
ENDBRANCH  24  30
ENDBRANCH   1  27
BRANCH   7  33
ATOM     33  S   UNL     1       8.092  -1.966   3.599  0.00  0.00    -0.105 S 
ATOM     34  H   UNL     1       9.075  -1.667   2.633  0.00  0.00    +0.110 HD
ENDBRANCH   7  33
BRANCH   5  35
ATOM     35  O   UNL     1       6.433  -3.455  -0.865  0.00  0.00    -0.492 OA
ATOM     36  H   UNL     1       7.293  -3.099  -1.130  0.00  0.00    +0.294 HD
ENDBRANCH   5  35
TORSDOF 6
