REMARK  Name = ZINC40168095
REMARK  12 active torsions:
REMARK  status: ('A' for Active; 'I' for Inactive)
REMARK    1  A    between atoms: C_1  and  C_2
REMARK    2  A    between atoms: C_5  and  C_8
REMARK    3  A    between atoms: C_9  and  O_19
REMARK    4  A    between atoms: O_19  and  C_20
REMARK    5  A    between atoms: C_20  and  C_22
REMARK    6  A    between atoms: C_20  and  C_23
REMARK    7  A    between atoms: N_25  and  C_26
REMARK    8  A    between atoms: C_27  and  C_33
REMARK    9  A    between atoms: C_28  and  C_32
REMARK   10  A    between atoms: C_29  and  C_31
REMARK   11  A    between atoms: C_33  and  O_35
REMARK   12  A    between atoms: O_35  and  C_36
REMARK                            x       y       z     vdW  Elec       q    Type
REMARK                         _______ _______ _______ _____ _____    ______ ____
ROOT
ATOM      1  C   UNL     1      -0.664  -5.730   0.660  0.00  0.00    +0.181 A 
ATOM      2  C   UNL     1       0.192  -4.697   0.898  0.00  0.00    +0.212 A 
ATOM      3  C   UNL     1       1.122  -4.317  -0.104  0.00  0.00    +0.235 A 
ATOM      4  O   UNL     1       1.904  -3.397   0.072  0.00  0.00    -0.283 OA
ATOM      5  C   UNL     1       1.105  -5.078  -1.368  0.00  0.00    +0.068 A 
ATOM      6  C   UNL     1       1.982  -4.775  -2.408  0.00  0.00    +0.015 A 
ATOM      7  C   UNL     1       1.936  -5.509  -3.572  0.00  0.00    +0.001 A 
ATOM      8  C   UNL     1       1.022  -6.543  -3.711  0.00  0.00    +0.004 A 
ATOM      9  C   UNL     1       0.149  -6.853  -2.691  0.00  0.00    +0.047 A 
ATOM     10  C   UNL     1       0.179  -6.125  -1.507  0.00  0.00    +0.140 A 
ATOM     11  O   UNL     1      -0.663  -6.417  -0.494  0.00  0.00    -0.451 OA
ENDROOT
BRANCH   1  16
ATOM     12  C   UNL     1      -4.408  -7.223   4.764  0.00  0.00    +0.044 C 
ATOM     13  C   UNL     1      -3.427  -6.831   3.689  0.00  0.00    -0.050 A 
ATOM     14  C   UNL     1      -2.095  -6.641   4.009  0.00  0.00    +0.004 A 
ATOM     15  C   UNL     1      -1.191  -6.284   3.030  0.00  0.00    +0.012 A 
ATOM     16  C   UNL     1      -1.625  -6.113   1.713  0.00  0.00    +0.021 A 
ATOM     17  C   UNL     1      -2.972  -6.307   1.397  0.00  0.00    +0.012 A 
ATOM     18  C   UNL     1      -3.863  -6.670   2.386  0.00  0.00    +0.004 A 
ENDBRANCH   1  16
BRANCH   2  19
ATOM     19  O   UNL     1       0.156  -4.035   2.087  0.00  0.00    -0.473 OA
BRANCH  19  20
ATOM     20  C   UNL     1      -0.234  -2.661   2.052  0.00  0.00    +0.256 C 
ATOM     21  C   UNL     1      -1.737  -2.551   2.315  0.00  0.00    +0.062 C 
BRANCH  20  22
ATOM     22  C   UNL     1       0.519  -1.899   3.112  0.00  0.00    +0.258 C 
ATOM     23  O   UNL     1       1.242  -2.490   3.886  0.00  0.00    -0.271 OA
ATOM     24  N   UNL     1       0.389  -0.560   3.200  0.00  0.00    -0.276 N 
ATOM     25  H   UNL     1      -0.246  -0.096   2.632  0.00  0.00    +0.155 HD
BRANCH  24  26
ATOM     26  C   UNL     1       1.162   0.154   4.102  0.00  0.00    +0.086 A 
ATOM     27  C   UNL     1       1.159   1.523   4.332  0.00  0.00    +0.091 A 
ATOM     28  C   UNL     1       2.075   2.009   5.340  0.00  0.00    -0.025 A 
ATOM     29  C   UNL     1       2.831   1.076   5.946  0.00  0.00    -0.008 A 
ATOM     30  S   UNL     1       2.311  -0.439   5.171  0.00  0.00    -0.078 S 
ATOM     31  C   UNL     1       3.866   1.267   7.024  0.00  0.00    +0.052 C 
ATOM     32  C   UNL     1       2.175   3.472   5.690  0.00  0.00    +0.045 C 
BRANCH  27  33
ATOM     33  C   UNL     1       0.276   2.427   3.593  0.00  0.00    +0.342 C 
ATOM     34  O   UNL     1      -0.834   2.677   4.021  0.00  0.00    -0.245 OA
BRANCH  33  35
ATOM     35  O   UNL     1       0.694   2.981   2.437  0.00  0.00    -0.464 OA
ATOM     36  C   UNL     1      -0.220   3.853   1.768  0.00  0.00    +0.280 C 
ENDBRANCH  33  35
ENDBRANCH  27  33
ENDBRANCH  24  26
ENDBRANCH  20  22
ENDBRANCH  19  20
ENDBRANCH   2  19
TORSDOF 7
