REMARK  Name = ZINC13768639
REMARK  9 active torsions:
REMARK  status: ('A' for Active; 'I' for Inactive)
REMARK    1  A    between atoms: C_1  and  C_2
REMARK    2  A    between atoms: C_3  and  C_30
REMARK    3  A    between atoms: C_10  and  C_22
REMARK    4  A    between atoms: C_15  and  O_18
REMARK    5  A    between atoms: O_18  and  C_19
REMARK    6  A    between atoms: C_19  and  C_20
REMARK    7  A    between atoms: C_19  and  C_21
REMARK    8  A    between atoms: C_25  and  O_28
REMARK    9  A    between atoms: O_28  and  C_29
REMARK                            x       y       z     vdW  Elec       q    Type
REMARK                         _______ _______ _______ _____ _____    ______ ____
ROOT
ATOM      1  C   UNL     1      -0.420   1.124  -1.838  0.00  0.00    +0.054 C 
ATOM      2  C   UNL     1      -0.036  -0.137  -1.108  0.00  0.00    +0.016 A 
ATOM      3  C   UNL     1      -0.075  -0.416   0.232  0.00  0.00    +0.083 A 
ATOM      4  N   UNL     1       0.314  -1.605   0.660  0.00  0.00    -0.222 NA
ATOM      5  C   UNL     1       0.742  -2.534  -0.189  0.00  0.00    +0.172 A 
ATOM      6  S   UNL     1       0.587  -1.683  -1.754  0.00  0.00    -0.054 S 
ATOM      7  N   UNL     1       1.172  -3.786   0.062  0.00  0.00    -0.334 N 
ATOM      8  C   UNL     1       2.439  -3.998   0.396  0.00  0.00    +0.055 A 
ATOM      9  C   UNL     1       3.389  -2.946   0.390  0.00  0.00    +0.073 A 
ATOM     10  C   UNL     1       4.677  -3.204   0.739  0.00  0.00    +0.138 A 
ATOM     11  O   UNL     1       5.098  -4.431   1.093  0.00  0.00    -0.455 OA
ATOM     12  C   UNL     1       4.269  -5.498   1.128  0.00  0.00    +0.138 A 
ATOM     13  C   UNL     1       2.916  -5.341   0.793  0.00  0.00    +0.044 A 
ATOM     14  C   UNL     1       2.052  -6.432   0.832  0.00  0.00    +0.059 A 
ATOM     15  C   UNL     1       2.536  -7.672   1.209  0.00  0.00    +0.122 A 
ATOM     16  C   UNL     1       3.876  -7.825   1.547  0.00  0.00    +0.049 A 
ATOM     17  C   UNL     1       4.739  -6.750   1.499  0.00  0.00    +0.050 A 
ATOM     18  H   UNL     1       0.555  -4.533  -0.001  0.00  0.00    +0.168 HD
ENDROOT
BRANCH  10  19
ATOM     19  C   UNL     1       5.650  -2.096   0.727  0.00  0.00    +0.018 A 
ATOM     20  C   UNL     1       5.242  -0.808   0.369  0.00  0.00    +0.015 A 
ATOM     21  C   UNL     1       6.155   0.223   0.360  0.00  0.00    +0.046 A 
ATOM     22  C   UNL     1       7.479  -0.015   0.706  0.00  0.00    +0.120 A 
ATOM     23  C   UNL     1       7.889  -1.294   1.063  0.00  0.00    +0.046 A 
ATOM     24  C   UNL     1       6.982  -2.330   1.081  0.00  0.00    +0.015 A 
BRANCH  22  25
ATOM     25  O   UNL     1       8.376   1.005   0.695  0.00  0.00    -0.495 OA
ATOM     26  C   UNL     1       9.720   0.691   1.062  0.00  0.00    +0.277 C 
ENDBRANCH  22  25
ENDBRANCH  10  19
BRANCH   3  27
ATOM     27  C   UNL     1      -0.548   0.608   1.195  0.00  0.00    +0.001 A 
ATOM     28  C   UNL     1       0.115   0.786   2.408  0.00  0.00    +0.010 A 
ATOM     29  C   UNL     1      -0.330   1.740   3.301  0.00  0.00    +0.001 A 
ATOM     30  C   UNL     1      -1.432   2.518   2.994  0.00  0.00    +0.000 A 
ATOM     31  C   UNL     1      -2.094   2.345   1.792  0.00  0.00    +0.001 A 
ATOM     32  C   UNL     1      -1.654   1.398   0.888  0.00  0.00    +0.010 A 
ENDBRANCH   3  27
BRANCH  15  33
ATOM     33  O   UNL     1       1.700  -8.743   1.249  0.00  0.00    -0.489 OA
BRANCH  33  34
ATOM     34  C   UNL     1       2.280 -10.007   1.576  0.00  0.00    +0.167 C 
ATOM     35  C   UNL     1       2.413 -10.130   3.095  0.00  0.00    +0.051 C 
ATOM     36  C   UNL     1       1.384 -11.131   1.050  0.00  0.00    +0.051 C 
ENDBRANCH  33  34
ENDBRANCH  15  33
TORSDOF 5
