REMARK  Name = ZINC36303697
REMARK  18 active torsions:
REMARK  status: ('A' for Active; 'I' for Inactive)
REMARK    1  A    between atoms: C_1  and  C_2
REMARK    2  A    between atoms: C_3  and  C_21
REMARK    3  A    between atoms: C_4  and  O_13
REMARK    4  A    between atoms: N_5  and  C_7
REMARK    5  A    between atoms: O_13  and  C_14
REMARK    6  A    between atoms: C_21  and  N_22
REMARK    7  A    between atoms: N_22  and  C_23
REMARK    8  A    between atoms: N_22  and  C_33
REMARK    9  A    between atoms: C_23  and  C_24
REMARK   10  A    between atoms: C_24  and  C_26
REMARK   11  A    between atoms: C_24  and  O_32
REMARK   12  A    between atoms: C_26  and  O_27
REMARK   13  A    between atoms: O_27  and  C_28
REMARK   14  A    between atoms: C_28  and  C_29
REMARK   15  A    between atoms: C_29  and  C_30
REMARK   16  A    between atoms: C_29  and  C_31
REMARK   17  A    between atoms: C_33  and  C_34
REMARK   18  A    between atoms: C_33  and  C_35
REMARK                            x       y       z     vdW  Elec       q    Type
REMARK                         _______ _______ _______ _____ _____    ______ ____
ROOT
ATOM      1  C   UNL     1       2.499   2.915  -0.692  0.00  0.00    +0.068 C 
ATOM      2  C   UNL     1       1.644   1.760  -0.241  0.00  0.00    +0.065 A 
ATOM      3  C   UNL     1       0.960   0.873  -1.079  0.00  0.00    +0.021 A 
ATOM      4  C   UNL     1       0.307  -0.024  -0.293  0.00  0.00    +0.225 A 
ATOM      5  N   UNL     1       0.576   0.294   1.002  0.00  0.00    -0.200 N 
ATOM      6  N   UNL     1       1.419   1.413   1.001  0.00  0.00    -0.168 NA
ENDROOT
BRANCH   5   7
ATOM      7  C   UNL     1       0.098  -0.379   2.134  0.00  0.00    +0.069 A 
ATOM      8  C   UNL     1      -1.218  -0.821   2.177  0.00  0.00    +0.028 A 
ATOM      9  C   UNL     1      -1.686  -1.484   3.295  0.00  0.00    +0.002 A 
ATOM     10  C   UNL     1      -0.846  -1.708   4.370  0.00  0.00    +0.000 A 
ATOM     11  C   UNL     1       0.465  -1.269   4.330  0.00  0.00    +0.002 A 
ATOM     12  C   UNL     1       0.941  -0.610   3.213  0.00  0.00    +0.028 A 
ENDBRANCH   5   7
BRANCH   4  13
ATOM     13  O   UNL     1      -0.472  -1.050  -0.722  0.00  0.00    -0.438 OA
BRANCH  13  14
ATOM     14  C   UNL     1      -1.778  -0.790  -0.991  0.00  0.00    +0.130 A 
ATOM     15  C   UNL     1      -2.296   0.476  -0.760  0.00  0.00    +0.048 A 
ATOM     16  C   UNL     1      -3.624   0.739  -1.034  0.00  0.00    +0.023 A 
ATOM     17  C   UNL     1      -4.438  -0.261  -1.538  0.00  0.00    +0.041 A 
ATOM     18  C   UNL     1      -3.924  -1.524  -1.769  0.00  0.00    +0.023 A 
ATOM     19  C   UNL     1      -2.595  -1.789  -1.501  0.00  0.00    +0.048 A 
ATOM     20 CL   UNL     1      -6.107   0.072  -1.882  0.00  0.00    -0.084 Cl
ENDBRANCH  13  14
ENDBRANCH   4  13
BRANCH   3  21
ATOM     21  C   UNL     1       0.949   0.906  -2.585  0.00  0.00    -0.035 C 
BRANCH  21  22
ATOM     22  N   UNL     1       2.313   0.696  -3.090  0.00  0.00    +0.386 N 
ATOM     23  H   UNL     1       2.947   1.320  -2.614  0.00  0.00    -0.081 HD
BRANCH  22  24
ATOM     24  C   UNL     1       2.717  -0.695  -2.842  0.00  0.00    -0.074 C 
ATOM     25  C   UNL     1       2.868  -0.922  -1.337  0.00  0.00    -0.014 C 
ATOM     26  C   UNL     1       1.651  -1.642  -3.397  0.00  0.00    -0.014 C 
ENDBRANCH  22  24
BRANCH  22  27
ATOM     27  C   UNL     1       2.348   0.967  -4.533  0.00  0.00    -0.044 C 
BRANCH  27  28
ATOM     28  C   UNL     1       3.798   0.940  -5.021  0.00  0.00    +0.124 C 
BRANCH  28  29
ATOM     29  O   UNL     1       4.305  -0.393  -4.937  0.00  0.00    -0.391 OA
ATOM     30  H   UNL     1       3.865  -1.019  -5.528  0.00  0.00    +0.210 HD
ENDBRANCH  28  29
BRANCH  28  31
ATOM     31  C   UNL     1       3.856   1.416  -6.474  0.00  0.00    +0.189 C 
BRANCH  31  32
ATOM     32  O   UNL     1       5.219   1.502  -6.894  0.00  0.00    -0.377 OA
BRANCH  32  33
ATOM     33  C   UNL     1       5.385   1.941  -8.243  0.00  0.00    +0.163 C 
BRANCH  33  34
ATOM     34  C   UNL     1       6.876   1.995  -8.582  0.00  0.00    +0.009 C 
ATOM     35  C   UNL     1       7.461   0.582  -8.540  0.00  0.00    +0.009 C 
ATOM     36  C   UNL     1       7.060   2.582  -9.983  0.00  0.00    +0.009 C 
ENDBRANCH  33  34
ENDBRANCH  32  33
ENDBRANCH  31  32
ENDBRANCH  28  31
ENDBRANCH  27  28
ENDBRANCH  22  27
ENDBRANCH  21  22
ENDBRANCH   3  21
TORSDOF 13
