REMARK  Name = ZINC40945476
REMARK  9 active torsions:
REMARK  status: ('A' for Active; 'I' for Inactive)
REMARK    1  A    between atoms: C_3  and  C_8
REMARK    2  A    between atoms: C_9  and  C_10
REMARK    3  A    between atoms: C_10  and  O_12
REMARK    4  A    between atoms: O_12  and  C_13
REMARK    5  A    between atoms: C_16  and  C_19
REMARK    6  A    between atoms: C_20  and  C_21
REMARK    7  A    between atoms: C_20  and  C_23
REMARK    8  A    between atoms: N_25  and  C_26
REMARK    9  A    between atoms: C_26  and  C_27
REMARK                            x       y       z     vdW  Elec       q    Type
REMARK                         _______ _______ _______ _____ _____    ______ ____
ROOT
ATOM      1  C   UNL     1       8.284   2.660  -0.759  0.00  0.00    +0.132 A 
ATOM      2  C   UNL     1       8.471   4.038  -0.723  0.00  0.00    +0.047 A 
ATOM      3  C   UNL     1       9.729   4.557  -0.553  0.00  0.00    +0.011 A 
ATOM      4  C   UNL     1      10.827   3.696  -0.415  0.00  0.00    -0.023 A 
ATOM      5  C   UNL     1      10.632   2.308  -0.452  0.00  0.00    +0.011 A 
ATOM      6  C   UNL     1       9.369   1.801  -0.617  0.00  0.00    +0.047 A 
ENDROOT
BRANCH   4   7
ATOM      7  C   UNL     1      12.173   4.245  -0.233  0.00  0.00    +0.032 C 
ATOM      8  C   UNL     1      12.352   5.406   0.485  0.00  0.00    +0.114 C 
BRANCH   8   9
ATOM      9  C   UNL     1      13.676   6.048   0.528  0.00  0.00    +0.255 C 
ATOM     10  O   UNL     1      14.611   5.553  -0.071  0.00  0.00    -0.269 OA
ATOM     11  N   UNL     1      13.851   7.184   1.231  0.00  0.00    -0.304 N 
ATOM     12  H   UNL     1      13.105   7.579   1.709  0.00  0.00    +0.149 HD
BRANCH  11  13
ATOM     13  C   UNL     1      15.169   7.823   1.274  0.00  0.00    +0.179 C 
BRANCH  13  14
ATOM     14  C   UNL     1      15.097   9.068   2.120  0.00  0.00    +0.122 A 
ATOM     15  C   UNL     1      15.320   9.132   3.445  0.00  0.00    +0.046 A 
ATOM     16  C   UNL     1      15.146  10.483   3.825  0.00  0.00    +0.041 A 
ATOM     17  C   UNL     1      14.826  11.163   2.710  0.00  0.00    +0.195 A 
ATOM     18  O   UNL     1      14.804  10.302   1.679  0.00  0.00    -0.466 OA
ENDBRANCH  13  14
ENDBRANCH  11  13
ENDBRANCH   8   9
BRANCH   8  19
ATOM     19  C   UNL     1      11.251   5.989   1.191  0.00  0.00    +0.104 C 
ATOM     20  N   UNL     1      10.377   6.451   1.751  0.00  0.00    -0.191 NA
ENDBRANCH   8  19
ENDBRANCH   4   7
BRANCH   1  21
ATOM     21  O   UNL     1       7.037   2.152  -0.927  0.00  0.00    -0.423 OA
BRANCH  21  22
ATOM     22  C   UNL     1       6.505   2.177  -2.167  0.00  0.00    +0.337 C 
ATOM     23  O   UNL     1       7.102   2.725  -3.074  0.00  0.00    -0.245 OA
BRANCH  22  25
ATOM     24  C   UNL     1       4.679   1.570  -3.660  0.00  0.00    +0.015 C 
ATOM     25  C   UNL     1       5.211   1.545  -2.420  0.00  0.00    +0.092 C 
BRANCH  24  28
ATOM     26  C   UNL     1       1.601   0.359  -5.430  0.00  0.00    +0.002 A 
ATOM     27  C   UNL     1       2.822   0.958  -5.199  0.00  0.00    +0.008 A 
ATOM     28  C   UNL     1       3.377   0.934  -3.915  0.00  0.00    -0.023 A 
ATOM     29  C   UNL     1       2.688   0.302  -2.875  0.00  0.00    +0.028 A 
ATOM     30  C   UNL     1       1.467  -0.293  -3.122  0.00  0.00    +0.042 A 
ATOM     31  C   UNL     1       0.925  -0.265  -4.396  0.00  0.00    +0.020 A 
ATOM     32 CL   UNL     1       0.609  -1.078  -1.833  0.00  0.00    -0.084 Cl
ENDBRANCH  24  28
ENDBRANCH  22  25
ENDBRANCH  21  22
ENDBRANCH   1  21
TORSDOF 9
