REMARK  Name = ZINC20715839
REMARK  9 active torsions:
REMARK  status: ('A' for Active; 'I' for Inactive)
REMARK    1  A    between atoms: C_1  and  O_2
REMARK    2  A    between atoms: O_2  and  C_3
REMARK    3  A    between atoms: C_3  and  C_5
REMARK    4  A    between atoms: C_5  and  C_7
REMARK    5  A    between atoms: C_5  and  N_11
REMARK    6  A    between atoms: C_7  and  C_8
REMARK    7  A    between atoms: C_8  and  S_9
REMARK    8  A    between atoms: S_9  and  C_10
REMARK    9  A    between atoms: C_23  and  C_25
REMARK                            x       y       z     vdW  Elec       q    Type
REMARK                         _______ _______ _______ _____ _____    ______ ____
ROOT
ATOM      1  N   UNL     1      -0.351  -2.331  -3.407  0.00  0.00    -0.286 N 
ATOM      2  C   UNL     1       0.940  -2.703  -3.508  0.00  0.00    +0.304 C 
ATOM      3  O   UNL     1       1.675  -2.619  -2.543  0.00  0.00    -0.253 OA
ATOM      4  N   UNL     1       1.417  -3.170  -4.680  0.00  0.00    -0.273 N 
ATOM      5  C   UNL     1       2.789  -3.688  -4.781  0.00  0.00    +0.116 C 
ATOM      6  C   UNL     1       2.736  -5.183  -5.125  0.00  0.00    +0.074 C 
ATOM      7  C   UNL     1       1.726  -5.393  -6.223  0.00  0.00    +0.040 A 
ATOM      8  C   UNL     1       0.764  -4.510  -6.565  0.00  0.00    +0.062 A 
ATOM      9  N   UNL     1       0.059  -5.032  -7.570  0.00  0.00    -0.348 N 
ATOM     10  C   UNL     1       0.548  -6.208  -7.870  0.00  0.00    +0.171 A 
ATOM     11  N   UNL     1       1.592  -6.467  -7.050  0.00  0.00    -0.349 N 
ATOM     12  H   UNL     1       2.141  -7.266  -7.051  0.00  0.00    +0.166 HD
ATOM     13  C   UNL     1       0.573  -3.177  -5.888  0.00  0.00    +0.159 C 
ATOM     14  H   UNL     1      -0.919  -2.329  -4.193  0.00  0.00    +0.151 HD
ATOM     15  H   UNL     1      -0.696  -4.609  -8.008  0.00  0.00    +0.167 HD
ENDROOT
BRANCH  13  16
ATOM     16  C   UNL     1       0.998  -2.070  -6.817  0.00  0.00    +0.014 A 
ATOM     17  C   UNL     1       1.183  -2.329  -8.162  0.00  0.00    +0.011 A 
ATOM     18  C   UNL     1       1.573  -1.314  -9.016  0.00  0.00    +0.039 A 
ATOM     19  C   UNL     1       1.779  -0.036  -8.524  0.00  0.00    +0.126 A 
ATOM     20  C   UNL     1       1.593   0.225  -7.177  0.00  0.00    +0.077 A 
ATOM     21  C   UNL     1       1.198  -0.791  -6.324  0.00  0.00    +0.131 A 
ATOM     22  F   UNL     1       1.011  -0.537  -5.011  0.00  0.00    -0.205 F 
ATOM     23  F   UNL     1       2.160   0.956  -9.358  0.00  0.00    -0.205 F 
ENDBRANCH  13  16
BRANCH   1  24
ATOM     24  C   UNL     1      -0.898  -1.928  -2.108  0.00  0.00    +0.184 C 
BRANCH  24  25
ATOM     25  C   UNL     1      -1.341  -3.151  -1.349  0.00  0.00    +0.327 C 
ATOM     26  O   UNL     1      -1.214  -4.247  -1.841  0.00  0.00    -0.249 OA
BRANCH  25  28
ATOM     27  C   UNL     1      -2.276  -4.226   0.537  0.00  0.00    +0.280 C 
ATOM     28  O   UNL     1      -1.878  -3.024  -0.125  0.00  0.00    -0.467 OA
ENDBRANCH  25  28
ENDBRANCH  24  25
BRANCH  24  29
ATOM     29  C   UNL     1      -2.095  -1.000  -2.325  0.00  0.00    +0.044 C 
BRANCH  29  30
ATOM     30  C   UNL     1      -1.622   0.297  -2.985  0.00  0.00    +0.071 C 
BRANCH  30  31
ATOM     31  S   UNL     1      -3.041   1.397  -3.241  0.00  0.00    -0.164 S 
ATOM     32  C   UNL     1      -2.321   2.869  -4.021  0.00  0.00    +0.084 C 
ENDBRANCH  30  31
ENDBRANCH  29  30
ENDBRANCH  24  29
ENDBRANCH   1  24
TORSDOF 7
