REMARK  Name = ZINC14959724
REMARK  6 active torsions:
REMARK  status: ('A' for Active; 'I' for Inactive)
REMARK    1  A    between atoms: C_8  and  C_22
REMARK    2  A    between atoms: N_9  and  C_10
REMARK    3  A    between atoms: C_10  and  C_11
REMARK    4  A    between atoms: C_13  and  C_16
REMARK    5  A    between atoms: N_24  and  C_25
REMARK    6  A    between atoms: N_27  and  C_29
REMARK                            x       y       z     vdW  Elec       q    Type
REMARK                         _______ _______ _______ _____ _____    ______ ____
ROOT
ATOM      1  C   UNL     1      -9.341  10.179  -0.710  0.00  0.00    +0.001 A 
ATOM      2  C   UNL     1      -8.607  10.014  -1.877  0.00  0.00    +0.002 A 
ATOM      3  C   UNL     1      -7.631   9.046  -1.962  0.00  0.00    +0.026 A 
ATOM      4  C   UNL     1      -7.377   8.222  -0.869  0.00  0.00    +0.050 A 
ATOM      5  C   UNL     1      -8.123   8.391   0.314  0.00  0.00    +0.001 A 
ATOM      6  C   UNL     1      -9.110   9.384   0.375  0.00  0.00    +0.010 A 
ATOM      7  C   UNL     1      -7.656   7.426   1.238  0.00  0.00    +0.041 A 
ATOM      8  C   UNL     1      -6.667   6.718   0.633  0.00  0.00    +0.106 A 
ATOM      9  N   UNL     1      -6.491   7.193  -0.652  0.00  0.00    -0.330 N 
ENDROOT
BRANCH   8  10
ATOM     10  C   UNL     1      -5.910   5.617   1.246  0.00  0.00    +0.261 C 
ATOM     11  O   UNL     1      -4.971   5.120   0.652  0.00  0.00    -0.269 OA
ATOM     12  N   UNL     1      -6.255   5.158   2.465  0.00  0.00    -0.304 N 
ATOM     13  H   UNL     1      -7.047   5.503   2.907  0.00  0.00    +0.149 HD
BRANCH  12  14
ATOM     14  C   UNL     1      -5.435   4.137   3.123  0.00  0.00    +0.108 C 
ATOM     15  C   UNL     1      -5.543   4.135   4.654  0.00  0.00    +0.129 C 
ATOM     16  N   UNL     1      -6.699   3.230   4.518  0.00  0.00    -0.326 N 
ATOM     17  C   UNL     1      -6.116   2.767   3.245  0.00  0.00    +0.129 C 
BRANCH  16  18
ATOM     18  C   UNL     1      -6.661   2.224   5.479  0.00  0.00    +0.033 A 
ATOM     19  C   UNL     1      -6.212   2.488   6.773  0.00  0.00    +0.040 A 
ATOM     20  C   UNL     1      -6.185   1.463   7.695  0.00  0.00    +0.084 A 
ATOM     21  C   UNL     1      -7.022  -0.040   6.156  0.00  0.00    +0.084 A 
ATOM     22  C   UNL     1      -7.076   0.928   5.175  0.00  0.00    +0.040 A 
ATOM     23  N   UNL     1      -6.584   0.190   7.424  0.00  0.00    -0.367 N 
ATOM     24  H   UNL     1      -6.556  -0.552   8.133  0.00  0.00    +0.165 HD
ENDBRANCH  16  18
ENDBRANCH  12  14
ENDBRANCH   8  10
BRANCH   9  25
ATOM     25  C   UNL     1      -5.521   6.684  -1.624  0.00  0.00    +0.181 C 
BRANCH  25  26
ATOM     26  C   UNL     1      -6.123   5.525  -2.376  0.00  0.00    +0.104 A 
ATOM     27  C   UNL     1      -6.243   5.401  -3.773  0.00  0.00    +0.078 A 
ATOM     28  C   UNL     1      -6.850   4.181  -3.944  0.00  0.00    +0.174 A 
ATOM     29  O   UNL     1      -7.043   3.685  -2.707  0.00  0.00    -0.354 OA
ATOM     30  N   UNL     1      -6.629   4.441  -1.859  0.00  0.00    -0.081 NA
BRANCH  28  31
ATOM     31  C   UNL     1      -7.217   3.547  -5.218  0.00  0.00    +0.058 A 
ATOM     32  C   UNL     1      -7.822   2.324  -5.440  0.00  0.00    +0.021 A 
ATOM     33  C   UNL     1      -8.071   1.943  -6.738  0.00  0.00    +0.028 A 
ATOM     34  C   UNL     1      -7.707   2.770  -7.755  0.00  0.00    +0.079 A 
ATOM     35  S   UNL     1      -6.989   4.152  -6.882  0.00  0.00    -0.074 S 
ATOM     36 CL   UNL     1      -7.892   2.539  -9.465  0.00  0.00    -0.076 Cl
ENDBRANCH  28  31
ENDBRANCH  25  26
ENDBRANCH   9  25
TORSDOF 6
