REMARK  Name = ZINC13471646
REMARK  10 active torsions:
REMARK  status: ('A' for Active; 'I' for Inactive)
REMARK    1  A    between atoms: C_1  and  C_2
REMARK    2  A    between atoms: C_2  and  O_3
REMARK    3  A    between atoms: O_3  and  C_4
REMARK    4  A    between atoms: C_6  and  C_15
REMARK    5  A    between atoms: C_9  and  O_10
REMARK    6  A    between atoms: O_10  and  C_11
REMARK    7  A    between atoms: C_11  and  C_12
REMARK    8  A    between atoms: C_17  and  C_24
REMARK    9  A    between atoms: C_18  and  C_23
REMARK   10  A    between atoms: N_26  and  C_27
REMARK                            x       y       z     vdW  Elec       q    Type
REMARK                         _______ _______ _______ _____ _____    ______ ____
ROOT
ATOM      1  C   UNL     1       0.865  -0.308   0.018  0.00  0.00    +0.142 C 
ATOM      2  C   UNL     1       0.984  -0.815  -1.405  0.00  0.00    +0.056 C 
ATOM      3  C   UNL     1       2.095  -1.505  -1.735  0.00  0.00    +0.019 C 
ATOM      4  N   UNL     1       3.079  -1.739  -0.816  0.00  0.00    -0.273 N 
ATOM      5  C   UNL     1       3.026  -1.315   0.453  0.00  0.00    +0.304 C 
ATOM      6  O   UNL     1       3.952  -1.571   1.198  0.00  0.00    -0.252 OA
ATOM      7  N   UNL     1       1.979  -0.613   0.931  0.00  0.00    -0.288 N 
ATOM      8  C   UNL     1       2.254  -2.027  -3.140  0.00  0.00    +0.061 C 
ATOM      9  H   UNL     1       3.860  -2.240  -1.099  0.00  0.00    +0.156 HD
ATOM     10  H   UNL     1       1.961  -0.315   1.853  0.00  0.00    +0.151 HD
ENDROOT
BRANCH   1  13
ATOM     11  C   UNL     1      -0.668   3.140   0.218  0.00  0.00    +0.164 A 
ATOM     12  C   UNL     1      -0.519   1.762   0.260  0.00  0.00    +0.055 A 
ATOM     13  C   UNL     1       0.704   1.190  -0.035  0.00  0.00    -0.017 A 
ATOM     14  C   UNL     1       1.778   1.987  -0.383  0.00  0.00    +0.029 A 
ATOM     15  C   UNL     1       1.635   3.362  -0.431  0.00  0.00    +0.087 A 
ATOM     16  C   UNL     1       0.412   3.943  -0.132  0.00  0.00    +0.182 A 
ATOM     17 CL   UNL     1       2.986   4.361  -0.869  0.00  0.00    -0.080 Cl
BRANCH  11  18
ATOM     18  O   UNL     1      -1.870   3.704   0.512  0.00  0.00    -0.489 OA
BRANCH  18  20
ATOM     19  C   UNL     1      -4.197   3.630   1.161  0.00  0.00    +0.048 C 
ATOM     20  C   UNL     1      -2.924   2.821   0.903  0.00  0.00    +0.226 C 
ENDBRANCH  18  20
ENDBRANCH  11  18
BRANCH  16  21
ATOM     21  O   UNL     1       0.270   5.295  -0.178  0.00  0.00    -0.474 OA
BRANCH  21  22
ATOM     22  C   UNL     1      -0.136   5.862  -1.426  0.00  0.00    +0.317 C 
BRANCH  22  23
ATOM     23  C   UNL     1      -0.238   7.324  -1.291  0.00  0.00    -0.065 C 
ATOM     24  C   UNL     1      -0.319   8.490  -1.183  0.00  0.00    +0.007 C 
ENDBRANCH  22  23
ENDBRANCH  21  22
ENDBRANCH  16  21
ENDBRANCH   1  13
BRANCH   2  25
ATOM     25  C   UNL     1      -0.037  -0.572  -2.357  0.00  0.00    +0.248 C 
ATOM     26  O   UNL     1      -0.984  -1.332  -2.442  0.00  0.00    -0.270 OA
ATOM     27  N   UNL     1       0.041   0.501  -3.169  0.00  0.00    -0.282 N 
ATOM     28  H   UNL     1       0.724   1.173  -3.021  0.00  0.00    +0.155 HD
BRANCH  27  29
ATOM     29  C   UNL     1      -0.865   0.645  -4.225  0.00  0.00    +0.034 A 
ATOM     30  C   UNL     1      -2.111   0.034  -4.162  0.00  0.00    +0.023 A 
ATOM     31  C   UNL     1      -3.004   0.183  -5.205  0.00  0.00    +0.002 A 
ATOM     32  C   UNL     1      -2.656   0.930  -6.315  0.00  0.00    +0.000 A 
ATOM     33  C   UNL     1      -1.414   1.536  -6.383  0.00  0.00    +0.002 A 
ATOM     34  C   UNL     1      -0.518   1.395  -5.341  0.00  0.00    +0.023 A 
ENDBRANCH  27  29
ENDBRANCH   2  25
TORSDOF 8
