REMARK  Name = ZINC21221663
REMARK  5 active torsions:
REMARK  status: ('A' for Active; 'I' for Inactive)
REMARK    1  A    between atoms: C_1  and  C_2
REMARK    2  A    between atoms: C_2  and  C_3
REMARK    3  A    between atoms: C_6  and  C_9
REMARK    4  A    between atoms: C_14  and  C_24
REMARK    5  A    between atoms: C_28  and  O_30
REMARK                            x       y       z     vdW  Elec       q    Type
REMARK                         _______ _______ _______ _____ _____    ______ ____
ROOT
ATOM      1  C   UNL     1      -2.891   3.238  -3.827  0.00  0.00    +0.032 C 
ATOM      2  C   UNL     1      -3.229   1.809  -3.404  0.00  0.00    +0.059 C 
ATOM      3  C   UNL     1      -2.865   1.601  -1.943  0.00  0.00    +0.017 C 
ATOM      4  C   UNL     1      -1.818   2.246  -1.404  0.00  0.00    +0.036 C 
ATOM      5  C   UNL     1      -1.332   2.114   0.020  0.00  0.00    +0.136 C 
ATOM      6  N   UNL     1      -2.243   1.413   0.901  0.00  0.00    -0.331 N 
ATOM      7  C   UNL     1      -2.545   0.066   0.701  0.00  0.00    +0.049 A 
ATOM      8  C   UNL     1      -2.128  -0.908   1.594  0.00  0.00    +0.025 A 
ATOM      9  C   UNL     1      -2.355  -2.241   1.300  0.00  0.00    +0.002 A 
ATOM     10  C   UNL     1      -2.992  -2.601   0.126  0.00  0.00    +0.002 A 
ATOM     11  C   UNL     1      -3.428  -1.628  -0.758  0.00  0.00    +0.025 A 
ATOM     12  C   UNL     1      -3.218  -0.294  -0.456  0.00  0.00    +0.052 A 
ATOM     13  N   UNL     1      -3.669   0.733  -1.277  0.00  0.00    -0.316 N 
ATOM     14  C   UNL     1      -1.058   3.149  -2.185  0.00  0.00    +0.163 C 
ATOM     15  O   UNL     1      -0.106   3.707  -1.675  0.00  0.00    -0.292 OA
ATOM     16  C   UNL     1      -1.386   3.442  -3.618  0.00  0.00    +0.088 C 
ATOM     17  H   UNL     1      -2.709   1.943   1.744  0.00  0.00    +0.147 HD
ATOM     18  H   UNL     1      -4.762   0.816  -1.368  0.00  0.00    +0.152 HD
ENDROOT
BRANCH   1  22
ATOM     19  C   UNL     1      -3.876   3.801  -7.945  0.00  0.00    -0.048 A 
ATOM     20  C   UNL     1      -4.479   4.582  -6.977  0.00  0.00    +0.004 A 
ATOM     21  C   UNL     1      -4.161   4.400  -5.644  0.00  0.00    +0.004 A 
ATOM     22  C   UNL     1      -3.239   3.436  -5.279  0.00  0.00    -0.043 A 
ATOM     23  C   UNL     1      -2.631   2.659  -6.248  0.00  0.00    +0.004 A 
ATOM     24  C   UNL     1      -2.953   2.838  -7.580  0.00  0.00    +0.004 A 
BRANCH  19  26
ATOM     25  C   UNL     1      -3.280   5.037 -10.011  0.00  0.00    +0.009 C 
ATOM     26  C   UNL     1      -4.223   4.000  -9.398  0.00  0.00    +0.032 C 
ENDBRANCH  19  26
ENDBRANCH   1  22
BRANCH   5  27
ATOM     27  C   UNL     1      -0.017   1.379   0.010  0.00  0.00    -0.019 A 
ATOM     28  C   UNL     1       0.041   0.072  -0.441  0.00  0.00    +0.006 A 
ATOM     29  C   UNL     1       1.248  -0.603  -0.456  0.00  0.00    +0.004 A 
ATOM     30  C   UNL     1       2.398   0.026  -0.022  0.00  0.00    +0.045 A 
ATOM     31  C   UNL     1       2.343   1.337   0.430  0.00  0.00    +0.117 A 
ATOM     32  C   UNL     1       1.131   2.012   0.445  0.00  0.00    +0.051 A 
BRANCH  31  33
ATOM     33  O   UNL     1       3.474   1.957   0.858  0.00  0.00    -0.507 OA
ATOM     34  H   UNL     1       3.429   2.997   1.216  0.00  0.00    +0.292 HD
ENDBRANCH  31  33
ENDBRANCH   5  27
TORSDOF 4
