REMARK  Name = ZINC64342686
REMARK  6 active torsions:
REMARK  status: ('A' for Active; 'I' for Inactive)
REMARK    1  A    between atoms: C_1  and  C_2
REMARK    2  A    between atoms: C_5  and  C_7
REMARK    3  A    between atoms: C_8  and  C_9
REMARK    4  A    between atoms: N_11  and  C_12
REMARK    5  A    between atoms: C_15  and  C_18
REMARK    6  A    between atoms: C_24  and  C_26
REMARK                            x       y       z     vdW  Elec       q    Type
REMARK                         _______ _______ _______ _____ _____    ______ ____
ROOT
ATOM      1  C   UNL     1       4.786  -6.829  -0.149  0.00  0.00    +0.034 A 
ATOM      2  C   UNL     1       3.903  -7.899  -0.253  0.00  0.00    +0.024 A 
ATOM      3  C   UNL     1       4.385  -9.184  -0.351  0.00  0.00    +0.013 A 
ATOM      4  C   UNL     1       5.764  -9.414  -0.348  0.00  0.00    +0.017 A 
ATOM      5  C   UNL     1       6.649  -8.337  -0.243  0.00  0.00    +0.013 A 
ATOM      6  C   UNL     1       6.160  -7.053  -0.151  0.00  0.00    +0.024 A 
ENDROOT
BRANCH   4   7
ATOM      7  C   UNL     1       6.284 -10.791  -0.453  0.00  0.00    +0.141 A 
ATOM      8  N   UNL     1       7.632 -11.000  -0.442  0.00  0.00    -0.307 N 
ATOM      9  H   UNL     1       8.241 -10.249  -0.365  0.00  0.00    +0.170 HD
ATOM     10  C   UNL     1       8.114 -12.258  -0.538  0.00  0.00    +0.252 A 
ATOM     11  O   UNL     1       9.316 -12.465  -0.529  0.00  0.00    -0.268 OA
ATOM     12  C   UNL     1       7.202 -13.326  -0.647  0.00  0.00    +0.093 A 
ATOM     13  C   UNL     1       5.866 -13.054  -0.652  0.00  0.00    +0.046 A 
ATOM     14  N   UNL     1       5.439 -11.797  -0.550  0.00  0.00    -0.234 NA
ATOM     15  C   UNL     1       4.870 -14.179  -0.768  0.00  0.00    +0.066 C 
ENDBRANCH   4   7
BRANCH   1  18
ATOM     16  C   UNL     1       4.958  -4.511  -0.633  0.00  0.00    +0.241 C 
ATOM     17  O   UNL     1       6.029  -4.714  -1.176  0.00  0.00    -0.270 OA
ATOM     18  N   UNL     1       4.295  -5.529  -0.050  0.00  0.00    -0.282 N 
ATOM     19  H   UNL     1       3.475  -5.356   0.440  0.00  0.00    +0.155 HD
BRANCH  16  21
ATOM     20  C   UNL     1       5.078  -2.182  -1.203  0.00  0.00    +0.020 C 
ATOM     21  C   UNL     1       4.410  -3.207  -0.615  0.00  0.00    +0.068 C 
BRANCH  20  26
ATOM     22  C   UNL     1       2.108   2.408  -0.568  0.00  0.00    +0.051 C 
ATOM     23  C   UNL     1       3.099   1.315  -0.875  0.00  0.00    -0.013 A 
ATOM     24  C   UNL     1       4.275   1.421  -1.542  0.00  0.00    +0.011 A 
ATOM     25  C   UNL     1       5.045   0.297  -1.721  0.00  0.00    +0.016 A 
ATOM     26  C   UNL     1       4.530  -0.877  -1.185  0.00  0.00    +0.013 A 
ATOM     27  S   UNL     1       3.002  -0.310  -0.462  0.00  0.00    -0.094 S 
ENDBRANCH  20  26
ENDBRANCH  16  21
ENDBRANCH   1  18
TORSDOF 4
