REMARK  Name = ZINC63385968
REMARK  11 active torsions:
REMARK  status: ('A' for Active; 'I' for Inactive)
REMARK    1  A    between atoms: C_1  and  C_2
REMARK    2  A    between atoms: C_7  and  O_32
REMARK    3  A    between atoms: C_13  and  C_15
REMARK    4  A    between atoms: C_15  and  C_16
REMARK    5  A    between atoms: N_18  and  C_19
REMARK    6  A    between atoms: C_19  and  C_21
REMARK    7  A    between atoms: C_19  and  C_22
REMARK    8  A    between atoms: C_22  and  C_23
REMARK    9  A    between atoms: O_32  and  C_33
REMARK   10  A    between atoms: C_33  and  C_34
REMARK   11  A    between atoms: C_34  and  C_36
REMARK                            x       y       z     vdW  Elec       q    Type
REMARK                         _______ _______ _______ _____ _____    ______ ____
ROOT
ATOM      1  C   UNL     1       1.114  -1.984   1.061  0.00  0.00    +0.111 C 
ENDROOT
BRANCH   1  13
ATOM      2  C   UNL     1      -0.019   1.526   0.010  0.00  0.00    +0.013 C 
ATOM      3  C   UNL     1       0.002  -0.004   0.002  0.00  0.00    +0.034 C 
ATOM      4  C   UNL     1      -1.413  -0.524   0.009  0.00  0.00    -0.001 A 
ATOM      5  C   UNL     1      -2.113  -0.549  -1.188  0.00  0.00    +0.011 A 
ATOM      6  C   UNL     1      -3.412  -1.010  -1.229  0.00  0.00    +0.046 A 
ATOM      7  C   UNL     1      -4.028  -1.453  -0.067  0.00  0.00    +0.124 A 
ATOM      8  C   UNL     1      -3.332  -1.432   1.131  0.00  0.00    +0.092 A 
ATOM      9  C   UNL     1      -2.021  -0.971   1.169  0.00  0.00    +0.139 A 
ATOM     10  O   UNL     1      -1.367  -0.986   2.362  0.00  0.00    -0.425 OA
ATOM     11  C   UNL     1      -0.179  -0.353   2.429  0.00  0.00    +0.316 C 
ATOM     12  O   UNL     1       0.133   0.308   3.392  0.00  0.00    -0.250 OA
ATOM     13  C   UNL     1       0.747  -0.510   1.241  0.00  0.00    +0.114 C 
BRANCH   7  14
ATOM     14  O   UNL     1      -5.309  -1.904  -0.103  0.00  0.00    -0.488 OA
BRANCH  14  15
ATOM     15  C   UNL     1      -5.965  -1.895  -1.373  0.00  0.00    +0.259 C 
BRANCH  15  16
ATOM     16  C   UNL     1      -7.367  -2.426  -1.218  0.00  0.00    -0.043 C 
ATOM     17  C   UNL     1      -7.797  -2.805  -0.041  0.00  0.00    +0.011 C 
ATOM     18  C   UNL     1      -8.273  -2.521  -2.418  0.00  0.00    +0.042 C 
ENDBRANCH  15  16
ENDBRANCH  14  15
ENDBRANCH   7  14
ENDBRANCH   1  13
BRANCH   1  19
ATOM     19  C   UNL     1       1.951  -2.440   2.228  0.00  0.00    +0.214 C 
ATOM     20  O   UNL     1       2.227  -1.662   3.117  0.00  0.00    -0.276 OA
ATOM     21  N   UNL     1       2.393  -3.712   2.284  0.00  0.00    -0.312 N 
ATOM     22  H   UNL     1       2.173  -4.334   1.573  0.00  0.00    +0.149 HD
BRANCH  21  23
ATOM     23  C   UNL     1       3.207  -4.155   3.419  0.00  0.00    +0.074 C 
ATOM     24  C   UNL     1       2.291  -4.577   4.569  0.00  0.00    +0.028 C 
BRANCH  23  25
ATOM     25  C   UNL     1       4.072  -5.343   2.993  0.00  0.00    +0.055 C 
BRANCH  25  26
ATOM     26  C   UNL     1       5.059  -4.896   1.946  0.00  0.00    -0.040 C 
ATOM     27  C   UNL     1       6.338  -4.506   2.147  0.00  0.00    -0.001 A 
ATOM     28  C   UNL     1       7.162  -4.386   3.356  0.00  0.00    +0.010 A 
ATOM     29  C   UNL     1       8.440  -3.958   3.239  0.00  0.00    +0.001 A 
ATOM     30  C   UNL     1       8.995  -3.626   1.995  0.00  0.00    +0.002 A 
ATOM     31  C   UNL     1       8.301  -3.711   0.841  0.00  0.00    +0.026 A 
ATOM     32  C   UNL     1       6.948  -4.151   0.846  0.00  0.00    +0.043 A 
ATOM     33  N   UNL     1       6.080  -4.314  -0.122  0.00  0.00    -0.380 N 
ATOM     34  C   UNL     1       4.821  -4.798   0.455  0.00  0.00    +0.144 C 
ATOM     35  H   UNL     1       6.243  -4.146  -1.064  0.00  0.00    +0.160 HD
ENDBRANCH  25  26
ENDBRANCH  23  25
ENDBRANCH  21  23
ENDBRANCH   1  19
TORSDOF 8
