REMARK  Name = ZINC41513008
REMARK  11 active torsions:
REMARK  status: ('A' for Active; 'I' for Inactive)
REMARK    1  A    between atoms: C_1  and  C_2
REMARK    2  A    between atoms: C_2  and  O_3
REMARK    3  A    between atoms: O_3  and  C_4
REMARK    4  A    between atoms: C_4  and  C_6
REMARK    5  A    between atoms: C_9  and  O_12
REMARK    6  A    between atoms: O_12  and  C_13
REMARK    7  A    between atoms: C_13  and  C_14
REMARK    8  A    between atoms: C_18  and  O_31
REMARK    9  A    between atoms: C_19  and  C_23
REMARK   10  A    between atoms: C_23  and  N_24
REMARK   11  A    between atoms: C_27  and  C_30
REMARK                            x       y       z     vdW  Elec       q    Type
REMARK                         _______ _______ _______ _____ _____    ______ ____
ROOT
ATOM      1  C   UNL     1      -8.188  -5.883   0.054  0.00  0.00    +0.128 A 
ATOM      2  C   UNL     1      -9.015  -6.113   1.242  0.00  0.00    +0.048 A 
ATOM      3  C   UNL     1      -8.770  -6.043   2.616  0.00  0.00    +0.017 A 
ATOM      4  C   UNL     1      -9.772  -6.324   3.500  0.00  0.00    +0.046 A 
ATOM      5  C   UNL     1     -11.038  -6.680   3.042  0.00  0.00    +0.122 A 
ATOM      6  C   UNL     1     -11.299  -6.755   1.685  0.00  0.00    +0.023 A 
ATOM      7  C   UNL     1     -10.290  -6.472   0.773  0.00  0.00    +0.172 A 
ATOM      8  O   UNL     1     -10.236  -6.459  -0.574  0.00  0.00    -0.354 OA
ATOM      9  N   UNL     1      -8.936  -6.089  -0.986  0.00  0.00    -0.079 NA
ENDROOT
BRANCH   5  10
ATOM     10  O   UNL     1     -12.025  -6.957   3.934  0.00  0.00    -0.506 OA
ATOM     11  H   UNL     1     -12.549  -6.186   4.191  0.00  0.00    +0.292 HD
ENDBRANCH   5  10
BRANCH   1  12
ATOM     12  C   UNL     1      -6.738  -5.474   0.043  0.00  0.00    +0.288 C 
BRANCH  12  13
ATOM     13  O   UNL     1      -6.644  -4.048   0.044  0.00  0.00    -0.486 OA
BRANCH  13  17
ATOM     14  C   UNL     1      -2.852  -2.419   0.016  0.00  0.00    +0.059 A 
ATOM     15  C   UNL     1      -3.973  -1.584   0.026  0.00  0.00    +0.018 A 
ATOM     16  C   UNL     1      -5.236  -2.132   0.034  0.00  0.00    +0.046 A 
ATOM     17  C   UNL     1      -5.398  -3.513   0.034  0.00  0.00    +0.121 A 
ATOM     18  C   UNL     1      -4.285  -4.346   0.025  0.00  0.00    +0.046 A 
ATOM     19  C   UNL     1      -3.018  -3.807   0.010  0.00  0.00    +0.018 A 
BRANCH  14  20
ATOM     20  C   UNL     1      -1.497  -1.837   0.006  0.00  0.00    +0.339 C 
ATOM     21  O   UNL     1      -0.523  -2.564  -0.007  0.00  0.00    -0.245 OA
BRANCH  20  22
ATOM     22  O   UNL     1      -1.339  -0.499   0.012  0.00  0.00    -0.461 OA
BRANCH  22  24
ATOM     23  C   UNL     1      -0.019   1.526   0.010  0.00  0.00    +0.048 C 
ATOM     24  C   UNL     1       0.002  -0.004   0.002  0.00  0.00    +0.229 C 
ENDBRANCH  22  24
ENDBRANCH  20  22
ENDBRANCH  14  20
ENDBRANCH  13  17
ENDBRANCH  12  13
ENDBRANCH   1  12
BRANCH   6  25
ATOM     25  C   UNL     1     -12.671  -7.143   1.198  0.00  0.00    -0.035 C 
BRANCH  25  26
ATOM     26  N   UNL     1     -13.493  -5.936   1.039  0.00  0.00    +0.383 N 
ATOM     27  C   UNL     1     -12.921  -5.092  -0.018  0.00  0.00    -0.078 C 
ATOM     28  C   UNL     1     -13.726  -3.796  -0.133  0.00  0.00    -0.016 C 
ATOM     29  C   UNL     1     -15.179  -4.133  -0.478  0.00  0.00    -0.018 C 
ATOM     30  C   UNL     1     -15.743  -5.073   0.592  0.00  0.00    -0.016 C 
ATOM     31  C   UNL     1     -14.863  -6.322   0.681  0.00  0.00    -0.078 C 
ATOM     32  C   UNL     1     -16.008  -2.847  -0.516  0.00  0.00    +0.007 C 
ATOM     33  H   UNL     1     -13.506  -5.421   1.907  0.00  0.00    -0.081 HD
ENDBRANCH  25  26
ENDBRANCH   6  25
TORSDOF 9
