REMARK  Name = ZINC63699830
REMARK  13 active torsions:
REMARK  status: ('A' for Active; 'I' for Inactive)
REMARK    1  A    between atoms: C_1  and  C_2
REMARK    2  A    between atoms: C_2  and  O_3
REMARK    3  A    between atoms: O_3  and  C_4
REMARK    4  A    between atoms: C_4  and  C_6
REMARK    5  A    between atoms: C_8  and  C_37
REMARK    6  A    between atoms: C_9  and  C_32
REMARK    7  A    between atoms: C_10  and  N_13
REMARK    8  A    between atoms: C_14  and  C_16
REMARK    9  A    between atoms: C_16  and  N_17
REMARK   10  A    between atoms: C_20  and  C_23
REMARK   11  A    between atoms: C_32  and  O_34
REMARK   12  A    between atoms: O_34  and  C_35
REMARK   13  A    between atoms: C_35  and  C_36
REMARK                            x       y       z     vdW  Elec       q    Type
REMARK                         _______ _______ _______ _____ _____    ______ ____
ROOT
ATOM      1  N   UNL     1       3.869  -5.542  -2.781  0.00  0.00    -0.301 N 
ATOM      2  C   UNL     1       5.017  -5.956  -3.353  0.00  0.00    +0.198 C 
ATOM      3  O   UNL     1       5.481  -5.346  -4.293  0.00  0.00    -0.278 OA
ATOM      4  H   UNL     1       3.498  -6.030  -2.030  0.00  0.00    +0.150 HD
ENDROOT
BRANCH   1   8
ATOM      5  C   UNL     1       1.450  -2.460  -2.304  0.00  0.00    +0.183 C 
ATOM      6  C   UNL     1       0.864  -3.701  -2.954  0.00  0.00    -0.037 C 
ATOM      7  C   UNL     1       1.688  -4.603  -3.426  0.00  0.00    +0.067 C 
ATOM      8  C   UNL     1       3.180  -4.356  -3.296  0.00  0.00    +0.169 C 
ATOM      9  S   UNL     1       3.203  -2.983  -2.062  0.00  0.00    -0.114 S 
ATOM     10  C   UNL     1      -0.627  -3.889  -3.053  0.00  0.00    +0.041 C 
BRANCH   5  11
ATOM     11  C   UNL     1       0.783  -2.171  -0.984  0.00  0.00    +0.324 C 
ATOM     12  O   UNL     1       0.365  -3.081  -0.307  0.00  0.00    -0.249 OA
BRANCH  11  13
ATOM     13  O   UNL     1       0.652  -0.904  -0.561  0.00  0.00    -0.464 OA
BRANCH  13  15
ATOM     14  C   UNL     1      -0.047   0.792   1.012  0.00  0.00    +0.048 C 
ATOM     15  C   UNL     1       0.009  -0.705   0.700  0.00  0.00    +0.229 C 
ENDBRANCH  13  15
ENDBRANCH  11  13
ENDBRANCH   5  11
BRANCH   7  16
ATOM     16  C   UNL     1       1.179  -5.825  -4.066  0.00  0.00    +0.338 C 
ATOM     17  O   UNL     1      -0.012  -5.953  -4.271  0.00  0.00    -0.245 OA
BRANCH  16  18
ATOM     18  O   UNL     1       2.034  -6.803  -4.426  0.00  0.00    -0.462 OA
BRANCH  18  19
ATOM     19  C   UNL     1       1.471  -7.962  -5.043  0.00  0.00    +0.229 C 
ATOM     20  C   UNL     1       2.587  -8.954  -5.378  0.00  0.00    +0.048 C 
ENDBRANCH  18  19
ENDBRANCH  16  18
ENDBRANCH   7  16
ENDBRANCH   1   8
BRANCH   2  21
ATOM     21  C   UNL     1       5.726  -7.176  -2.823  0.00  0.00    +0.019 C 
BRANCH  21  22
ATOM     22  N   UNL     1       6.943  -7.416  -3.610  0.00  0.00    +0.385 N 
ATOM     23  C   UNL     1       7.876  -6.300  -3.416  0.00  0.00    -0.078 C 
ATOM     24  C   UNL     1       9.111  -6.505  -4.296  0.00  0.00    -0.011 C 
ATOM     25  C   UNL     1       9.796  -7.818  -3.908  0.00  0.00    +0.028 C 
ATOM     26  C   UNL     1       8.791  -8.966  -4.043  0.00  0.00    -0.011 C 
ATOM     27  C   UNL     1       7.567  -8.670  -3.172  0.00  0.00    -0.078 C 
ATOM     28  H   UNL     1       6.702  -7.484  -4.587  0.00  0.00    -0.081 HD
BRANCH  25  29
ATOM     29  C   UNL     1      10.986  -8.069  -4.836  0.00  0.00    +0.177 C 
ATOM     30  N   UNL     1      11.695  -9.289  -4.428  0.00  0.00    -0.363 N 
ATOM     31  C   UNL     1      12.913  -8.948  -4.119  0.00  0.00    +0.060 A 
ATOM     32  C   UNL     1      14.075  -9.713  -3.649  0.00  0.00    +0.027 A 
ATOM     33  C   UNL     1      15.237  -9.075  -3.404  0.00  0.00    +0.002 A 
ATOM     34  C   UNL     1      15.392  -7.688  -3.580  0.00  0.00    +0.002 A 
ATOM     35  C   UNL     1      14.390  -6.893  -4.006  0.00  0.00    +0.027 A 
ATOM     36  C   UNL     1      13.076  -7.480  -4.306  0.00  0.00    +0.060 A 
ATOM     37  N   UNL     1      11.954  -6.970  -4.723  0.00  0.00    -0.363 N 
ATOM     38  H   UNL     1      11.324 -10.184  -4.396  0.00  0.00    +0.162 HD
ATOM     39  H   UNL     1      11.787  -6.036  -4.923  0.00  0.00    +0.162 HD
ENDBRANCH  25  29
ENDBRANCH  21  22
ENDBRANCH   2  21
TORSDOF 10
