REMARK  Name = ZINC64160295
REMARK  9 active torsions:
REMARK  status: ('A' for Active; 'I' for Inactive)
REMARK    1  A    between atoms: C_1  and  N_2
REMARK    2  A    between atoms: C_6  and  C_7
REMARK    3  A    between atoms: C_7  and  C_9
REMARK    4  A    between atoms: C_7  and  N_19
REMARK    5  A    between atoms: C_11  and  O_17
REMARK    6  A    between atoms: C_13  and  O_15
REMARK    7  A    between atoms: O_15  and  C_16
REMARK    8  A    between atoms: O_17  and  C_18
REMARK    9  A    between atoms: C_20  and  C_22
REMARK                            x       y       z     vdW  Elec       q    Type
REMARK                         _______ _______ _______ _____ _____    ______ ____
ROOT
ATOM      1  C   UNL     1       0.030  -0.354   2.521  0.00  0.00    +0.170 C 
ENDROOT
BRANCH   1   7
ATOM      2  C   UNL     1      -0.018   1.461   0.010  0.00  0.00    +0.150 C 
ATOM      3  N   UNL     1       0.002  -0.004   0.002  0.00  0.00    -0.336 N 
ATOM      4  C   UNL     1       0.009  -0.810  -1.104  0.00  0.00    +0.106 A 
ATOM      5  C   UNL     1       0.029  -2.081  -0.660  0.00  0.00    +0.130 A 
ATOM      6  N   UNL     1       0.034  -2.052   0.681  0.00  0.00    -0.238 NA
ATOM      7  C   UNL     1       0.023  -0.811   1.085  0.00  0.00    +0.134 A 
ENDBRANCH   1   7
BRANCH   1   8
ATOM      8  C   UNL     1      -1.334  -0.572   3.123  0.00  0.00    -0.013 A 
ATOM      9  C   UNL     1      -1.700  -1.829   3.566  0.00  0.00    +0.051 A 
ATOM     10  C   UNL     1      -2.956  -2.032   4.121  0.00  0.00    +0.124 A 
ATOM     11  C   UNL     1      -3.843  -0.972   4.231  0.00  0.00    +0.091 A 
ATOM     12  C   UNL     1      -3.473   0.288   3.787  0.00  0.00    +0.124 A 
ATOM     13  C   UNL     1      -2.215   0.487   3.237  0.00  0.00    +0.051 A 
BRANCH  12  14
ATOM     14  O   UNL     1      -4.341   1.328   3.893  0.00  0.00    -0.495 OA
ATOM     15  C   UNL     1      -5.617   1.052   4.474  0.00  0.00    +0.277 C 
ENDBRANCH  12  14
BRANCH  10  16
ATOM     16  O   UNL     1      -3.315  -3.268   4.556  0.00  0.00    -0.495 OA
ATOM     17  C   UNL     1      -4.623  -3.404   5.116  0.00  0.00    +0.277 C 
ENDBRANCH  10  16
ENDBRANCH   1   8
BRANCH   1  18
ATOM     18  N   UNL     1       1.024  -1.123   3.273  0.00  0.00    -0.298 N 
ATOM     19  C   UNL     1       2.315  -0.733   3.278  0.00  0.00    +0.243 C 
ATOM     20  O   UNL     1       2.653   0.257   2.658  0.00  0.00    -0.270 OA
ATOM     21  H   UNL     1       0.754  -1.913   3.768  0.00  0.00    +0.150 HD
BRANCH  19  22
ATOM     22  C   UNL     1       3.310  -1.503   4.031  0.00  0.00    +0.042 C 
ATOM     23  C   UNL     1       4.657  -1.237   4.143  0.00  0.00    +0.008 A 
ATOM     24  C   UNL     1       5.485  -0.215   3.613  0.00  0.00    +0.010 A 
ATOM     25  C   UNL     1       6.806  -0.198   3.890  0.00  0.00    +0.001 A 
ATOM     26  C   UNL     1       7.420  -1.168   4.699  0.00  0.00    +0.002 A 
ATOM     27  C   UNL     1       6.722  -2.183   5.252  0.00  0.00    +0.026 A 
ATOM     28  C   UNL     1       5.275  -2.277   5.001  0.00  0.00    +0.043 A 
ATOM     29  N   UNL     1       4.377  -3.134   5.399  0.00  0.00    -0.380 N 
ATOM     30  C   UNL     1       3.071  -2.750   4.853  0.00  0.00    +0.154 C 
ATOM     31  H   UNL     1       4.544  -3.901   5.969  0.00  0.00    +0.160 HD
ENDBRANCH  19  22
ENDBRANCH   1  18
TORSDOF 6
