REMARK  Name = ZINC13582229
REMARK  7 active torsions:
REMARK  status: ('A' for Active; 'I' for Inactive)
REMARK    1  A    between atoms: C_1  and  C_2
REMARK    2  A    between atoms: C_5  and  C_8
REMARK    3  A    between atoms: C_8  and  C_10
REMARK    4  A    between atoms: C_12  and  C_24
REMARK    5  A    between atoms: C_18  and  C_19
REMARK    6  A    between atoms: C_18  and  O_23
REMARK    7  A    between atoms: C_28  and  N_30
REMARK                            x       y       z     vdW  Elec       q    Type
REMARK                         _______ _______ _______ _____ _____    ______ ____
ROOT
ATOM      1  C   UNL     1       2.850  -3.265  -1.463  0.00  0.00    +0.144 C 
ATOM      2  C   UNL     1       2.542  -2.797  -0.036  0.00  0.00    +0.120 C 
ATOM      3  N   UNL     1       2.462  -3.962   0.845  0.00  0.00    -0.292 N 
ATOM      4  C   UNL     1       3.162  -5.078   0.592  0.00  0.00    +0.302 C 
ATOM      5  O   UNL     1       3.066  -6.014   1.362  0.00  0.00    -0.253 OA
ATOM      6  N   UNL     1       3.962  -5.202  -0.476  0.00  0.00    -0.264 N 
ATOM      7  C   UNL     1       4.130  -4.108  -1.434  0.00  0.00    +0.243 C 
ATOM      8  H   UNL     1       1.890  -3.927   1.629  0.00  0.00    +0.151 HD
ATOM      9  H   UNL     1       4.441  -6.034  -0.618  0.00  0.00    +0.153 HD
ENDROOT
BRANCH   2  10
ATOM     10  C   UNL     1       1.227  -2.061  -0.020  0.00  0.00    -0.024 A 
ATOM     11  C   UNL     1       0.040  -2.768  -0.012  0.00  0.00    +0.005 A 
ATOM     12  C   UNL     1      -1.167  -2.094   0.003  0.00  0.00    +0.003 A 
ATOM     13  C   UNL     1      -1.185  -0.711   0.015  0.00  0.00    +0.033 A 
ATOM     14  C   UNL     1       0.002  -0.004   0.002  0.00  0.00    +0.127 A 
ATOM     15  C   UNL     1       1.209  -0.679  -0.013  0.00  0.00    +0.038 A 
BRANCH  14  16
ATOM     16  N   UNL     1      -0.018   1.476   0.010  0.00  0.00    +0.056 N 
ATOM     17  O   UNL     1       1.028   2.099   0.004  0.00  0.00    -0.126 OA
ATOM     18  O   UNL     1      -1.081   2.071   0.018  0.00  0.00    -0.126 OA
ENDBRANCH  14  16
ENDBRANCH   2  10
BRANCH   7  19
ATOM     19  C   UNL     1       4.395  -4.683  -2.827  0.00  0.00    +0.436 C 
ATOM     20  F   UNL     1       3.313  -5.480  -3.216  0.00  0.00    -0.166 F 
ATOM     21  F   UNL     1       4.554  -3.636  -3.741  0.00  0.00    -0.166 F 
ATOM     22  F   UNL     1       5.559  -5.458  -2.798  0.00  0.00    -0.166 F 
ENDBRANCH   7  19
BRANCH   1  23
ATOM     23  C   UNL     1       3.052  -2.069  -2.356  0.00  0.00    +0.173 C 
ATOM     24  O   UNL     1       3.496  -1.038  -1.898  0.00  0.00    -0.292 OA
BRANCH  23  29
ATOM     25  C   UNL     1       1.715  -2.391  -7.938  0.00  0.00    +0.044 C 
ATOM     26  C   UNL     1       2.066  -2.307  -6.475  0.00  0.00    -0.050 A 
ATOM     27  C   UNL     1       2.573  -1.128  -5.955  0.00  0.00    +0.004 A 
ATOM     28  C   UNL     1       2.896  -1.043  -4.617  0.00  0.00    +0.011 A 
ATOM     29  C   UNL     1       2.710  -2.151  -3.785  0.00  0.00    +0.018 A 
ATOM     30  C   UNL     1       2.203  -3.340  -4.319  0.00  0.00    +0.011 A 
ATOM     31  C   UNL     1       1.879  -3.408  -5.657  0.00  0.00    +0.004 A 
ENDBRANCH  23  29
ENDBRANCH   1  23
BRANCH   7  32
ATOM     32  O   UNL     1       5.232  -3.290  -1.036  0.00  0.00    -0.364 OA
ATOM     33  H   UNL     1       6.075  -3.760  -0.991  0.00  0.00    +0.212 HD
ENDBRANCH   7  32
TORSDOF 6
