REMARK  Name = ZINC64986589
REMARK  5 active torsions:
REMARK  status: ('A' for Active; 'I' for Inactive)
REMARK    1  A    between atoms: C_1  and  C_2
REMARK    2  A    between atoms: N_5  and  S_8
REMARK    3  A    between atoms: S_8  and  C_11
REMARK    4  A    between atoms: C_16  and  O_17
REMARK    5  A    between atoms: O_17  and  C_18
REMARK                            x       y       z     vdW  Elec       q    Type
REMARK                         _______ _______ _______ _____ _____    ______ ____
ROOT
ATOM      1  C   UNL     1      -0.679  -5.163   1.434  0.00  0.00    +0.148 A 
ATOM      2  C   UNL     1       0.401  -5.817   1.979  0.00  0.00    +0.049 A 
ATOM      3  C   UNL     1       1.030  -6.847   1.269  0.00  0.00    +0.081 A 
ATOM      4  C   UNL     1       0.536  -7.221   0.012  0.00  0.00    +0.144 A 
ATOM      5  C   UNL     1      -0.540  -6.543  -0.535  0.00  0.00    +0.095 A 
ATOM      6  C   UNL     1      -1.152  -5.520   0.175  0.00  0.00    +0.158 A 
ATOM      7  O   UNL     1       1.084  -8.262  -0.656  0.00  0.00    -0.453 OA
ATOM      8  C   UNL     1       1.029  -9.494  -0.090  0.00  0.00    +0.150 A 
ATOM      9  C   UNL     1       0.309 -10.494  -0.729  0.00  0.00    +0.048 A 
ATOM     10  C   UNL     1       0.211 -11.751  -0.163  0.00  0.00    +0.004 A 
ATOM     11  C   UNL     1       0.830 -12.015   1.045  0.00  0.00    +0.002 A 
ATOM     12  C   UNL     1       1.557 -11.028   1.681  0.00  0.00    +0.027 A 
ATOM     13  C   UNL     1       1.671  -9.764   1.111  0.00  0.00    +0.076 A 
ATOM     14  N   UNL     1       2.466  -8.809   1.745  0.00  0.00    -0.278 N 
ATOM     15  C   UNL     1       2.204  -7.513   1.841  0.00  0.00    +0.252 C 
ATOM     16  O   UNL     1       2.999  -6.824   2.451  0.00  0.00    -0.270 OA
ATOM     17  H   UNL     1       3.287  -9.123   2.154  0.00  0.00    +0.155 HD
ENDROOT
BRANCH   1  18
ATOM     18  S   UNL     1      -1.470  -3.872   2.335  0.00  0.00    +0.064 S 
ATOM     19  O   UNL     1      -0.751  -3.726   3.552  0.00  0.00    -0.153 OA
ATOM     20  O   UNL     1      -2.864  -4.149   2.303  0.00  0.00    -0.153 OA
BRANCH  18  25
ATOM     21  C   UNL     1      -1.892   1.722   1.152  0.00  0.00    +0.007 C 
ATOM     22  C   UNL     1      -1.442   0.286   0.878  0.00  0.00    -0.012 C 
ATOM     23  C   UNL     1      -2.670  -0.621   0.770  0.00  0.00    +0.020 C 
ATOM     24  C   UNL     1      -2.218  -2.052   0.462  0.00  0.00    +0.110 C 
ATOM     25  N   UNL     1      -1.247  -2.471   1.482  0.00  0.00    -0.176 NA
ATOM     26  C   UNL     1      -0.073  -1.622   1.731  0.00  0.00    +0.110 C 
ATOM     27  C   UNL     1      -0.550  -0.196   2.025  0.00  0.00    +0.020 C 
ENDBRANCH  18  25
ENDBRANCH   1  18
BRANCH   6  28
ATOM     28  O   UNL     1      -2.211  -4.863  -0.361  0.00  0.00    -0.454 OA
BRANCH  28  29
ATOM     29  C   UNL     1      -2.667  -5.271  -1.575  0.00  0.00    +0.129 A 
ATOM     30  C   UNL     1      -3.651  -6.246  -1.656  0.00  0.00    +0.048 A 
ATOM     31  C   UNL     1      -4.113  -6.659  -2.891  0.00  0.00    +0.023 A 
ATOM     32  C   UNL     1      -3.595  -6.101  -4.046  0.00  0.00    +0.041 A 
ATOM     33  C   UNL     1      -2.613  -5.129  -3.968  0.00  0.00    +0.023 A 
ATOM     34  C   UNL     1      -2.153  -4.709  -2.735  0.00  0.00    +0.048 A 
ATOM     35 CL   UNL     1      -4.178  -6.622  -5.596  0.00  0.00    -0.084 Cl
ENDBRANCH  28  29
ENDBRANCH   6  28
TORSDOF 4
