REMARK  Name = ZINC15451031
REMARK  13 active torsions:
REMARK  status: ('A' for Active; 'I' for Inactive)
REMARK    1  A    between atoms: C_1  and  C_2
REMARK    2  A    between atoms: C_2  and  C_3
REMARK    3  A    between atoms: C_2  and  N_4
REMARK    4  A    between atoms: N_4  and  C_5
REMARK    5  A    between atoms: N_4  and  S_6
REMARK    6  A    between atoms: S_6  and  C_9
REMARK    7  A    between atoms: C_12  and  N_15
REMARK    8  A    between atoms: C_16  and  C_18
REMARK    9  A    between atoms: C_18  and  N_58
REMARK   10  A    between atoms: C_19  and  C_20
REMARK   11  A    between atoms: C_19  and  N_58
REMARK   12  A    between atoms: C_25  and  C_26
REMARK   13  A    between atoms: C_25  and  N_58
REMARK                            x       y       z     vdW  Elec       q    Type
REMARK                         _______ _______ _______ _____ _____    ______ ____
ROOT
ATOM      1  N   UNL     1      -2.777   2.955   5.882  0.00  0.00    -0.287 N 
ATOM      2  C   UNL     1      -3.660   2.118   6.461  0.00  0.00    +0.201 C 
ATOM      3  O   UNL     1      -3.989   1.097   5.894  0.00  0.00    -0.278 OA
ATOM      4  H   UNL     1      -2.467   3.740   6.361  0.00  0.00    +0.155 HD
ENDROOT
BRANCH   1   8
ATOM      5  C   UNL     1      -1.379   2.174   2.036  0.00  0.00    +0.106 A 
ATOM      6  C   UNL     1      -1.576   3.479   2.447  0.00  0.00    +0.030 A 
ATOM      7  C   UNL     1      -2.044   3.742   3.719  0.00  0.00    +0.025 A 
ATOM      8  C   UNL     1      -2.307   2.693   4.591  0.00  0.00    +0.033 A 
ATOM      9  C   UNL     1      -2.103   1.383   4.177  0.00  0.00    +0.025 A 
ATOM     10  C   UNL     1      -1.640   1.127   2.901  0.00  0.00    +0.030 A 
BRANCH   5  11
ATOM     11  S   UNL     1      -0.788   1.843   0.409  0.00  0.00    +0.061 S 
ATOM     12  O   UNL     1      -0.164   0.568   0.456  0.00  0.00    -0.153 OA
ATOM     13  O   UNL     1      -0.103   3.012  -0.019  0.00  0.00    -0.153 OA
BRANCH  11  14
ATOM     14  N   UNL     1      -2.114   1.686  -0.571  0.00  0.00    -0.177 NA
ATOM     15  C   UNL     1      -2.728   0.370  -0.767  0.00  0.00    +0.132 C 
BRANCH  14  17
ATOM     16  C   UNL     1      -2.617   2.651  -2.760  0.00  0.00    +0.025 C 
ATOM     17  C   UNL     1      -2.669   2.861  -1.246  0.00  0.00    +0.073 C 
ATOM     18  C   UNL     1      -4.122   3.062  -0.809  0.00  0.00    +0.025 C 
ENDBRANCH  14  17
ENDBRANCH  11  14
ENDBRANCH   5  11
ENDBRANCH   1   8
BRANCH   2  19
ATOM     19  C   UNL     1      -4.239   2.450   7.812  0.00  0.00    +0.020 C 
BRANCH  19  20
ATOM     20  N   UNL     1      -5.154   1.363   8.219  0.00  0.00    +0.393 N 
ATOM     21  H   UNL     1      -4.664   0.465   8.134  0.00  0.00    -0.080 HD
BRANCH  20  22
ATOM     22  C   UNL     1      -5.569   1.552   9.625  0.00  0.00    -0.002 C 
BRANCH  22  23
ATOM     23  C   UNL     1      -4.371   1.354  10.517  0.00  0.00    +0.089 A 
ATOM     24  C   UNL     1      -3.582   2.329  11.003  0.00  0.00    +0.042 A 
ATOM     25  C   UNL     1      -2.587   1.700  11.786  0.00  0.00    +0.041 A 
ATOM     26  C   UNL     1      -2.828   0.377  11.731  0.00  0.00    +0.195 A 
ATOM     27  O   UNL     1      -3.913   0.174  10.966  0.00  0.00    -0.470 OA
ENDBRANCH  22  23
ENDBRANCH  20  22
BRANCH  20  28
ATOM     28  C   UNL     1      -6.342   1.347   7.339  0.00  0.00    -0.034 C 
BRANCH  28  29
ATOM     29  C   UNL     1      -7.071   0.042   7.534  0.00  0.00    -0.027 A 
ATOM     30  C   UNL     1      -8.126  -0.234   8.337  0.00  0.00    +0.009 A 
ATOM     31  C   UNL     1      -8.640  -1.518   8.351  0.00  0.00    +0.008 A 
ATOM     32  C   UNL     1      -8.066  -2.464   7.569  0.00  0.00    +0.045 A 
ATOM     33  S   UNL     1      -6.763  -1.542   6.771  0.00  0.00    -0.103 S 
ENDBRANCH  28  29
ENDBRANCH  20  28
ENDBRANCH  19  20
ENDBRANCH   2  19
TORSDOF 10
