REMARK  Name = ZINC16401801
REMARK  10 active torsions:
REMARK  status: ('A' for Active; 'I' for Inactive)
REMARK    1  A    between atoms: C_6  and  C_7
REMARK    2  A    between atoms: C_7  and  O_8
REMARK    3  A    between atoms: O_8  and  C_9
REMARK    4  A    between atoms: C_14  and  C_15
REMARK    5  A    between atoms: C_15  and  N_50
REMARK    6  A    between atoms: C_16  and  C_17
REMARK    7  A    between atoms: C_16  and  N_50
REMARK    8  A    between atoms: C_17  and  N_18
REMARK    9  A    between atoms: N_18  and  C_19
REMARK   10  A    between atoms: C_22  and  N_25
REMARK                            x       y       z     vdW  Elec       q    Type
REMARK                         _______ _______ _______ _____ _____    ______ ____
ROOT
ATOM      1  C   UNL     1      -2.575   2.783   4.032  0.00  0.00    -0.043 C 
ENDROOT
BRANCH   1   7
ATOM      2  C   UNL     1      -2.917   2.995   1.558  0.00  0.00    +0.122 A 
ATOM      3  C   UNL     1      -3.660   3.414   0.464  0.00  0.00    +0.047 A 
ATOM      4  C   UNL     1      -4.854   4.081   0.656  0.00  0.00    +0.019 A 
ATOM      5  C   UNL     1      -5.309   4.331   1.939  0.00  0.00    +0.018 A 
ATOM      6  C   UNL     1      -4.569   3.915   3.031  0.00  0.00    +0.020 A 
ATOM      7  C   UNL     1      -3.377   3.243   2.842  0.00  0.00    -0.022 A 
ATOM      8 BR   UNL     1      -6.944   5.245   2.199  0.00  0.00    -0.050 Br
BRANCH   2   9
ATOM      9  O   UNL     1      -1.741   2.339   1.370  0.00  0.00    -0.487 OA
BRANCH   9  10
ATOM     10  C   UNL     1      -1.332   2.114   0.020  0.00  0.00    +0.264 C 
BRANCH  10  16
ATOM     11  C   UNL     1       1.171   2.086   0.002  0.00  0.00    +0.008 A 
ATOM     12  C   UNL     1       2.377   1.412  -0.013  0.00  0.00    +0.020 A 
ATOM     13  C   UNL     1       2.397   0.029  -0.021  0.00  0.00    +0.041 A 
ATOM     14  C   UNL     1       1.208  -0.679  -0.013  0.00  0.00    +0.020 A 
ATOM     15  C   UNL     1       0.002  -0.004   0.002  0.00  0.00    +0.008 A 
ATOM     16  C   UNL     1      -0.017   1.378   0.010  0.00  0.00    -0.010 A 
ATOM     17 CL   UNL     1       3.912  -0.818  -0.039  0.00  0.00    -0.084 Cl
ENDBRANCH  10  16
ENDBRANCH   9  10
ENDBRANCH   2   9
ENDBRANCH   1   7
BRANCH   1  18
ATOM     18  N   UNL     1      -1.479   3.740   4.276  0.00  0.00    +0.383 N 
ATOM     19  H   UNL     1      -1.876   4.669   4.460  0.00  0.00    -0.085 HD
ATOM     20  H   UNL     1      -0.877   3.784   3.445  0.00  0.00    -0.085 HD
BRANCH  18  21
ATOM     21  C   UNL     1      -0.675   3.314   5.437  0.00  0.00    -0.063 C 
BRANCH  21  22
ATOM     22  C   UNL     1       0.451   4.324   5.665  0.00  0.00    +0.082 C 
BRANCH  22  23
ATOM     23  N   UNL     1       1.254   3.909   6.817  0.00  0.00    -0.346 N 
ATOM     24  H   UNL     1       1.027   3.099   7.300  0.00  0.00    +0.146 HD
BRANCH  23  25
ATOM     25  C   UNL     1       2.347   4.679   7.221  0.00  0.00    +0.027 A 
ATOM     26  C   UNL     1       2.678   5.836   6.527  0.00  0.00    +0.025 A 
ATOM     27  C   UNL     1       3.755   6.598   6.933  0.00  0.00    +0.034 A 
ATOM     28  C   UNL     1       4.513   6.205   8.021  0.00  0.00    +0.126 A 
ATOM     29  C   UNL     1       4.190   5.050   8.710  0.00  0.00    +0.034 A 
ATOM     30  C   UNL     1       3.110   4.286   8.313  0.00  0.00    +0.025 A 
BRANCH  28  31
ATOM     31  N   UNL     1       5.670   7.021   8.449  0.00  0.00    +0.056 N 
ATOM     32  O   UNL     1       6.338   6.675   9.408  0.00  0.00    -0.126 OA
ATOM     33  O   UNL     1       5.956   8.038   7.843  0.00  0.00    -0.126 OA
ENDBRANCH  28  31
ENDBRANCH  23  25
ENDBRANCH  22  23
ENDBRANCH  21  22
ENDBRANCH  18  21
ENDBRANCH   1  18
TORSDOF 10
