REMARK  Name = ZINC14129218
REMARK  10 active torsions:
REMARK  status: ('A' for Active; 'I' for Inactive)
REMARK    1  A    between atoms: C_1  and  C_2
REMARK    2  A    between atoms: C_2  and  C_3
REMARK    3  A    between atoms: C_2  and  C_4
REMARK    4  A    between atoms: C_4  and  C_6
REMARK    5  A    between atoms: C_4  and  N_17
REMARK    6  A    between atoms: C_18  and  C_20
REMARK    7  A    between atoms: C_20  and  S_21
REMARK    8  A    between atoms: S_21  and  C_22
REMARK    9  A    between atoms: C_25  and  C_30
REMARK   10  A    between atoms: N_26  and  C_27
REMARK                            x       y       z     vdW  Elec       q    Type
REMARK                         _______ _______ _______ _____ _____    ______ ____
ROOT
ATOM      1  N   UNL     1      -0.791  -0.095   2.354  0.00  0.00    -0.308 N 
ATOM      2  C   UNL     1      -1.107   0.564   1.222  0.00  0.00    +0.224 C 
ATOM      3  O   UNL     1      -2.021   1.361   1.219  0.00  0.00    -0.275 OA
ATOM      4  H   UNL     1      -0.060  -0.732   2.357  0.00  0.00    +0.149 HD
ENDROOT
BRANCH   1   5
ATOM      5  C   UNL     1      -1.553   0.152   3.581  0.00  0.00    +0.106 C 
BRANCH   5   6
ATOM      6  C   UNL     1      -0.698  -0.177   4.778  0.00  0.00    -0.023 A 
ATOM      7  C   UNL     1       0.121  -1.291   4.754  0.00  0.00    +0.009 A 
ATOM      8  C   UNL     1       0.914  -1.596   5.846  0.00  0.00    +0.050 A 
ATOM      9  C   UNL     1       0.875  -0.787   6.969  0.00  0.00    +0.162 A 
ATOM     10  C   UNL     1       0.049   0.328   6.995  0.00  0.00    +0.162 A 
ATOM     11  C   UNL     1      -0.739   0.633   5.898  0.00  0.00    +0.055 A 
ATOM     12  O   UNL     1       0.019   1.119   8.107  0.00  0.00    -0.488 OA
ATOM     13  C   UNL     1      -0.559   0.534   9.275  0.00  0.00    +0.232 C 
ATOM     14  C   UNL     1       0.470  -0.294  10.029  0.00  0.00    +0.082 C 
ATOM     15  C   UNL     1       0.945  -1.497   9.228  0.00  0.00    +0.232 C 
ATOM     16  O   UNL     1       1.647  -1.080   8.056  0.00  0.00    -0.488 OA
ENDBRANCH   5   6
BRANCH   5  18
ATOM     17  C   UNL     1      -3.672  -0.396   2.376  0.00  0.00    +0.009 C 
ATOM     18  C   UNL     1      -2.804  -0.730   3.591  0.00  0.00    +0.008 C 
ATOM     19  C   UNL     1      -2.391  -2.202   3.534  0.00  0.00    +0.009 C 
ENDBRANCH   5  18
ENDBRANCH   1   5
BRANCH   2  20
ATOM     20  C   UNL     1      -0.324   0.311  -0.041  0.00  0.00    +0.173 C 
BRANCH  20  21
ATOM     21  S   UNL     1      -0.984   1.339  -1.376  0.00  0.00    -0.077 S 
BRANCH  21  22
ATOM     22  C   UNL     1       0.085   0.855  -2.691  0.00  0.00    +0.193 A 
ATOM     23  N   UNL     1       1.066  -0.016  -2.618  0.00  0.00    -0.122 NA
ATOM     24  N   UNL     1       1.639  -0.133  -3.762  0.00  0.00    -0.128 NA
ATOM     25  C   UNL     1       1.065   0.662  -4.634  0.00  0.00    +0.168 A 
ATOM     26  N   UNL     1       0.052   1.320  -3.975  0.00  0.00    -0.299 N 
BRANCH  25  27
ATOM     27  C   UNL     1       1.436   0.821  -6.056  0.00  0.00    +0.054 A 
ATOM     28  C   UNL     1       0.470   0.678  -7.053  0.00  0.00    +0.014 A 
ATOM     29  C   UNL     1       0.823   0.828  -8.378  0.00  0.00    +0.001 A 
ATOM     30  C   UNL     1       2.132   1.120  -8.721  0.00  0.00    +0.003 A 
ATOM     31  C   UNL     1       3.095   1.264  -7.740  0.00  0.00    +0.039 A 
ATOM     32  C   UNL     1       2.755   1.122  -6.408  0.00  0.00    +0.134 A 
ATOM     33  F   UNL     1       3.695   1.269  -5.449  0.00  0.00    -0.205 F 
ENDBRANCH  25  27
BRANCH  26  34
ATOM     34  C   UNL     1      -0.870   2.312  -4.534  0.00  0.00    +0.091 C 
ATOM     35  C   UNL     1      -1.643   3.191  -3.549  0.00  0.00    +0.027 C 
ATOM     36  C   UNL     1      -2.368   2.084  -4.319  0.00  0.00    +0.027 C 
ENDBRANCH  26  34
ENDBRANCH  21  22
ENDBRANCH  20  21
ENDBRANCH   2  20
TORSDOF 8
