REMARK  Name = ZINC08762492
REMARK  12 active torsions:
REMARK  status: ('A' for Active; 'I' for Inactive)
REMARK    1  A    between atoms: C_1  and  C_2
REMARK    2  A    between atoms: C_2  and  O_3
REMARK    3  A    between atoms: O_3  and  C_4
REMARK    4  A    between atoms: C_6  and  C_25
REMARK    5  A    between atoms: N_9  and  C_10
REMARK    6  A    between atoms: C_13  and  O_16
REMARK    7  A    between atoms: O_16  and  C_17
REMARK    8  A    between atoms: C_20  and  C_24
REMARK    9  A    between atoms: C_22  and  C_23
REMARK   10  A    between atoms: C_28  and  O_33
REMARK   11  A    between atoms: C_29  and  O_31
REMARK   12  A    between atoms: O_31  and  C_32
REMARK                            x       y       z     vdW  Elec       q    Type
REMARK                         _______ _______ _______ _____ _____    ______ ____
ROOT
ATOM      1  C   UNL     1      -1.944   3.210   2.444  0.00  0.00    +0.132 A 
ATOM      2  C   UNL     1      -3.230   3.656   2.366  0.00  0.00    +0.055 A 
ATOM      3  C   UNL     1      -3.963   4.460   3.258  0.00  0.00    -0.012 A 
ATOM      4  C   UNL     1      -3.615   5.047   4.456  0.00  0.00    +0.037 A 
ATOM      5  C   UNL     1      -2.385   4.998   5.150  0.00  0.00    +0.076 A 
ATOM      6  N   UNL     1      -2.321   5.661   6.297  0.00  0.00    -0.247 NA
ATOM      7  C   UNL     1      -1.164   4.284   4.730  0.00  0.00    +0.052 A 
ATOM      8  C   UNL     1      -0.969   3.478   3.506  0.00  0.00    +0.067 A 
ATOM      9  C   UNL     1       0.308   3.029   3.562  0.00  0.00    +0.113 A 
ATOM     10  O   UNL     1       0.873   3.490   4.688  0.00  0.00    -0.464 OA
ATOM     11  C   UNL     1       0.011   4.238   5.394  0.00  0.00    +0.112 A 
ATOM     12  C   UNL     1       0.305   4.914   6.709  0.00  0.00    +0.087 C 
ATOM     13  C   UNL     1       0.981   2.158   2.532  0.00  0.00    +0.087 C 
ENDROOT
BRANCH   6  14
ATOM     14  C   UNL     1      -3.369   6.439   6.694  0.00  0.00    +0.065 A 
ATOM     15  C   UNL     1      -3.469   7.761   6.250  0.00  0.00    +0.031 A 
ATOM     16  C   UNL     1      -4.534   8.541   6.649  0.00  0.00    +0.048 A 
ATOM     17  C   UNL     1      -5.498   8.020   7.501  0.00  0.00    +0.120 A 
ATOM     18  C   UNL     1      -5.401   6.710   7.950  0.00  0.00    +0.048 A 
ATOM     19  C   UNL     1      -4.344   5.919   7.552  0.00  0.00    +0.031 A 
BRANCH  17  20
ATOM     20  O   UNL     1      -6.543   8.796   7.897  0.00  0.00    -0.495 OA
ATOM     21  C   UNL     1      -6.643  10.097   7.313  0.00  0.00    +0.277 C 
ENDBRANCH  17  20
ENDBRANCH   6  14
BRANCH   3  22
ATOM     22  C   UNL     1      -5.355   4.729   2.831  0.00  0.00    -0.014 A 
ATOM     23  C   UNL     1      -5.994   5.904   3.230  0.00  0.00    +0.012 A 
ATOM     24  C   UNL     1      -7.289   6.156   2.828  0.00  0.00    +0.050 A 
ATOM     25  C   UNL     1      -7.963   5.239   2.034  0.00  0.00    +0.158 A 
ATOM     26  C   UNL     1      -7.332   4.061   1.637  0.00  0.00    +0.162 A 
ATOM     27  C   UNL     1      -6.032   3.806   2.033  0.00  0.00    +0.058 A 
BRANCH  26  28
ATOM     28  O   UNL     1      -7.995   3.164   0.859  0.00  0.00    -0.491 OA
ATOM     29  C   UNL     1      -7.328   1.931   0.579  0.00  0.00    +0.277 C 
ENDBRANCH  26  28
BRANCH  25  30
ATOM     30  O   UNL     1      -9.240   5.489   1.644  0.00  0.00    -0.503 OA
ATOM     31  H   UNL     1      -9.911   5.155   2.256  0.00  0.00    +0.292 HD
ENDBRANCH  25  30
ENDBRANCH   3  22
BRANCH   1  32
ATOM     32  O   UNL     1      -1.515   2.434   1.419  0.00  0.00    -0.491 OA
BRANCH  32  34
ATOM     33  C   UNL     1      -1.161   0.319   0.306  0.00  0.00    +0.048 C 
ATOM     34  C   UNL     1      -1.703   1.024   1.551  0.00  0.00    +0.226 C 
ENDBRANCH  32  34
ENDBRANCH   1  32
TORSDOF 7
