REMARK  Name = ZINC35073303
REMARK  12 active torsions:
REMARK  status: ('A' for Active; 'I' for Inactive)
REMARK    1  A    between atoms: C_5  and  C_7
REMARK    2  A    between atoms: C_7  and  C_8
REMARK    3  A    between atoms: C_8  and  O_9
REMARK    4  A    between atoms: O_9  and  C_10
REMARK    5  A    between atoms: C_10  and  C_12
REMARK    6  A    between atoms: C_20  and  C_22
REMARK    7  A    between atoms: C_25  and  C_32
REMARK    8  A    between atoms: C_27  and  C_29
REMARK    9  A    between atoms: C_32  and  O_34
REMARK   10  A    between atoms: O_34  and  C_35
REMARK   11  A    between atoms: C_35  and  C_36
REMARK   12  A    between atoms: C_36  and  C_37
REMARK                            x       y       z     vdW  Elec       q    Type
REMARK                         _______ _______ _______ _____ _____    ______ ____
ROOT
ATOM      1  C   UNL     1       3.811  -6.204  -2.847  0.00  0.00    +0.120 C 
ATOM      2  C   UNL     1       4.749  -7.250  -3.462  0.00  0.00    +0.041 C 
ATOM      3  C   UNL     1       6.085  -7.160  -2.740  0.00  0.00    -0.026 C 
ATOM      4  C   UNL     1       5.999  -7.356  -1.427  0.00  0.00    -0.026 C 
ATOM      5  C   UNL     1       4.584  -7.628  -0.939  0.00  0.00    +0.041 C 
ATOM      6  C   UNL     1       3.712  -6.430  -1.337  0.00  0.00    +0.124 C 
ATOM      7  C   UNL     1       4.066  -8.869  -1.679  0.00  0.00    +0.120 C 
ATOM      8  C   UNL     1       4.156  -8.642  -3.204  0.00  0.00    +0.124 C 
ENDROOT
BRANCH   6   9
ATOM      9  C   UNL     1       4.191  -5.199  -0.612  0.00  0.00    +0.360 C 
ATOM     10  O   UNL     1       3.383  -4.399  -0.170  0.00  0.00    -0.246 OA
ATOM     11  O   UNL     1       5.385  -5.002  -0.467  0.00  0.00    -0.246 OA
ENDBRANCH   6   9
BRANCH   8  12
ATOM     12  C   UNL     1       2.787  -8.727  -3.830  0.00  0.00    +0.360 C 
ATOM     13  O   UNL     1       2.575  -9.528  -4.725  0.00  0.00    -0.246 OA
ATOM     14  O   UNL     1       1.892  -7.996  -3.441  0.00  0.00    -0.246 OA
ENDBRANCH   8  12
BRANCH   1  15
ATOM     15  C   UNL     1       4.354  -4.824  -3.113  0.00  0.00    +0.312 C 
ATOM     16  O   UNL     1       5.539  -4.664  -3.287  0.00  0.00    -0.250 OA
BRANCH  15  17
ATOM     17  O   UNL     1       3.521  -3.772  -3.157  0.00  0.00    -0.464 OA
BRANCH  17  18
ATOM     18  C   UNL     1       4.105  -2.493  -3.414  0.00  0.00    +0.238 C 
BRANCH  18  19
ATOM     19  C   UNL     1       3.009  -1.425  -3.427  0.00  0.00    +0.096 C 
BRANCH  19  24
ATOM     20  C   UNL     1       3.729   1.928  -4.991  0.00  0.00    +0.003 A 
ATOM     21  C   UNL     1       4.755   2.353  -4.161  0.00  0.00    +0.020 A 
ATOM     22  C   UNL     1       5.170   1.533  -3.128  0.00  0.00    +0.111 A 
ATOM     23  N   UNL     1       4.602   0.360  -2.929  0.00  0.00    -0.260 NA
ATOM     24  C   UNL     1       3.624  -0.077  -3.698  0.00  0.00    +0.044 A 
ATOM     25  C   UNL     1       3.156   0.689  -4.750  0.00  0.00    +0.023 A 
ENDBRANCH  19  24
ENDBRANCH  18  19
ENDBRANCH  17  18
ENDBRANCH  15  17
ENDBRANCH   1  15
BRANCH   7  26
ATOM     26  C   UNL     1       2.628  -9.114  -1.302  0.00  0.00    +0.312 C 
ATOM     27  O   UNL     1       2.073  -8.376  -0.523  0.00  0.00    -0.250 OA
BRANCH  26  28
ATOM     28  O   UNL     1       1.963 -10.153  -1.831  0.00  0.00    -0.464 OA
BRANCH  28  29
ATOM     29  C   UNL     1       0.603 -10.326  -1.429  0.00  0.00    +0.238 C 
BRANCH  29  30
ATOM     30  C   UNL     1       0.015 -11.552  -2.130  0.00  0.00    +0.096 C 
BRANCH  30  31
ATOM     31  C   UNL     1      -1.420 -11.734  -1.706  0.00  0.00    +0.044 A 
ATOM     32  C   UNL     1      -2.411 -11.810  -2.666  0.00  0.00    +0.023 A 
ATOM     33  C   UNL     1      -3.728 -11.978  -2.265  0.00  0.00    +0.003 A 
ATOM     34  C   UNL     1      -3.999 -12.064  -0.908  0.00  0.00    +0.020 A 
ATOM     35  C   UNL     1      -2.955 -11.980  -0.006  0.00  0.00    +0.111 A 
ATOM     36  N   UNL     1      -1.714 -11.825  -0.424  0.00  0.00    -0.260 NA
ENDBRANCH  30  31
ENDBRANCH  29  30
ENDBRANCH  28  29
ENDBRANCH  26  28
ENDBRANCH   7  26
TORSDOF 12
