REMARK  Name = ZINC24080908
REMARK  19 active torsions:
REMARK  status: ('A' for Active; 'I' for Inactive)
REMARK    1  A    between atoms: C_1  and  C_2
REMARK    2  A    between atoms: C_2  and  C_3
REMARK    3  A    between atoms: C_3  and  O_4
REMARK    4  A    between atoms: O_4  and  C_5
REMARK    5  A    between atoms: C_8  and  C_12
REMARK    6  A    between atoms: C_10  and  C_11
REMARK    7  A    between atoms: C_12  and  C_14
REMARK    8  A    between atoms: N_18  and  C_31
REMARK    9  A    between atoms: C_19  and  C_21
REMARK   10  A    between atoms: C_24  and  C_27
REMARK   11  A    between atoms: C_27  and  C_28
REMARK   12  A    between atoms: C_27  and  C_29
REMARK   13  A    between atoms: C_27  and  C_30
REMARK   14  A    between atoms: C_31  and  C_32
REMARK   15  A    between atoms: C_32  and  N_33
REMARK   16  A    between atoms: N_33  and  C_34
REMARK   17  A    between atoms: N_33  and  C_36
REMARK   18  A    between atoms: C_34  and  C_35
REMARK   19  A    between atoms: C_36  and  C_37
REMARK                            x       y       z     vdW  Elec       q    Type
REMARK                         _______ _______ _______ _____ _____    ______ ____
ROOT
ATOM      1  C   UNL     1      -0.361  -0.791  -1.791  0.00  0.00    +0.076 C 
ATOM      2  C   UNL     1      -1.541  -0.129  -1.773  0.00  0.00    +0.249 C 
ATOM      3  C   UNL     1      -2.093  -0.158  -0.403  0.00  0.00    +0.288 C 
ATOM      4  O   UNL     1      -3.145   0.346  -0.064  0.00  0.00    -0.266 OA
ATOM      5  N   UNL     1      -1.256  -0.822   0.416  0.00  0.00    -0.285 N 
ATOM      6  C   UNL     1      -0.111  -1.274  -0.382  0.00  0.00    +0.145 C 
ATOM      7  O   UNL     1      -2.126   0.459  -2.842  0.00  0.00    -0.282 OA
ENDROOT
BRANCH   6   8
ATOM      8  C   UNL     1      -0.025  -2.779  -0.357  0.00  0.00    -0.022 A 
ATOM      9  C   UNL     1      -1.174  -3.539  -0.469  0.00  0.00    +0.006 A 
ATOM     10  C   UNL     1      -1.095  -4.919  -0.451  0.00  0.00    +0.004 A 
ATOM     11  C   UNL     1       0.133  -5.539  -0.313  0.00  0.00    -0.042 A 
ATOM     12  C   UNL     1       1.282  -4.779  -0.196  0.00  0.00    +0.004 A 
ATOM     13  C   UNL     1       1.203  -3.399  -0.218  0.00  0.00    +0.006 A 
BRANCH  11  14
ATOM     14  C   UNL     1       0.219  -7.043  -0.290  0.00  0.00    -0.013 C 
ATOM     15  C   UNL     1       0.830  -7.499   1.037  0.00  0.00    +0.015 C 
ATOM     16  C   UNL     1      -1.184  -7.636  -0.436  0.00  0.00    +0.015 C 
ATOM     17  C   UNL     1       1.098  -7.521  -1.447  0.00  0.00    +0.015 C 
ENDBRANCH  11  14
ENDBRANCH   6   8
BRANCH   1  18
ATOM     18  C   UNL     1       0.508  -0.999  -2.954  0.00  0.00    +0.195 C 
ATOM     19  O   UNL     1       0.113  -1.657  -3.899  0.00  0.00    -0.287 OA
BRANCH  18  23
ATOM     20  C   UNL     1       4.401   0.696  -3.028  0.00  0.00    +0.123 A 
ATOM     21  C   UNL     1       3.535   0.994  -1.981  0.00  0.00    +0.046 A 
ATOM     22  C   UNL     1       2.271   0.450  -1.956  0.00  0.00    +0.015 A 
ATOM     23  C   UNL     1       1.861  -0.410  -2.979  0.00  0.00    +0.023 A 
ATOM     24  C   UNL     1       2.735  -0.706  -4.030  0.00  0.00    +0.018 A 
ATOM     25  C   UNL     1       3.996  -0.154  -4.050  0.00  0.00    -0.008 A 
ATOM     26  C   UNL     1       4.939  -0.473  -5.182  0.00  0.00    +0.047 C 
BRANCH  20  27
ATOM     27  O   UNL     1       5.645   1.238  -3.051  0.00  0.00    -0.492 OA
BRANCH  27  28
ATOM     28  C   UNL     1       5.996   2.104  -1.970  0.00  0.00    +0.229 C 
BRANCH  28  30
ATOM     29  C   UNL     1       7.801   3.541  -1.010  0.00  0.00    +0.007 C 
ATOM     30  C   UNL     1       7.425   2.614  -2.168  0.00  0.00    +0.038 C 
ENDBRANCH  28  30
ENDBRANCH  27  28
ENDBRANCH  20  27
ENDBRANCH  18  23
ENDBRANCH   1  18
BRANCH   5  31
ATOM     31  C   UNL     1      -1.457  -1.056   1.848  0.00  0.00    +0.090 C 
BRANCH  31  32
ATOM     32  C   UNL     1      -0.833   0.091   2.645  0.00  0.00    -0.060 C 
BRANCH  32  33
ATOM     33  N   UNL     1      -1.034  -0.144   4.081  0.00  0.00    +0.380 N 
ATOM     34  H   UNL     1      -2.104  -0.337   4.245  0.00  0.00    -0.082 HD
BRANCH  33  35
ATOM     35  C   UNL     1      -0.288  -1.328   4.530  0.00  0.00    -0.082 C 
ATOM     36  C   UNL     1       1.209  -1.100   4.311  0.00  0.00    -0.017 C 
ENDBRANCH  33  35
BRANCH  33  37
ATOM     37  C   UNL     1      -0.663   1.041   4.866  0.00  0.00    -0.082 C 
ATOM     38  C   UNL     1      -1.182   0.888   6.297  0.00  0.00    -0.017 C 
ENDBRANCH  33  37
ENDBRANCH  32  33
ENDBRANCH  31  32
ENDBRANCH   5  31
TORSDOF 12
