REMARK  Name = ZINC03190400
REMARK  7 active torsions:
REMARK  status: ('A' for Active; 'I' for Inactive)
REMARK    1  A    between atoms: C_4  and  C_7
REMARK    2  A    between atoms: C_7  and  N_8
REMARK    3  A    between atoms: C_12  and  C_29
REMARK    4  A    between atoms: C_14  and  C_22
REMARK    5  A    between atoms: C_16  and  C_17
REMARK    6  A    between atoms: C_16  and  O_21
REMARK    7  A    between atoms: C_22  and  C_24
REMARK                            x       y       z     vdW  Elec       q    Type
REMARK                         _______ _______ _______ _____ _____    ______ ____
ROOT
ATOM      1  N   UNL     1      -0.098   1.307   2.452  0.00  0.00    -0.245 N 
ATOM      2  C   UNL     1      -0.800   1.048   3.565  0.00  0.00    +0.305 C 
ATOM      3  O   UNL     1      -0.221   0.580   4.526  0.00  0.00    -0.253 OA
ATOM      4  N   UNL     1      -2.117   1.286   3.660  0.00  0.00    -0.292 N 
ATOM      5  C   UNL     1      -2.870   1.860   2.544  0.00  0.00    +0.120 C 
ATOM      6  C   UNL     1      -2.204   1.452   1.225  0.00  0.00    +0.145 C 
ATOM      7  C   UNL     1      -0.734   1.883   1.267  0.00  0.00    +0.246 C 
ATOM      8  H   UNL     1      -2.580   1.073   4.485  0.00  0.00    +0.151 HD
ENDROOT
BRANCH   5   9
ATOM      9  C   UNL     1      -4.286   1.348   2.575  0.00  0.00    -0.026 A 
ATOM     10  C   UNL     1      -4.528   0.012   2.892  0.00  0.00    +0.007 A 
ATOM     11  C   UNL     1      -5.795  -0.481   2.935  0.00  0.00    +0.028 A 
ATOM     12  C   UNL     1      -6.882   0.361   2.643  0.00  0.00    +0.071 A 
ATOM     13  C   UNL     1      -6.634   1.718   2.315  0.00  0.00    +0.001 A 
ATOM     14  C   UNL     1      -5.313   2.194   2.287  0.00  0.00    +0.015 A 
ATOM     15  C   UNL     1      -7.723   2.559   2.024  0.00  0.00    +0.011 A 
ATOM     16  C   UNL     1      -8.980   2.026   2.070  0.00  0.00    +0.020 A 
ATOM     17  C   UNL     1      -9.155   0.684   2.400  0.00  0.00    +0.111 A 
ATOM     18  N   UNL     1      -8.137  -0.097   2.671  0.00  0.00    -0.255 NA
ENDBRANCH   5   9
BRANCH   7  19
ATOM     19  C   UNL     1      -0.019   1.385   0.009  0.00  0.00    +0.436 C 
ATOM     20  F   UNL     1       0.035  -0.013   0.027  0.00  0.00    -0.166 F 
ATOM     21  F   UNL     1       1.281   1.901  -0.024  0.00  0.00    -0.166 F 
ATOM     22  F   UNL     1      -0.719   1.810  -1.125  0.00  0.00    -0.166 F 
ENDBRANCH   7  19
BRANCH   7  23
ATOM     23  O   UNL     1      -0.655   3.309   1.327  0.00  0.00    -0.364 OA
ATOM     24  H   UNL     1       0.248   3.652   1.359  0.00  0.00    +0.212 HD
ENDBRANCH   7  23
BRANCH   6  25
ATOM     25  C   UNL     1      -2.899   2.133   0.075  0.00  0.00    +0.180 C 
ATOM     26  O   UNL     1      -2.473   3.186  -0.355  0.00  0.00    -0.291 OA
BRANCH  25  27
ATOM     27  C   UNL     1      -4.047   1.547  -0.504  0.00  0.00    +0.055 A 
ATOM     28  C   UNL     1      -4.828   2.006  -1.560  0.00  0.00    +0.019 A 
ATOM     29  C   UNL     1      -5.898   1.231  -1.924  0.00  0.00    +0.008 A 
ATOM     30  C   UNL     1      -6.141   0.074  -1.251  0.00  0.00    +0.046 A 
ATOM     31  S   UNL     1      -4.868   0.022  -0.076  0.00  0.00    -0.094 S 
ENDBRANCH  25  27
ENDBRANCH   6  25
BRANCH   1  32
ATOM     32  C   UNL     1       1.336   1.008   2.423  0.00  0.00    +0.147 C 
BRANCH  32  36
ATOM     33  C   UNL     1       3.509   4.279   4.104  0.00  0.00    +0.000 A 
ATOM     34  C   UNL     1       3.074   3.248   4.916  0.00  0.00    +0.000 A 
ATOM     35  C   UNL     1       2.371   2.190   4.372  0.00  0.00    +0.005 A 
ATOM     36  C   UNL     1       2.102   2.162   3.016  0.00  0.00    -0.030 A 
ATOM     37  C   UNL     1       2.541   3.191   2.203  0.00  0.00    +0.005 A 
ATOM     38  C   UNL     1       3.240   4.252   2.748  0.00  0.00    +0.000 A 
ENDBRANCH  32  36
ENDBRANCH   1  32
TORSDOF 7
