REMARK  Name = ZINC28156069
REMARK  10 active torsions:
REMARK  status: ('A' for Active; 'I' for Inactive)
REMARK    1  A    between atoms: C_1  and  C_2
REMARK    2  A    between atoms: C_2  and  C_3
REMARK    3  A    between atoms: C_6  and  C_9
REMARK    4  A    between atoms: C_12  and  C_34
REMARK    5  A    between atoms: C_19  and  C_22
REMARK    6  A    between atoms: C_22  and  C_23
REMARK    7  A    between atoms: N_25  and  C_26
REMARK    8  A    between atoms: C_29  and  C_33
REMARK    9  A    between atoms: C_31  and  C_32
REMARK   10  A    between atoms: C_37  and  C_40
REMARK                            x       y       z     vdW  Elec       q    Type
REMARK                         _______ _______ _______ _____ _____    ______ ____
ROOT
ATOM      1  C   UNL     1       1.405  -0.509  -0.004  0.00  0.00    +0.136 C 
ATOM      2  C   UNL     1       2.224   0.797  -0.008  0.00  0.00    +0.087 C 
ATOM      3  C   UNL     1       1.173   1.885   0.002  0.00  0.00    +0.069 C 
ATOM      4  N   UNL     1       0.001   1.351   0.010  0.00  0.00    -0.182 NA
ATOM      5  N   UNL     1       0.010  -0.043   0.007  0.00  0.00    -0.195 N 
ATOM      6  C   UNL     1      -1.095  -0.844   0.015  0.00  0.00    +0.170 C 
ATOM      7  N   UNL     1      -1.147  -2.170   0.013  0.00  0.00    -0.157 NA
ATOM      8  C   UNL     1      -2.251  -2.864   0.020  0.00  0.00    +0.252 C 
ATOM      9  O   UNL     1      -2.256  -4.080   0.017  0.00  0.00    -0.272 OA
ATOM     10  C   UNL     1      -3.536  -2.045   0.032  0.00  0.00    +0.150 C 
ATOM     11  S   UNL     1      -2.814  -0.354   0.037  0.00  0.00    -0.078 S 
ENDROOT
BRANCH   3  12
ATOM     12  C   UNL     1       1.448   3.333   0.002  0.00  0.00    -0.002 A 
ATOM     13  C   UNL     1       2.766   3.798  -0.002  0.00  0.00    +0.010 A 
ATOM     14  C   UNL     1       3.015   5.154  -0.006  0.00  0.00    +0.004 A 
ATOM     15  C   UNL     1       1.965   6.054   0.004  0.00  0.00    -0.050 A 
ATOM     16  C   UNL     1       0.657   5.602   0.013  0.00  0.00    +0.004 A 
ATOM     17  C   UNL     1       0.392   4.248   0.012  0.00  0.00    +0.010 A 
ATOM     18  C   UNL     1       2.246   7.535   0.005  0.00  0.00    +0.044 C 
ENDBRANCH   3  12
BRANCH   1  22
ATOM     19  C   UNL     1       2.198  -2.791  -3.528  0.00  0.00    -0.048 A 
ATOM     20  C   UNL     1       2.748  -3.173  -2.319  0.00  0.00    +0.004 A 
ATOM     21  C   UNL     1       2.492  -2.435  -1.179  0.00  0.00    +0.006 A 
ATOM     22  C   UNL     1       1.685  -1.314  -1.247  0.00  0.00    -0.025 A 
ATOM     23  C   UNL     1       1.131  -0.935  -2.455  0.00  0.00    +0.006 A 
ATOM     24  C   UNL     1       1.391  -1.670  -3.597  0.00  0.00    +0.004 A 
BRANCH  19  26
ATOM     25  C   UNL     1       1.415  -4.685  -4.923  0.00  0.00    +0.009 C 
ATOM     26  C   UNL     1       2.477  -3.595  -4.771  0.00  0.00    +0.032 C 
ENDBRANCH  19  26
ENDBRANCH   1  22
BRANCH  10  27
ATOM     27  C   UNL     1      -4.372  -2.299  -1.225  0.00  0.00    +0.120 C 
BRANCH  27  28
ATOM     28  C   UNL     1      -5.683  -1.565  -1.112  0.00  0.00    +0.219 C 
ATOM     29  O   UNL     1      -5.926  -0.905  -0.125  0.00  0.00    -0.275 OA
ATOM     30  N   UNL     1      -6.587  -1.644  -2.109  0.00  0.00    -0.285 N 
ATOM     31  H   UNL     1      -6.332  -2.167  -3.043  0.00  0.00    +0.155 HD
BRANCH  30  32
ATOM     32  C   UNL     1      -7.849  -1.059  -1.957  0.00  0.00    +0.036 A 
ATOM     33  C   UNL     1      -8.377  -0.865  -0.687  0.00  0.00    +0.024 A 
ATOM     34  C   UNL     1      -9.623  -0.288  -0.540  0.00  0.00    +0.005 A 
ATOM     35  C   UNL     1     -10.345   0.096  -1.656  0.00  0.00    -0.050 A 
ATOM     36  C   UNL     1      -9.822  -0.097  -2.921  0.00  0.00    +0.008 A 
ATOM     37  C   UNL     1      -8.574  -0.668  -3.075  0.00  0.00    -0.029 A 
ATOM     38  C   UNL     1      -8.002  -0.872  -4.454  0.00  0.00    +0.045 C 
ATOM     39  C   UNL     1     -11.705   0.725  -1.492  0.00  0.00    +0.044 C 
ENDBRANCH  30  32
ENDBRANCH  27  28
ENDBRANCH  10  27
TORSDOF 6
