REMARK  Name = ZINC20119354
REMARK  7 active torsions:
REMARK  status: ('A' for Active; 'I' for Inactive)
REMARK    1  A    between atoms: C_1  and  C_2
REMARK    2  A    between atoms: C_2  and  N_3
REMARK    3  A    between atoms: C_5  and  C_8
REMARK    4  A    between atoms: C_8  and  N_9
REMARK    5  A    between atoms: C_14  and  C_18
REMARK    6  A    between atoms: C_19  and  C_29
REMARK    7  A    between atoms: C_22  and  C_23
REMARK                            x       y       z     vdW  Elec       q    Type
REMARK                         _______ _______ _______ _____ _____    ______ ____
ROOT
ATOM      1  N   UNL     1      -2.943   1.546   2.178  0.00  0.00    +0.385 N 
ATOM      2  C   UNL     1      -2.240   0.574   3.026  0.00  0.00    -0.072 C 
ATOM      3  C   UNL     1      -2.670   0.758   4.489  0.00  0.00    +0.036 C 
ATOM      4  C   UNL     1      -4.179   0.800   4.525  0.00  0.00    +0.036 A 
ATOM      5  C   UNL     1      -4.942   1.002   3.420  0.00  0.00    -0.016 A 
ATOM      6  C   UNL     1      -6.285   0.977   3.815  0.00  0.00    +0.100 A 
ATOM      7  N   UNL     1      -6.319   0.769   5.117  0.00  0.00    -0.173 NA
ATOM      8  N   UNL     1      -4.998   0.657   5.577  0.00  0.00    -0.281 N 
ATOM      9  H   UNL     1      -4.581   0.485   6.580  0.00  0.00    +0.189 HD
ATOM     10  C   UNL     1      -4.370   1.210   2.041  0.00  0.00    -0.039 C 
ATOM     11  H   UNL     1      -2.877   2.526   2.674  0.00  0.00    -0.081 HD
ENDROOT
BRANCH   6  12
ATOM     12  C   UNL     1      -7.461   1.153   2.926  0.00  0.00    +0.072 A 
ATOM     13  C   UNL     1      -8.557   0.349   2.797  0.00  0.00    +0.144 A 
ATOM     14  O   UNL     1      -9.345   0.919   1.876  0.00  0.00    -0.359 OA
ATOM     15  N   UNL     1      -8.890   1.944   1.430  0.00  0.00    -0.077 NA
ATOM     16  C   UNL     1      -7.735   2.243   1.971  0.00  0.00    +0.123 A 
ATOM     17  C   UNL     1      -8.828  -0.931   3.546  0.00  0.00    +0.090 C 
BRANCH  16  18
ATOM     18  C   UNL     1      -6.883   3.423   1.683  0.00  0.00    +0.004 A 
ATOM     19  C   UNL     1      -6.146   4.019   2.704  0.00  0.00    +0.010 A 
ATOM     20  C   UNL     1      -5.352   5.114   2.429  0.00  0.00    +0.001 A 
ATOM     21  C   UNL     1      -5.295   5.626   1.145  0.00  0.00    +0.000 A 
ATOM     22  C   UNL     1      -6.029   5.041   0.129  0.00  0.00    +0.001 A 
ATOM     23  C   UNL     1      -6.823   3.943   0.391  0.00  0.00    +0.010 A 
ENDBRANCH  16  18
ENDBRANCH   6  12
BRANCH   1  24
ATOM     24  C   UNL     1      -2.299   1.659   0.863  0.00  0.00    -0.039 C 
BRANCH  24  27
ATOM     25  N   UNL     1       1.238   2.421   1.319  0.00  0.00    -0.272 N 
ATOM     26  C   UNL     1       0.221   1.538   1.228  0.00  0.00    +0.110 A 
ATOM     27  C   UNL     1      -0.918   2.240   1.027  0.00  0.00    -0.026 A 
ATOM     28  C   UNL     1      -0.588   3.599   1.002  0.00  0.00    +0.136 A 
ATOM     29  N   UNL     1       0.704   3.709   1.173  0.00  0.00    -0.179 NA
BRANCH  25  31
ATOM     30  C   UNL     1       3.492   2.717   0.418  0.00  0.00    +0.029 C 
ATOM     31  C   UNL     1       2.649   2.092   1.532  0.00  0.00    +0.140 C 
ENDBRANCH  25  31
ENDBRANCH  24  27
ENDBRANCH   1  24
TORSDOF 5
