REMARK  Name = ZINC35472943
REMARK  7 active torsions:
REMARK  status: ('A' for Active; 'I' for Inactive)
REMARK    1  A    between atoms: C_1  and  C_2
REMARK    2  A    between atoms: C_3  and  N_35
REMARK    3  A    between atoms: C_4  and  C_34
REMARK    4  A    between atoms: N_5  and  C_26
REMARK    5  A    between atoms: C_6  and  C_7
REMARK    6  A    between atoms: C_12  and  N_15
REMARK    7  A    between atoms: C_26  and  C_27
REMARK                            x       y       z     vdW  Elec       q    Type
REMARK                         _______ _______ _______ _____ _____    ______ ____
ROOT
ATOM      1  C   UNL     1      -0.129   1.491   0.415  0.00  0.00    +0.048 C 
ATOM      2  C   UNL     1      -0.146  -0.003   0.213  0.00  0.00    +0.001 A 
ATOM      3  C   UNL     1      -0.309  -0.676  -1.006  0.00  0.00    +0.054 A 
ATOM      4  C   UNL     1      -0.264  -2.010  -0.751  0.00  0.00    +0.038 A 
ATOM      5  N   UNL     1      -0.079  -2.195   0.584  0.00  0.00    -0.334 N 
ATOM      6  C   UNL     1       0.002  -0.964   1.192  0.00  0.00    +0.110 A 
ATOM      7  C   UNL     1      -0.398  -3.105  -1.778  0.00  0.00    +0.065 C 
ENDROOT
BRANCH   6   8
ATOM      8  C   UNL     1       0.205  -0.717   2.623  0.00  0.00    +0.263 C 
ATOM      9  O   UNL     1       1.329  -0.541   3.057  0.00  0.00    -0.268 OA
ATOM     10  N   UNL     1      -0.852  -0.684   3.458  0.00  0.00    -0.296 N 
ATOM     11  C   UNL     1      -2.201  -1.008   2.972  0.00  0.00    +0.110 C 
ATOM     12  C   UNL     1      -2.796  -2.104   3.861  0.00  0.00    +0.044 C 
ATOM     13  C   UNL     1      -2.746  -1.652   5.323  0.00  0.00    +0.095 C 
ATOM     14  C   UNL     1      -1.291  -1.428   5.740  0.00  0.00    +0.044 C 
ATOM     15  C   UNL     1      -0.678  -0.330   4.873  0.00  0.00    +0.110 C 
BRANCH  13  16
ATOM     16  N   UNL     1      -3.345  -2.684   6.173  0.00  0.00    -0.289 N 
ATOM     17  C   UNL     1      -4.431  -2.507   7.027  0.00  0.00    +0.070 A 
ATOM     18  C   UNL     1      -5.233  -1.419   7.334  0.00  0.00    +0.028 A 
ATOM     19  C   UNL     1      -6.262  -1.557   8.245  0.00  0.00    +0.002 A 
ATOM     20  C   UNL     1      -6.495  -2.779   8.853  0.00  0.00    +0.002 A 
ATOM     21  C   UNL     1      -5.702  -3.869   8.554  0.00  0.00    +0.028 A 
ATOM     22  C   UNL     1      -4.667  -3.739   7.640  0.00  0.00    +0.067 A 
ATOM     23  N   UNL     1      -3.716  -4.626   7.140  0.00  0.00    -0.306 N 
ATOM     24  H   UNL     1      -3.630  -5.561   7.383  0.00  0.00    +0.170 HD
ATOM     25  C   UNL     1      -2.942  -3.966   6.259  0.00  0.00    +0.328 A 
ATOM     26  O   UNL     1      -2.016  -4.452   5.637  0.00  0.00    -0.247 OA
ENDBRANCH  13  16
ENDBRANCH   6   8
BRANCH   3  27
ATOM     27  N   UNL     1      -0.487  -0.078  -2.267  0.00  0.00    -0.324 N 
ATOM     28  C   UNL     1      -1.832   0.241  -2.771  0.00  0.00    +0.133 C 
ATOM     29  C   UNL     1      -1.840   1.700  -3.239  0.00  0.00    +0.178 C 
ATOM     30  O   UNL     1      -0.756   1.909  -4.147  0.00  0.00    -0.377 OA
ATOM     31  C   UNL     1       0.537   1.707  -3.572  0.00  0.00    +0.178 C 
ATOM     32  C   UNL     1       0.667   0.253  -3.118  0.00  0.00    +0.133 C 
ENDBRANCH   3  27
BRANCH   5  33
ATOM     33  C   UNL     1       0.022  -3.490   1.261  0.00  0.00    +0.157 C 
BRANCH  33  34
ATOM     34  C   UNL     1       1.462  -3.937   1.276  0.00  0.00    -0.028 A 
ATOM     35  C   UNL     1       1.971  -4.663   0.215  0.00  0.00    +0.008 A 
ATOM     36  C   UNL     1       3.290  -5.073   0.228  0.00  0.00    +0.038 A 
ATOM     37  C   UNL     1       4.103  -4.757   1.304  0.00  0.00    +0.123 A 
ATOM     38  C   UNL     1       3.591  -4.031   2.366  0.00  0.00    +0.038 A 
ATOM     39  C   UNL     1       2.273  -3.617   2.348  0.00  0.00    +0.008 A 
ATOM     40  F   UNL     1       5.393  -5.158   1.317  0.00  0.00    -0.205 F 
ENDBRANCH  33  34
ENDBRANCH   5  33
TORSDOF 5
