REMARK  Name = ZINC15079996
REMARK  7 active torsions:
REMARK  status: ('A' for Active; 'I' for Inactive)
REMARK    1  A    between atoms: C_1  and  C_2
REMARK    2  A    between atoms: C_5  and  C_8
REMARK    3  A    between atoms: C_13  and  C_17
REMARK    4  A    between atoms: C_13  and  C_18
REMARK    5  A    between atoms: C_27  and  C_29
REMARK    6  A    between atoms: C_29  and  N_78
REMARK    7  A    between atoms: C_34  and  C_36
REMARK                            x       y       z     vdW  Elec       q    Type
REMARK                         _______ _______ _______ _____ _____    ______ ____
ROOT
ATOM      1  C   UNL     1      -0.018   1.506   0.010  0.00  0.00    +0.146 C 
ATOM      2  C   UNL     1      -0.178   0.009  -0.111  0.00  0.00    +0.037 C 
ATOM      3  C   UNL     1       0.787  -0.905   0.080  0.00  0.00    +0.017 C 
ATOM      4  C   UNL     1       0.479  -2.388  -0.050  0.00  0.00    +0.058 C 
ATOM      5  C   UNL     1      -0.603  -2.605  -1.105  0.00  0.00    -0.023 C 
ATOM      6  C   UNL     1      -1.854  -1.839  -0.656  0.00  0.00    +0.086 C 
ATOM      7  C   UNL     1      -1.487  -0.399  -0.463  0.00  0.00    +0.163 C 
ATOM      8  O   UNL     1      -2.345   0.450  -0.613  0.00  0.00    -0.292 OA
ATOM      9  C   UNL     1      -0.125  -2.069  -2.457  0.00  0.00    +0.011 C 
ATOM     10  C   UNL     1      -0.922  -4.097  -1.221  0.00  0.00    +0.011 C 
ATOM     11  N   UNL     1       2.075  -0.620   0.397  0.00  0.00    -0.316 N 
ATOM     12  C   UNL     1       2.469   0.275   1.385  0.00  0.00    +0.053 A 
ATOM     13  C   UNL     1       3.155  -0.128   2.518  0.00  0.00    +0.025 A 
ATOM     14  C   UNL     1       3.557   0.822   3.441  0.00  0.00    +0.002 A 
ATOM     15  C   UNL     1       3.279   2.161   3.231  0.00  0.00    +0.002 A 
ATOM     16  C   UNL     1       2.578   2.563   2.107  0.00  0.00    +0.025 A 
ATOM     17  C   UNL     1       2.156   1.612   1.192  0.00  0.00    +0.058 A 
ATOM     18  N   UNL     1       1.355   1.956   0.101  0.00  0.00    -0.259 N 
ATOM     19  C   UNL     1       1.868   2.720  -0.883  0.00  0.00    +0.204 C 
ATOM     20  O   UNL     1       1.181   3.024  -1.835  0.00  0.00    -0.277 OA
ATOM     21  H   UNL     1       2.772  -1.074  -0.101  0.00  0.00    +0.152 HD
ENDROOT
BRANCH   1  26
ATOM     22  C   UNL     1      -2.844   3.275   4.731  0.00  0.00    +0.044 C 
ATOM     23  C   UNL     1      -2.107   2.813   3.500  0.00  0.00    -0.050 A 
ATOM     24  C   UNL     1      -2.510   3.247   2.250  0.00  0.00    +0.004 A 
ATOM     25  C   UNL     1      -1.833   2.824   1.121  0.00  0.00    +0.006 A 
ATOM     26  C   UNL     1      -0.755   1.968   1.241  0.00  0.00    -0.022 A 
ATOM     27  C   UNL     1      -0.356   1.530   2.490  0.00  0.00    +0.006 A 
ATOM     28  C   UNL     1      -1.029   1.956   3.620  0.00  0.00    +0.004 A 
ENDBRANCH   1  26
BRANCH  19  29
ATOM     29  C   UNL     1       3.296   3.195  -0.801  0.00  0.00    +0.020 C 
BRANCH  29  35
ATOM     30  C   UNL     1       2.830   5.246  -1.999  0.00  0.00    -0.077 C 
ATOM     31  C   UNL     1       3.075   5.991  -3.314  0.00  0.00    -0.019 C 
ATOM     32  C   UNL     1       4.568   6.304  -3.447  0.00  0.00    -0.003 C 
ATOM     33  C   UNL     1       5.363   4.997  -3.382  0.00  0.00    -0.011 C 
ATOM     34  C   UNL     1       5.052   4.281  -2.066  0.00  0.00    -0.036 C 
ATOM     35  N   UNL     1       3.604   3.987  -2.010  0.00  0.00    +0.390 N 
ATOM     36  H   UNL     1       3.343   3.442  -2.841  0.00  0.00    -0.080 HD
BRANCH  34  37
ATOM     37  C   UNL     1       5.817   2.984  -2.006  0.00  0.00    -0.043 A 
ATOM     38  C   UNL     1       6.994   2.896  -1.278  0.00  0.00    +0.005 A 
ATOM     39  C   UNL     1       7.664   1.683  -1.252  0.00  0.00    +0.020 A 
ATOM     40  C   UNL     1       7.141   0.609  -1.948  0.00  0.00    +0.111 A 
ATOM     41  N   UNL     1       6.019   0.729  -2.630  0.00  0.00    -0.263 NA
ATOM     42  C   UNL     1       5.352   1.866  -2.673  0.00  0.00    +0.112 A 
ENDBRANCH  34  37
ENDBRANCH  29  35
ENDBRANCH  19  29
TORSDOF 4
