REMARK  Name = ZINC22413853
REMARK  8 active torsions:
REMARK  status: ('A' for Active; 'I' for Inactive)
REMARK    1  A    between atoms: C_1  and  C_2
REMARK    2  A    between atoms: C_5  and  N_9
REMARK    3  A    between atoms: C_6  and  C_8
REMARK    4  A    between atoms: C_10  and  C_12
REMARK    5  A    between atoms: C_12  and  N_13
REMARK    6  A    between atoms: N_25  and  C_28
REMARK    7  A    between atoms: C_30  and  C_35
REMARK    8  A    between atoms: C_32  and  C_34
REMARK                            x       y       z     vdW  Elec       q    Type
REMARK                         _______ _______ _______ _____ _____    ______ ____
ROOT
ATOM      1  N   UNL     1       2.671   3.937   0.035  0.00  0.00    -0.280 N 
ATOM      2  C   UNL     1       3.387   3.969   1.214  0.00  0.00    +0.105 A 
ATOM      3  C   UNL     1       3.082   3.626   2.604  0.00  0.00    +0.045 A 
ATOM      4  C   UNL     1       1.948   3.148   3.263  0.00  0.00    +0.014 A 
ATOM      5  C   UNL     1       1.988   2.928   4.611  0.00  0.00    +0.001 A 
ATOM      6  C   UNL     1       3.149   3.176   5.330  0.00  0.00    +0.004 A 
ATOM      7  C   UNL     1       4.279   3.648   4.697  0.00  0.00    +0.047 A 
ATOM      8  C   UNL     1       4.262   3.879   3.326  0.00  0.00    +0.138 A 
ATOM      9  O   UNL     1       5.194   4.327   2.461  0.00  0.00    -0.448 OA
ATOM     10  C   UNL     1       4.704   4.387   1.204  0.00  0.00    +0.217 A 
ATOM     11  C   UNL     1       5.275   4.783  -0.032  0.00  0.00    +0.304 A 
ATOM     12  O   UNL     1       6.432   5.161  -0.080  0.00  0.00    -0.263 OA
ATOM     13  N   UNL     1       4.529   4.737  -1.153  0.00  0.00    -0.226 N 
ATOM     14  C   UNL     1       3.250   4.321  -1.119  0.00  0.00    +0.338 A 
ATOM     15  O   UNL     1       2.605   4.293  -2.149  0.00  0.00    -0.246 OA
ENDROOT
BRANCH  13  16
ATOM     16  C   UNL     1       5.094   5.128  -2.373  0.00  0.00    +0.055 A 
ATOM     17  C   UNL     1       6.137   4.396  -2.924  0.00  0.00    +0.029 A 
ATOM     18  C   UNL     1       6.689   4.782  -4.130  0.00  0.00    -0.048 A 
ATOM     19  C   UNL     1       6.210   5.903  -4.783  0.00  0.00    +0.006 A 
ATOM     20  C   UNL     1       5.175   6.637  -4.235  0.00  0.00    -0.048 A 
ATOM     21  C   UNL     1       4.616   6.253  -3.032  0.00  0.00    +0.029 A 
ATOM     22  C   UNL     1       4.657   7.858  -4.951  0.00  0.00    +0.044 C 
ATOM     23  C   UNL     1       7.818   3.985  -4.730  0.00  0.00    +0.044 C 
ENDBRANCH  13  16
BRANCH   1  24
ATOM     24  C   UNL     1       1.276   3.490   0.039  0.00  0.00    +0.223 C 
BRANCH  24  26
ATOM     25  N   UNL     1       0.037   1.365  -0.227  0.00  0.00    -0.284 N 
ATOM     26  C   UNL     1       1.225   2.001  -0.190  0.00  0.00    +0.237 C 
ATOM     27  O   UNL     1       2.253   1.375  -0.342  0.00  0.00    -0.274 OA
ATOM     28  H   UNL     1      -0.897   1.942  -0.160  0.00  0.00    +0.155 HD
BRANCH  25  33
ATOM     29  C   UNL     1      -0.142  -4.283  -0.724  0.00  0.00    +0.044 C 
ATOM     30  C   UNL     1      -0.095  -2.783  -0.592  0.00  0.00    -0.050 A 
ATOM     31  C   UNL     1       0.902  -2.065  -1.229  0.00  0.00    +0.005 A 
ATOM     32  C   UNL     1       0.948  -0.690  -1.109  0.00  0.00    +0.024 A 
ATOM     33  C   UNL     1      -0.007  -0.028  -0.349  0.00  0.00    +0.036 A 
ATOM     34  C   UNL     1      -1.003  -0.751   0.293  0.00  0.00    -0.029 A 
ATOM     35  C   UNL     1      -1.047  -2.126   0.165  0.00  0.00    +0.008 A 
ATOM     36  C   UNL     1      -2.038  -0.037   1.123  0.00  0.00    +0.045 C 
ENDBRANCH  25  33
ENDBRANCH  24  26
ENDBRANCH   1  24
TORSDOF 4
