REMARK  Name = ZINC10315666
REMARK  10 active torsions:
REMARK  status: ('A' for Active; 'I' for Inactive)
REMARK    1  A    between atoms: C_1  and  C_2
REMARK    2  A    between atoms: C_3  and  C_20
REMARK    3  A    between atoms: N_10  and  C_11
REMARK    4  A    between atoms: C_11  and  C_12
REMARK    5  A    between atoms: C_20  and  N_58
REMARK    6  A    between atoms: C_21  and  C_22
REMARK    7  A    between atoms: C_21  and  N_58
REMARK    8  A    between atoms: C_22  and  S_23
REMARK    9  A    between atoms: S_23  and  C_24
REMARK   10  A    between atoms: N_28  and  C_29
REMARK                            x       y       z     vdW  Elec       q    Type
REMARK                         _______ _______ _______ _____ _____    ______ ____
ROOT
ATOM      1  C   UNL     1       2.188   7.025   0.081  0.00  0.00    +0.064 C 
ATOM      2  C   UNL     1       1.637   5.623   0.059  0.00  0.00    +0.018 A 
ATOM      3  C   UNL     1       2.377   4.503   0.054  0.00  0.00    -0.036 A 
ATOM      4  C   UNL     1       1.445   3.373   0.033  0.00  0.00    +0.001 A 
ATOM      5  C   UNL     1       1.602   1.986   0.019  0.00  0.00    +0.010 A 
ATOM      6  C   UNL     1       0.500   1.179   0.000  0.00  0.00    +0.001 A 
ATOM      7  C   UNL     1      -0.776   1.727  -0.011  0.00  0.00    +0.002 A 
ATOM      8  C   UNL     1      -0.954   3.093   0.008  0.00  0.00    +0.026 A 
ATOM      9  C   UNL     1       0.155   3.934   0.027  0.00  0.00    +0.050 A 
ATOM     10  N   UNL     1       0.306   5.302   0.043  0.00  0.00    -0.339 N 
ENDROOT
BRANCH  10  11
ATOM     11  C   UNL     1      -0.793   6.271   0.043  0.00  0.00    +0.158 C 
BRANCH  11  12
ATOM     12  C   UNL     1      -1.057   6.731  -1.367  0.00  0.00    -0.009 A 
ATOM     13  C   UNL     1      -0.308   7.757  -1.911  0.00  0.00    +0.008 A 
ATOM     14  C   UNL     1      -0.546   8.175  -3.207  0.00  0.00    +0.020 A 
ATOM     15  C   UNL     1      -1.543   7.575  -3.956  0.00  0.00    +0.042 A 
ATOM     16  C   UNL     1      -2.296   6.552  -3.410  0.00  0.00    +0.040 A 
ATOM     17  C   UNL     1      -2.054   6.130  -2.115  0.00  0.00    +0.047 A 
ATOM     18 CL   UNL     1      -3.000   4.846  -1.429  0.00  0.00    -0.083 Cl
ATOM     19 CL   UNL     1      -1.847   8.105  -5.581  0.00  0.00    -0.083 Cl
ENDBRANCH  11  12
ENDBRANCH  10  11
BRANCH   3  20
ATOM     20  C   UNL     1       3.882   4.424   0.066  0.00  0.00    -0.044 C 
BRANCH  20  21
ATOM     21  N   UNL     1       4.377   4.414  -1.323  0.00  0.00    +0.382 N 
ATOM     22  H   UNL     1       4.077   5.274  -1.796  0.00  0.00    -0.085 HD
ATOM     23  H   UNL     1       3.989   3.600  -1.815  0.00  0.00    -0.085 HD
BRANCH  21  24
ATOM     24  C   UNL     1       5.850   4.336  -1.342  0.00  0.00    -0.071 C 
BRANCH  24  25
ATOM     25  C   UNL     1       6.333   4.327  -2.794  0.00  0.00    +0.058 C 
BRANCH  25  26
ATOM     26  S   UNL     1       8.140   4.232  -2.827  0.00  0.00    -0.086 S 
BRANCH  26  27
ATOM     27  C   UNL     1       8.415   4.238  -4.568  0.00  0.00    +0.214 A 
ATOM     28  N   UNL     1       7.493   4.298  -5.505  0.00  0.00    -0.101 NA
ATOM     29  N   UNL     1       8.034   4.283  -6.669  0.00  0.00    -0.022 NA
ATOM     30  N   UNL     1       9.317   4.214  -6.568  0.00  0.00    -0.038 NA
ATOM     31  N   UNL     1       9.617   4.187  -5.195  0.00  0.00    -0.187 N 
BRANCH  31  32
ATOM     32  C   UNL     1      10.886   4.120  -4.601  0.00  0.00    +0.070 A 
ATOM     33  C   UNL     1      11.132   4.790  -3.411  0.00  0.00    +0.028 A 
ATOM     34  C   UNL     1      12.381   4.718  -2.825  0.00  0.00    +0.002 A 
ATOM     35  C   UNL     1      13.389   3.988  -3.430  0.00  0.00    +0.000 A 
ATOM     36  C   UNL     1      13.147   3.324  -4.618  0.00  0.00    +0.002 A 
ATOM     37  C   UNL     1      11.899   3.388  -5.206  0.00  0.00    +0.028 A 
ENDBRANCH  31  32
ENDBRANCH  26  27
ENDBRANCH  25  26
ENDBRANCH  24  25
ENDBRANCH  21  24
ENDBRANCH  20  21
ENDBRANCH   3  20
TORSDOF 9
