REMARK  Name = ZINC13272972
REMARK  7 active torsions:
REMARK  status: ('A' for Active; 'I' for Inactive)
REMARK    1  A    between atoms: N_9  and  C_31
REMARK    2  A    between atoms: C_10  and  S_12
REMARK    3  A    between atoms: S_12  and  C_13
REMARK    4  A    between atoms: C_13  and  C_14
REMARK    5  A    between atoms: N_16  and  C_17
REMARK    6  A    between atoms: N_16  and  C_25
REMARK    7  A    between atoms: C_31  and  C_32
REMARK                            x       y       z     vdW  Elec       q    Type
REMARK                         _______ _______ _______ _____ _____    ______ ____
ROOT
ATOM      1  C   UNL     1       6.408  -1.315  -0.066  0.00  0.00    +0.173 C 
ENDROOT
BRANCH   1   2
ATOM      2  C   UNL     1       7.818  -1.846  -0.058  0.00  0.00    +0.226 C 
ATOM      3  O   UNL     1       8.017  -3.036   0.067  0.00  0.00    -0.275 OA
ATOM      4  N   UNL     1       8.858  -0.999  -0.190  0.00  0.00    -0.293 N 
BRANCH   4   5
ATOM      5  C   UNL     1       8.630   0.448  -0.181  0.00  0.00    +0.099 C 
ATOM      6  C   UNL     1       7.610   0.811  -1.273  0.00  0.00    +0.046 C 
ATOM      7  C   UNL     1       7.153   2.279  -1.040  0.00  0.00    +0.168 C 
ATOM      8  S   UNL     1       7.002   2.298   0.796  0.00  0.00    -0.029 S 
ATOM      9  O   UNL     1       7.591   3.491   1.296  0.00  0.00    -0.174 OA
ATOM     10  O   UNL     1       5.665   1.975   1.154  0.00  0.00    -0.174 OA
ATOM     11  C   UNL     1       8.091   0.875   1.206  0.00  0.00    +0.188 C 
ENDBRANCH   4   5
BRANCH   4  12
ATOM     12  C   UNL     1      10.217  -1.526  -0.342  0.00  0.00    +0.076 C 
ATOM     13  C   UNL     1      10.288  -2.397  -1.597  0.00  0.00    +0.022 C 
ATOM     14  C   UNL     1      11.707  -2.947  -1.756  0.00  0.00    +0.002 C 
ATOM     15  C   UNL     1      12.069  -3.788  -0.530  0.00  0.00    +0.000 C 
ATOM     16  C   UNL     1      11.997  -2.916   0.725  0.00  0.00    +0.002 C 
ATOM     17  C   UNL     1      10.578  -2.366   0.884  0.00  0.00    +0.022 C 
ENDBRANCH   4  12
ENDBRANCH   1   2
BRANCH   1  18
ATOM     18  S   UNL     1       5.285  -2.571   0.605  0.00  0.00    -0.078 S 
BRANCH  18  28
ATOM     19  C   UNL     1      -0.031   1.321  -0.184  0.00  0.00    +0.001 A 
ATOM     20  C   UNL     1       1.121   1.967  -0.613  0.00  0.00    +0.002 A 
ATOM     21  C   UNL     1       2.340   1.352  -0.544  0.00  0.00    +0.028 A 
ATOM     22  C   UNL     1       2.431   0.053  -0.034  0.00  0.00    +0.079 A 
ATOM     23  C   UNL     1       1.256  -0.601   0.401  0.00  0.00    +0.065 A 
ATOM     24  C   UNL     1       0.026   0.050   0.319  0.00  0.00    +0.015 A 
ATOM     25  C   UNL     1       1.378  -1.965   0.933  0.00  0.00    +0.263 A 
ATOM     26  O   UNL     1       0.403  -2.580   1.324  0.00  0.00    -0.267 OA
ATOM     27  N   UNL     1       2.615  -2.513   0.972  0.00  0.00    -0.276 N 
ATOM     28  C   UNL     1       3.698  -1.808   0.530  0.00  0.00    +0.173 A 
ATOM     29  N   UNL     1       3.612  -0.591   0.052  0.00  0.00    -0.223 NA
BRANCH  27  30
ATOM     30  C   UNL     1       2.794  -3.870   1.494  0.00  0.00    +0.252 C 
BRANCH  30  31
ATOM     31  C   UNL     1       2.664  -4.862   0.367  0.00  0.00    +0.375 C 
ATOM     32  O   UNL     1       2.442  -4.471  -0.767  0.00  0.00    -0.244 OA
ATOM     33  O   UNL     1       2.780  -6.055   0.589  0.00  0.00    -0.244 OA
ENDBRANCH  30  31
ENDBRANCH  27  30
ENDBRANCH  18  28
ENDBRANCH   1  18
TORSDOF 7
