REMARK  Name = ZINC23877055
REMARK  10 active torsions:
REMARK  status: ('A' for Active; 'I' for Inactive)
REMARK    1  A    between atoms: C_1  and  C_2
REMARK    2  A    between atoms: C_2  and  N_3
REMARK    3  A    between atoms: C_7  and  C_12
REMARK    4  A    between atoms: C_12  and  O_14
REMARK    5  A    between atoms: O_14  and  C_15
REMARK    6  A    between atoms: C_15  and  C_17
REMARK    7  A    between atoms: C_15  and  C_18
REMARK    8  A    between atoms: N_20  and  C_21
REMARK    9  A    between atoms: C_21  and  C_23
REMARK   10  A    between atoms: C_21  and  C_24
REMARK                            x       y       z     vdW  Elec       q    Type
REMARK                         _______ _______ _______ _____ _____    ______ ____
ROOT
ATOM      1  C   UNL     1      -3.583  -0.747   2.315  0.00  0.00    +0.259 C 
ATOM      2  C   UNL     1      -4.408  -0.808   1.028  0.00  0.00    +0.062 C 
ENDROOT
BRANCH   1   3
ATOM      3  C   UNL     1      -2.209  -0.209   2.006  0.00  0.00    +0.254 C 
ATOM      4  O   UNL     1      -1.234  -0.916   2.152  0.00  0.00    -0.272 OA
ATOM      5  N   UNL     1      -2.064   1.057   1.567  0.00  0.00    -0.306 N 
ATOM      6  H   UNL     1      -2.948   1.698   1.435  0.00  0.00    +0.149 HD
BRANCH   5   7
ATOM      7  C   UNL     1      -0.729   1.579   1.267  0.00  0.00    +0.102 C 
ATOM      8  C   UNL     1      -0.364   1.244  -0.181  0.00  0.00    +0.033 C 
BRANCH   7   9
ATOM      9  C   UNL     1      -0.721   3.075   1.453  0.00  0.00    -0.009 A 
ATOM     10  C   UNL     1      -1.889   3.797   1.294  0.00  0.00    +0.008 A 
ATOM     11  C   UNL     1      -1.883   5.168   1.465  0.00  0.00    +0.020 A 
ATOM     12  C   UNL     1      -0.707   5.819   1.795  0.00  0.00    +0.042 A 
ATOM     13  C   UNL     1       0.462   5.097   1.954  0.00  0.00    +0.040 A 
ATOM     14  C   UNL     1       0.454   3.724   1.789  0.00  0.00    +0.047 A 
ATOM     15 CL   UNL     1       1.919   2.816   1.996  0.00  0.00    -0.083 Cl
ATOM     16 CL   UNL     1      -0.699   7.542   2.009  0.00  0.00    -0.083 Cl
ENDBRANCH   7   9
ENDBRANCH   5   7
ENDBRANCH   1   3
BRANCH   1  17
ATOM     17  O   UNL     1      -3.465  -2.080   2.878  0.00  0.00    -0.449 OA
BRANCH  17  18
ATOM     18  C   UNL     1      -4.418  -2.462   3.750  0.00  0.00    +0.340 C 
ATOM     19  O   UNL     1      -5.323  -1.702   4.032  0.00  0.00    -0.245 OA
BRANCH  18  24
ATOM     20  N   UNL     1      -4.442  -7.487   6.208  0.00  0.00    -0.244 N 
ATOM     21  C   UNL     1      -4.234  -6.332   5.496  0.00  0.00    +0.089 A 
ATOM     22  C   UNL     1      -3.256  -5.921   4.593  0.00  0.00    +0.030 A 
ATOM     23  C   UNL     1      -3.321  -4.682   4.031  0.00  0.00    +0.017 A 
ATOM     24  C   UNL     1      -4.364  -3.804   4.363  0.00  0.00    +0.061 A 
ATOM     25  C   UNL     1      -5.348  -4.195   5.262  0.00  0.00    +0.046 A 
ATOM     26  C   UNL     1      -5.290  -5.467   5.838  0.00  0.00    +0.113 A 
ATOM     27  N   UNL     1      -6.081  -6.118   6.723  0.00  0.00    -0.129 NA
ATOM     28  N   UNL     1      -5.612  -7.293   6.956  0.00  0.00    -0.065 NA
BRANCH  20  30
ATOM     29  C   UNL     1      -4.098  -9.636   5.093  0.00  0.00    +0.029 C 
ATOM     30  C   UNL     1      -3.605  -8.689   6.189  0.00  0.00    +0.142 C 
ENDBRANCH  20  30
ENDBRANCH  18  24
ENDBRANCH  17  18
ENDBRANCH   1  17
TORSDOF 7
