REMARK  Name = ZINC46791276
REMARK  7 active torsions:
REMARK  status: ('A' for Active; 'I' for Inactive)
REMARK    1  A    between atoms: C_1  and  C_2
REMARK    2  A    between atoms: C_7  and  C_10
REMARK    3  A    between atoms: C_14  and  C_17
REMARK    4  A    between atoms: C_17  and  N_18
REMARK    5  A    between atoms: C_19  and  C_21
REMARK    6  A    between atoms: C_24  and  O_27
REMARK    7  A    between atoms: O_27  and  C_28
REMARK                            x       y       z     vdW  Elec       q    Type
REMARK                         _______ _______ _______ _____ _____    ______ ____
ROOT
ATOM      1  N   UNL     1       4.608   3.977  -5.181  0.00  0.00    -0.307 N 
ATOM      2  C   UNL     1       5.199   4.824  -6.046  0.00  0.00    +0.246 C 
ATOM      3  O   UNL     1       5.896   4.389  -6.943  0.00  0.00    -0.270 OA
ATOM      4  H   UNL     1       4.052   4.323  -4.465  0.00  0.00    +0.149 HD
ENDROOT
BRANCH   2   5
ATOM      5  C   UNL     1       5.000   6.280  -5.906  0.00  0.00    +0.055 A 
ATOM      6  C   UNL     1       5.606   7.171  -6.805  0.00  0.00    +0.020 A 
ATOM      7  C   UNL     1       5.390   8.522  -6.633  0.00  0.00    +0.068 A 
ATOM      8  C   UNL     1       4.585   8.955  -5.583  0.00  0.00    +0.220 A 
ATOM      9  N   UNL     1       4.028   8.088  -4.750  0.00  0.00    -0.220 NA
ATOM     10  C   UNL     1       4.203   6.790  -4.881  0.00  0.00    +0.127 A 
BRANCH   8  11
ATOM     11  O   UNL     1       4.370  10.281  -5.409  0.00  0.00    -0.438 OA
BRANCH  11  12
ATOM     12  C   UNL     1       3.669  10.675  -4.314  0.00  0.00    +0.131 A 
ATOM     13  C   UNL     1       4.273  10.673  -3.064  0.00  0.00    +0.046 A 
ATOM     14  C   UNL     1       3.559  11.074  -1.952  0.00  0.00    +0.005 A 
ATOM     15  C   UNL     1       2.243  11.478  -2.082  0.00  0.00    +0.015 A 
ATOM     16  C   UNL     1       1.637  11.481  -3.326  0.00  0.00    +0.021 A 
ATOM     17  C   UNL     1       2.350  11.086  -4.443  0.00  0.00    +0.061 A 
ATOM     18 BR   UNL     1      -0.163  12.032  -3.501  0.00  0.00    -0.050 Br
ENDBRANCH  11  12
ENDBRANCH   8  11
ENDBRANCH   2   5
BRANCH   1  19
ATOM     19  C   UNL     1       4.806   2.531  -5.320  0.00  0.00    +0.141 C 
BRANCH  19  31
ATOM     20  C   UNL     1      -0.045   1.550   0.001  0.00  0.00    +0.039 C 
ATOM     21  C   UNL     1      -0.054   0.020  -0.027  0.00  0.00    +0.133 C 
ATOM     22  C   UNL     1       0.650  -0.474  -1.296  0.00  0.00    +0.137 C 
ATOM     23  N   UNL     1       2.079  -0.138  -1.196  0.00  0.00    -0.312 N 
ATOM     24  C   UNL     1       2.794  -0.520   0.032  0.00  0.00    +0.137 C 
ATOM     25  C   UNL     1       1.986  -0.024   1.237  0.00  0.00    +0.133 C 
ATOM     26  O   UNL     1       0.636  -0.482   1.120  0.00  0.00    -0.371 OA
ATOM     27  C   UNL     1       2.603  -0.572   2.526  0.00  0.00    +0.039 C 
ATOM     28  C   UNL     1       2.733   0.521  -2.230  0.00  0.00    +0.099 A 
ATOM     29  C   UNL     1       2.066   0.761  -3.426  0.00  0.00    +0.042 A 
ATOM     30  C   UNL     1       2.729   1.418  -4.447  0.00  0.00    +0.010 A 
ATOM     31  C   UNL     1       4.043   1.814  -4.236  0.00  0.00    -0.014 A 
ATOM     32  C   UNL     1       4.645   1.543  -3.023  0.00  0.00    +0.089 A 
ATOM     33  N   UNL     1       3.985   0.919  -2.065  0.00  0.00    -0.349 N 
ATOM     34  H   UNL     1       4.430   0.745  -1.221  0.00  0.00    +0.167 HD
ENDBRANCH  19  31
ENDBRANCH   1  19
TORSDOF 5
