REMARK  Name = ZINC32605015
REMARK  4 active torsions:
REMARK  status: ('A' for Active; 'I' for Inactive)
REMARK    1  A    between atoms: C_4  and  N_7
REMARK    2  A    between atoms: N_7  and  N_8
REMARK    3  A    between atoms: C_9  and  C_11
REMARK    4  A    between atoms: C_14  and  N_17
REMARK                            x       y       z     vdW  Elec       q    Type
REMARK                         _______ _______ _______ _____ _____    ______ ____
ROOT
ATOM      1  C   UNL     1      -2.465  -5.898  -0.005  0.00  0.00    +0.038 A 
ATOM      2  C   UNL     1      -3.182  -4.699   0.008  0.00  0.00    +0.015 A 
ATOM      3  C   UNL     1      -2.510  -3.497   0.009  0.00  0.00    +0.025 A 
ATOM      4  C   UNL     1      -1.120  -3.476  -0.005  0.00  0.00    +0.045 A 
ATOM      5  C   UNL     1      -0.403  -4.668  -0.024  0.00  0.00    +0.025 A 
ATOM      6  C   UNL     1      -1.068  -5.873  -0.018  0.00  0.00    +0.015 A 
ENDROOT
BRANCH   4   7
ATOM      7  N   UNL     1      -0.441  -2.255  -0.005  0.00  0.00    -0.202 N 
ATOM      8  C   UNL     1      -1.042  -1.051   0.007  0.00  0.00    +0.258 C 
ATOM      9  O   UNL     1      -2.240  -0.856   0.020  0.00  0.00    -0.269 OA
ATOM     10  C   UNL     1       0.002  -0.004   0.002  0.00  0.00    +0.050 A 
ATOM     11  C   UNL     1      -0.017   1.381   0.010  0.00  0.00    +0.014 A 
ATOM     12  C   UNL     1       1.178   2.085   0.002  0.00  0.00    +0.001 A 
ATOM     13  C   UNL     1       2.386   1.414  -0.013  0.00  0.00    +0.001 A 
ATOM     14  C   UNL     1       2.421   0.028  -0.021  0.00  0.00    +0.014 A 
ATOM     15  C   UNL     1       1.234  -0.689  -0.013  0.00  0.00    +0.050 A 
ATOM     16  C   UNL     1       0.898  -2.127  -0.018  0.00  0.00    +0.258 C 
ATOM     17  O   UNL     1       1.696  -3.042  -0.030  0.00  0.00    -0.269 OA
ENDBRANCH   4   7
BRANCH   1  19
ATOM     18  N   UNL     1      -2.488  -8.345  -0.019  0.00  0.00    -0.232 N 
ATOM     19  C   UNL     1      -3.182  -7.189  -0.006  0.00  0.00    +0.260 C 
ATOM     20  O   UNL     1      -4.397  -7.209   0.004  0.00  0.00    -0.269 OA
ATOM     21  H   UNL     1      -1.389  -8.326  -0.029  0.00  0.00    +0.173 HD
BRANCH  18  22
ATOM     22  N   UNL     1      -3.168  -9.569  -0.021  0.00  0.00    -0.264 N 
ATOM     23  H   UNL     1      -4.268  -9.588  -0.011  0.00  0.00    +0.170 HD
BRANCH  22  27
ATOM     24  C   UNL     1      -1.027 -13.140  -0.062  0.00  0.00    +0.000 A 
ATOM     25  C   UNL     1      -2.410 -13.165  -0.049  0.00  0.00    +0.002 A 
ATOM     26  C   UNL     1      -3.123 -11.982  -0.035  0.00  0.00    +0.024 A 
ATOM     27  C   UNL     1      -2.450 -10.767  -0.034  0.00  0.00    +0.044 A 
ATOM     28  C   UNL     1      -1.061 -10.746  -0.052  0.00  0.00    +0.024 A 
ATOM     29  C   UNL     1      -0.354 -11.932  -0.061  0.00  0.00    +0.002 A 
ENDBRANCH  22  27
ENDBRANCH  18  22
ENDBRANCH   1  19
TORSDOF 4
