REMARK  Name = ZINC63362106
REMARK  10 active torsions:
REMARK  status: ('A' for Active; 'I' for Inactive)
REMARK    1  A    between atoms: C_1  and  C_2
REMARK    2  A    between atoms: C_2  and  C_3
REMARK    3  A    between atoms: C_3  and  C_4
REMARK    4  A    between atoms: C_4  and  C_5
REMARK    5  A    between atoms: C_5  and  C_6
REMARK    6  A    between atoms: C_6  and  C_8
REMARK    7  A    between atoms: C_6  and  N_9
REMARK    8  A    between atoms: C_10  and  C_12
REMARK    9  A    between atoms: C_16  and  N_18
REMARK   10  A    between atoms: C_21  and  C_37
REMARK                            x       y       z     vdW  Elec       q    Type
REMARK                         _______ _______ _______ _____ _____    ______ ____
ROOT
ATOM      1  N   UNL     1       3.147  -9.216  -2.520  0.00  0.00    -0.192 N 
ATOM      2  C   UNL     1       2.277 -10.112  -2.010  0.00  0.00    +0.253 C 
ATOM      3  O   UNL     1       1.605  -9.992  -1.008  0.00  0.00    -0.272 OA
ATOM      4  C   UNL     1       2.314 -11.297  -2.949  0.00  0.00    +0.137 C 
ATOM      5  C   UNL     1       2.735 -12.563  -2.204  0.00  0.00    +0.139 C 
ATOM      6  C   UNL     1       4.120 -12.945  -2.705  0.00  0.00    -0.034 C 
ATOM      7  C   UNL     1       4.898 -13.013  -1.628  0.00  0.00    -0.001 A 
ATOM      8  C   UNL     1       6.310 -13.396  -1.466  0.00  0.00    +0.010 A 
ATOM      9  C   UNL     1       6.803 -13.344  -0.200  0.00  0.00    +0.001 A 
ATOM     10  C   UNL     1       6.041 -12.955   0.907  0.00  0.00    +0.002 A 
ATOM     11  C   UNL     1       4.735 -12.591   0.850  0.00  0.00    +0.026 A 
ATOM     12  C   UNL     1       4.104 -12.610  -0.428  0.00  0.00    +0.043 A 
ATOM     13  N   UNL     1       2.864 -12.332  -0.764  0.00  0.00    -0.375 N 
ATOM     14  C   UNL     1       4.465 -13.116  -4.164  0.00  0.00    +0.052 C 
ATOM     15  C   UNL     1       3.971 -11.851  -4.895  0.00  0.00    +0.115 C 
ATOM     16  N   UNL     1       3.395 -10.948  -3.894  0.00  0.00    -0.268 N 
ATOM     17  C   UNL     1       3.752  -9.686  -3.620  0.00  0.00    +0.316 C 
ATOM     18  O   UNL     1       4.537  -9.043  -4.289  0.00  0.00    -0.252 OA
ATOM     19  C   UNL     1       0.977 -11.477  -3.672  0.00  0.00    +0.044 C 
ATOM     20  H   UNL     1       2.159 -12.024  -0.173  0.00  0.00    +0.160 HD
ENDROOT
BRANCH   1  25
ATOM     21  C   UNL     1       2.861  -6.237  -0.364  0.00  0.00    +0.038 A 
ATOM     22  C   UNL     1       3.871  -5.434  -0.897  0.00  0.00    +0.013 A 
ATOM     23  C   UNL     1       4.627  -5.891  -1.957  0.00  0.00    +0.003 A 
ATOM     24  C   UNL     1       4.388  -7.142  -2.494  0.00  0.00    +0.024 A 
ATOM     25  C   UNL     1       3.385  -7.948  -1.971  0.00  0.00    +0.046 A 
ATOM     26  C   UNL     1       2.624  -7.502  -0.902  0.00  0.00    +0.037 A 
BRANCH  21  28
ATOM     27  N   UNL     1       2.279  -4.529   1.291  0.00  0.00    -0.309 N 
ATOM     28  C   UNL     1       2.048  -5.751   0.772  0.00  0.00    +0.244 C 
ATOM     29  O   UNL     1       1.173  -6.454   1.238  0.00  0.00    -0.270 OA
ATOM     30  H   UNL     1       2.977  -3.968   0.919  0.00  0.00    +0.149 HD
BRANCH  27  31
ATOM     31  C   UNL     1       1.474  -4.047   2.417  0.00  0.00    +0.070 C 
ATOM     32  C   UNL     1       2.075  -4.556   3.728  0.00  0.00    +0.028 C 
BRANCH  31  33
ATOM     33  C   UNL     1       1.465  -2.517   2.420  0.00  0.00    +0.022 C 
BRANCH  33  34
ATOM     34  C   UNL     1       0.752  -2.009   1.165  0.00  0.00    +0.002 C 
BRANCH  34  35
ATOM     35  C   UNL     1       0.743  -0.479   1.168  0.00  0.00    -0.000 C 
BRANCH  35  37
ATOM     36  C   UNL     1       0.021   1.559  -0.084  0.00  0.00    +0.004 C 
ATOM     37  C   UNL     1       0.030   0.029  -0.087  0.00  0.00    -0.003 C 
ENDBRANCH  35  37
ENDBRANCH  34  35
ENDBRANCH  33  34
ENDBRANCH  31  33
ENDBRANCH  27  31
ENDBRANCH  21  28
ENDBRANCH   1  25
TORSDOF 7
