REMARK  Name = ZINC12199033
REMARK  7 active torsions:
REMARK  status: ('A' for Active; 'I' for Inactive)
REMARK    1  A    between atoms: C_3  and  C_9
REMARK    2  A    between atoms: C_9  and  N_65
REMARK    3  A    between atoms: C_15  and  C_17
REMARK    4  A    between atoms: C_17  and  C_18
REMARK    5  A    between atoms: N_20  and  C_21
REMARK    6  A    between atoms: C_21  and  C_22
REMARK    7  A    between atoms: C_22  and  N_67
REMARK                            x       y       z     vdW  Elec       q    Type
REMARK                         _______ _______ _______ _____ _____    ______ ____
ROOT
ATOM      1  C   UNL     1       2.067   0.317  -2.596  0.00  0.00    -0.058 C 
ATOM      2  C   UNL     1       1.649   1.347  -1.546  0.00  0.00    +0.085 C 
ATOM      3  N   UNL     1       2.794   2.172  -1.171  0.00  0.00    -0.318 N 
ATOM      4  C   UNL     1       4.059   1.810  -1.409  0.00  0.00    +0.200 C 
ATOM      5  O   UNL     1       4.953   2.541  -1.036  0.00  0.00    -0.278 OA
ATOM      6  C   UNL     1       4.421   0.536  -2.119  0.00  0.00    +0.028 C 
ATOM      7  H   UNL     1       2.630   3.019  -0.729  0.00  0.00    +0.149 HD
ATOM      8  N   UNL     1       3.268  -0.383  -2.098  0.00  0.00    +0.391 N 
ATOM      9  H   UNL     1       3.101  -0.690  -1.132  0.00  0.00    -0.080 HD
ENDROOT
BRANCH   8  10
ATOM     10  C   UNL     1       3.550  -1.570  -2.937  0.00  0.00    -0.039 C 
BRANCH  10  13
ATOM     11  C   UNL     1       2.997  -0.786  -6.589  0.00  0.00    +0.003 A 
ATOM     12  C   UNL     1       2.768  -1.168  -5.280  0.00  0.00    +0.005 A 
ATOM     13  C   UNL     1       3.801  -1.153  -4.363  0.00  0.00    -0.026 A 
ATOM     14  C   UNL     1       5.068  -0.754  -4.755  0.00  0.00    +0.160 A 
ATOM     15  C   UNL     1       5.298  -0.371  -6.067  0.00  0.00    +0.159 A 
ATOM     16  C   UNL     1       4.261  -0.388  -6.983  0.00  0.00    +0.041 A 
ATOM     17  F   UNL     1       6.533   0.018  -6.452  0.00  0.00    -0.202 F 
ATOM     18  F   UNL     1       6.079  -0.739  -3.859  0.00  0.00    -0.202 F 
ENDBRANCH  10  13
ENDBRANCH   8  10
BRANCH   6  19
ATOM     19  C   UNL     1       5.600  -0.127  -1.405  0.00  0.00    +0.089 C 
BRANCH  19  20
ATOM     20  C   UNL     1       5.210  -0.449   0.015  0.00  0.00    +0.212 C 
ATOM     21  O   UNL     1       4.129  -0.100   0.441  0.00  0.00    -0.276 OA
ATOM     22  N   UNL     1       6.062  -1.125   0.811  0.00  0.00    -0.317 N 
ATOM     23  H   UNL     1       6.926  -1.405   0.470  0.00  0.00    +0.149 HD
BRANCH  22  24
ATOM     24  C   UNL     1       5.683  -1.439   2.191  0.00  0.00    +0.092 C 
BRANCH  24  25
ATOM     25  C   UNL     1       6.864  -2.097   2.907  0.00  0.00    -0.050 C 
ATOM     26  C   UNL     1       8.059  -1.123   2.960  0.00  0.00    -0.010 C 
ATOM     27  C   UNL     1       9.298  -2.032   2.764  0.00  0.00    -0.001 C 
ATOM     28  C   UNL     1       8.803  -3.064   1.720  0.00  0.00    -0.001 C 
ATOM     29  C   UNL     1       7.337  -3.331   2.119  0.00  0.00    -0.010 C 
BRANCH  25  35
ATOM     30  C   UNL     1       5.433  -3.527   4.237  0.00  0.00    -0.078 C 
ATOM     31  C   UNL     1       5.155  -4.013   5.661  0.00  0.00    -0.019 C 
ATOM     32  C   UNL     1       4.696  -2.830   6.518  0.00  0.00    -0.004 C 
ATOM     33  C   UNL     1       5.774  -1.743   6.494  0.00  0.00    -0.019 C 
ATOM     34  C   UNL     1       6.034  -1.323   5.045  0.00  0.00    -0.078 C 
ATOM     35  N   UNL     1       6.496  -2.500   4.280  0.00  0.00    +0.384 N 
ATOM     36  H   UNL     1       7.323  -2.896   4.744  0.00  0.00    -0.081 HD
ENDBRANCH  25  35
ENDBRANCH  24  25
ENDBRANCH  22  24
ENDBRANCH  19  20
ENDBRANCH   6  19
TORSDOF 7
