REMARK  Name = ZINC39662381
REMARK  6 active torsions:
REMARK  status: ('A' for Active; 'I' for Inactive)
REMARK    1  A    between atoms: C_1  and  C_2
REMARK    2  A    between atoms: C_2  and  C_8
REMARK    3  A    between atoms: C_12  and  C_21
REMARK    4  A    between atoms: N_23  and  C_24
REMARK    5  A    between atoms: C_24  and  C_26
REMARK    6  A    between atoms: C_24  and  C_28
REMARK                            x       y       z     vdW  Elec       q    Type
REMARK                         _______ _______ _______ _____ _____    ______ ____
ROOT
ATOM      1  C   UNL     1      -1.303  -0.574   0.033  0.00  0.00    +0.222 C 
ATOM      2  O   UNL     1      -0.128  -0.273   0.056  0.00  0.00    -0.275 OA
ATOM      3  N   UNL     1      -2.083  -0.170  -0.989  0.00  0.00    -0.300 N 
ATOM      4  C   UNL     1      -1.671   0.556  -2.214  0.00  0.00    +0.121 C 
ATOM      5  C   UNL     1      -2.511  -0.079  -3.344  0.00  0.00    +0.100 C 
ATOM      6  C   UNL     1      -3.741  -0.670  -2.635  0.00  0.00    -0.004 C 
ATOM      7  C   UNL     1      -3.545  -0.356  -1.145  0.00  0.00    +0.115 C 
ATOM      8  C   UNL     1      -3.798  -2.180  -2.847  0.00  0.00    -0.010 C 
ATOM      9  C   UNL     1      -5.060  -2.736  -2.180  0.00  0.00    -0.082 C 
ATOM     10  N   UNL     1      -6.246  -2.095  -2.762  0.00  0.00    +0.379 N 
ATOM     11  C   UNL     1      -6.229  -0.656  -2.473  0.00  0.00    -0.082 C 
ATOM     12  C   UNL     1      -5.017  -0.011  -3.152  0.00  0.00    -0.010 C 
ATOM     13  H   UNL     1      -6.247  -2.236  -3.761  0.00  0.00    -0.086 HD
ATOM     14  H   UNL     1      -7.077  -2.506  -2.365  0.00  0.00    -0.086 HD
ENDROOT
BRANCH   1  16
ATOM     15  C   UNL     1      -2.347  -2.752   0.595  0.00  0.00    +0.021 C 
ATOM     16  C   UNL     1      -1.891  -1.401   1.148  0.00  0.00    +0.044 C 
ATOM     17  C   UNL     1      -3.089  -0.665   1.751  0.00  0.00    +0.016 C 
ATOM     18  C   UNL     1      -2.632   0.686   2.304  0.00  0.00    +0.001 C 
ATOM     19  C   UNL     1      -1.574   0.463   3.386  0.00  0.00    +0.000 C 
ATOM     20  C   UNL     1      -0.376  -0.273   2.783  0.00  0.00    +0.001 C 
ATOM     21  C   UNL     1      -0.832  -1.624   2.230  0.00  0.00    +0.016 C 
ENDBRANCH   1  16
BRANCH   5  22
ATOM     22  C   UNL     1      -1.728  -1.166  -4.034  0.00  0.00    +0.219 C 
ATOM     23  O   UNL     1      -0.838  -1.740  -3.442  0.00  0.00    -0.275 OA
ATOM     24  N   UNL     1      -2.015  -1.500  -5.307  0.00  0.00    -0.296 N 
ATOM     25  H   UNL     1      -2.676  -0.993  -5.804  0.00  0.00    +0.150 HD
BRANCH  24  26
ATOM     26  C   UNL     1      -1.329  -2.628  -5.941  0.00  0.00    +0.207 C 
BRANCH  26  27
ATOM     27  C   UNL     1      -2.134  -3.106  -7.123  0.00  0.00    -0.013 A 
ATOM     28  C   UNL     1      -2.746  -2.190  -7.958  0.00  0.00    +0.006 A 
ATOM     29  C   UNL     1      -3.484  -2.627  -9.041  0.00  0.00    +0.000 A 
ATOM     30  C   UNL     1      -3.610  -3.981  -9.290  0.00  0.00    +0.000 A 
ATOM     31  C   UNL     1      -2.997  -4.897  -8.456  0.00  0.00    +0.000 A 
ATOM     32  C   UNL     1      -2.256  -4.460  -7.375  0.00  0.00    +0.006 A 
ENDBRANCH  26  27
BRANCH  26  33
ATOM     33  C   UNL     1       0.003  -2.200  -6.396  0.00  0.00    +0.090 C 
ATOM     34  N   UNL     1       1.032  -1.869  -6.748  0.00  0.00    -0.194 NA
ENDBRANCH  26  33
ENDBRANCH  24  26
ENDBRANCH   5  22
TORSDOF 5
