REMARK  Name = ZINC35355695
REMARK  3 active torsions:
REMARK  status: ('A' for Active; 'I' for Inactive)
REMARK    1  A    between atoms: C_1  and  C_2
REMARK    2  A    between atoms: N_5  and  C_9
REMARK    3  A    between atoms: C_14  and  N_15
REMARK                            x       y       z     vdW  Elec       q    Type
REMARK                         _______ _______ _______ _____ _____    ______ ____
ROOT
ATOM      1  C   UNL     1       0.507  -2.807  -2.195  0.00  0.00    +0.053 A 
ATOM      2  C   UNL     1       1.413  -3.138  -3.191  0.00  0.00    +0.048 A 
ATOM      3  C   UNL     1       1.027  -3.982  -4.224  0.00  0.00    +0.038 A 
ATOM      4  C   UNL     1      -0.264  -4.492  -4.260  0.00  0.00    -0.024 A 
ATOM      5  C   UNL     1      -1.168  -4.162  -3.268  0.00  0.00    +0.030 A 
ATOM      6  C   UNL     1      -0.787  -3.325  -2.231  0.00  0.00    +0.046 A 
ATOM      7  C   UNL     1      -0.676  -5.408  -5.383  0.00  0.00    +0.046 C 
ATOM      8  C   UNL     1       0.036  -4.991  -6.671  0.00  0.00    +0.101 C 
ATOM      9  C   UNL     1       1.507  -4.810  -6.407  0.00  0.00    +0.218 C 
ATOM     10  O   UNL     1       2.311  -5.111  -7.264  0.00  0.00    -0.275 OA
ATOM     11  N   UNL     1       1.940  -4.319  -5.232  0.00  0.00    -0.285 N 
ATOM     12  H   UNL     1       2.890  -4.198  -5.081  0.00  0.00    +0.155 HD
ENDROOT
BRANCH   1  16
ATOM     13  C   UNL     1      -0.019   1.526   0.010  0.00  0.00    +0.039 C 
ATOM     14  C   UNL     1       0.002  -0.004   0.002  0.00  0.00    +0.132 C 
ATOM     15  C   UNL     1       0.722  -0.499  -1.258  0.00  0.00    +0.136 C 
ATOM     16  N   UNL     1       0.894  -1.957  -1.151  0.00  0.00    -0.324 N 
ATOM     17  C   UNL     1       1.483  -2.495   0.085  0.00  0.00    +0.133 C 
ATOM     18  C   UNL     1       0.726  -1.903   1.280  0.00  0.00    +0.179 C 
ATOM     19  O   UNL     1       0.695  -0.479   1.159  0.00  0.00    -0.374 OA
ENDBRANCH   1  16
BRANCH   6  20
ATOM     20  N   UNL     1      -1.703  -2.995  -1.222  0.00  0.00    -0.357 N 
ATOM     21  H   UNL     1      -1.437  -2.407  -0.498  0.00  0.00    +0.142 HD
ATOM     22  H   UNL     1      -2.603  -3.356  -1.248  0.00  0.00    +0.142 HD
ENDBRANCH   6  20
TORSDOF 2
