REMARK  Name = ZINC15773910
REMARK  7 active torsions:
REMARK  status: ('A' for Active; 'I' for Inactive)
REMARK    1  A    between atoms: C_4  and  C_7
REMARK    2  A    between atoms: C_17  and  C_19
REMARK    3  A    between atoms: N_21  and  C_22
REMARK    4  A    between atoms: C_22  and  C_23
REMARK    5  A    between atoms: C_23  and  C_24
REMARK    6  A    between atoms: C_27  and  S_30
REMARK    7  A    between atoms: S_30  and  N_33
REMARK                            x       y       z     vdW  Elec       q    Type
REMARK                         _______ _______ _______ _____ _____    ______ ____
ROOT
ATOM      1  C   UNL     1       1.833   3.156  -1.438  0.00  0.00    +0.234 C 
ATOM      2  O   UNL     1       1.713   3.229  -2.643  0.00  0.00    -0.274 OA
ATOM      3  N   UNL     1       2.979   3.553  -0.850  0.00  0.00    -0.313 N 
ATOM      4  H   UNL     1       3.075   3.494   0.113  0.00  0.00    +0.149 HD
ENDROOT
BRANCH   1  15
ATOM      5  C   UNL     1      -0.433   1.369  -2.436  0.00  0.00    +0.252 C 
ATOM      6  O   UNL     1      -1.452   1.128  -3.053  0.00  0.00    -0.270 OA
ATOM      7  N   UNL     1      -0.445   2.285  -1.447  0.00  0.00    -0.255 N 
ATOM      8  C   UNL     1      -1.554   3.055  -1.078  0.00  0.00    +0.041 A 
ATOM      9  C   UNL     1      -2.844   3.063  -1.613  0.00  0.00    +0.024 A 
ATOM     10  C   UNL     1      -3.804   3.909  -1.101  0.00  0.00    +0.002 A 
ATOM     11  C   UNL     1      -3.497   4.758  -0.053  0.00  0.00    +0.000 A 
ATOM     12  C   UNL     1      -2.222   4.756   0.482  0.00  0.00    +0.005 A 
ATOM     13  C   UNL     1      -1.256   3.910  -0.028  0.00  0.00    -0.024 A 
ATOM     14  C   UNL     1       0.191   3.707   0.362  0.00  0.00    +0.069 C 
ATOM     15  C   UNL     1       0.702   2.621  -0.599  0.00  0.00    +0.172 C 
BRANCH   5  19
ATOM     16  C   UNL     1       3.165  -0.675  -3.392  0.00  0.00    +0.000 A 
ATOM     17  C   UNL     1       2.383  -0.147  -4.404  0.00  0.00    +0.001 A 
ATOM     18  C   UNL     1       1.213   0.518  -4.100  0.00  0.00    +0.013 A 
ATOM     19  C   UNL     1       0.819   0.658  -2.768  0.00  0.00    +0.037 A 
ATOM     20  C   UNL     1       1.616   0.128  -1.752  0.00  0.00    +0.013 A 
ATOM     21  C   UNL     1       2.780  -0.540  -2.070  0.00  0.00    +0.001 A 
ENDBRANCH   5  19
ENDBRANCH   1  15
BRANCH   3  22
ATOM     22  C   UNL     1       4.080   4.072  -1.666  0.00  0.00    +0.109 C 
BRANCH  22  23
ATOM     23  C   UNL     1       5.253   4.449  -0.759  0.00  0.00    +0.054 C 
BRANCH  23  24
ATOM     24  C   UNL     1       6.385   4.983  -1.599  0.00  0.00    -0.046 A 
ATOM     25  C   UNL     1       7.348   4.122  -2.090  0.00  0.00    +0.005 A 
ATOM     26  C   UNL     1       8.384   4.611  -2.863  0.00  0.00    +0.029 A 
ATOM     27  C   UNL     1       8.462   5.964  -3.138  0.00  0.00    +0.105 A 
ATOM     28  C   UNL     1       7.501   6.826  -2.642  0.00  0.00    +0.029 A 
ATOM     29  C   UNL     1       6.463   6.336  -1.873  0.00  0.00    +0.005 A 
BRANCH  27  30
ATOM     30  S   UNL     1       9.785   6.589  -4.119  0.00  0.00    +0.056 S 
ATOM     31  O   UNL     1      10.247   5.506  -4.915  0.00  0.00    -0.153 OA
ATOM     32  O   UNL     1       9.329   7.810  -4.685  0.00  0.00    -0.153 OA
BRANCH  30  33
ATOM     33  N   UNL     1      11.019   6.978  -3.086  0.00  0.00    -0.204 NA
ATOM     34  H   UNL     1      10.914   6.841  -2.131  0.00  0.00    +0.144 HD
ATOM     35  H   UNL     1      11.848   7.343  -3.435  0.00  0.00    +0.144 HD
ENDBRANCH  30  33
ENDBRANCH  27  30
ENDBRANCH  23  24
ENDBRANCH  22  23
ENDBRANCH   3  22
TORSDOF 7
