REMARK  Name = ZINC50675496
REMARK  4 active torsions:
REMARK  status: ('A' for Active; 'I' for Inactive)
REMARK    1  A    between atoms: C_1  and  N_2
REMARK    2  A    between atoms: N_2  and  C_3
REMARK    3  A    between atoms: C_8  and  S_9
REMARK    4  A    between atoms: S_9  and  N_12
REMARK                            x       y       z     vdW  Elec       q    Type
REMARK                         _______ _______ _______ _____ _____    ______ ____
ROOT
ATOM      1  S   UNL     1       0.355  -2.971  -0.017  0.00  0.00    +0.103 S 
ATOM      2  O   UNL     1       1.158  -2.394   1.004  0.00  0.00    -0.146 OA
ATOM      3  O   UNL     1       0.042  -4.356  -0.049  0.00  0.00    -0.146 OA
ENDROOT
BRANCH   1   4
ATOM      4  N   UNL     1       1.096  -2.620  -1.456  0.00  0.00    -0.103 NA
ATOM      5  C   UNL     1       2.267  -3.138  -1.733  0.00  0.00    +0.192 A 
ATOM      6  N   UNL     1       3.042  -3.986  -0.986  0.00  0.00    -0.336 N 
ATOM      7  C   UNL     1       4.267  -4.416  -1.480  0.00  0.00    +0.028 A 
ATOM      8  C   UNL     1       4.634  -3.970  -2.680  0.00  0.00    +0.012 A 
ATOM      9  S   UNL     1       3.280  -2.933  -3.189  0.00  0.00    -0.053 S 
ATOM     10  C   UNL     1       5.976  -4.495  -3.107  0.00  0.00    +0.044 C 
ATOM     11  C   UNL     1       6.617  -5.020  -1.803  0.00  0.00    +0.011 C 
ATOM     12  C   UNL     1       5.371  -5.340  -0.954  0.00  0.00    +0.054 C 
ATOM     13  H   UNL     1       2.736  -4.285  -0.115  0.00  0.00    +0.168 HD
ENDBRANCH   1   4
BRANCH   1  19
ATOM     14  C   UNL     1      -1.198  -0.719   0.010  0.00  0.00    +0.054 A 
ATOM     15  C   UNL     1      -2.411  -0.042   0.019  0.00  0.00    +0.025 A 
ATOM     16  C   UNL     1      -3.596  -0.752   0.026  0.00  0.00    +0.002 A 
ATOM     17  C   UNL     1      -3.575  -2.135   0.024  0.00  0.00    +0.002 A 
ATOM     18  C   UNL     1      -2.369  -2.811   0.015  0.00  0.00    +0.031 A 
ATOM     19  C   UNL     1      -1.181  -2.108   0.002  0.00  0.00    +0.133 A 
BRANCH  14  21
ATOM     20  C   UNL     1      -0.018   1.461   0.010  0.00  0.00    +0.125 C 
ATOM     21  N   UNL     1       0.002  -0.004   0.002  0.00  0.00    -0.345 N 
ATOM     22  H   UNL     1       0.849  -0.478  -0.009  0.00  0.00    +0.146 HD
ENDBRANCH  14  21
ENDBRANCH   1  19
TORSDOF 3
