REMARK  Name = ZINC36202657
REMARK  14 active torsions:
REMARK  status: ('A' for Active; 'I' for Inactive)
REMARK    1  A    between atoms: C_1  and  C_2
REMARK    2  A    between atoms: C_5  and  C_7
REMARK    3  A    between atoms: C_7  and  N_8
REMARK    4  A    between atoms: N_8  and  C_9
REMARK    5  A    between atoms: N_8  and  C_14
REMARK    6  A    between atoms: C_9  and  C_10
REMARK    7  A    between atoms: C_10  and  C_11
REMARK    8  A    between atoms: C_11  and  O_12
REMARK    9  A    between atoms: O_12  and  C_13
REMARK   10  A    between atoms: C_14  and  C_15
REMARK   11  A    between atoms: C_18  and  C_20
REMARK   12  A    between atoms: C_20  and  C_21
REMARK   13  A    between atoms: C_20  and  C_28
REMARK   14  A    between atoms: C_20  and  O_35
REMARK                            x       y       z     vdW  Elec       q    Type
REMARK                         _______ _______ _______ _____ _____    ______ ____
ROOT
ATOM      1  C   UNL     1       4.128  -4.308  -3.012  0.00  0.00    +0.089 A 
ATOM      2  C   UNL     1       4.951  -3.950  -4.014  0.00  0.00    +0.043 A 
ATOM      3  C   UNL     1       4.447  -4.548  -5.191  0.00  0.00    +0.048 A 
ATOM      4  C   UNL     1       3.346  -5.237  -4.838  0.00  0.00    +0.146 A 
ATOM      5  O   UNL     1       3.162  -5.092  -3.516  0.00  0.00    -0.463 OA
ENDROOT
BRANCH   1   6
ATOM      6  C   UNL     1       4.271  -3.903  -1.567  0.00  0.00    -0.003 C 
BRANCH   6   7
ATOM      7  N   UNL     1       3.647  -2.589  -1.363  0.00  0.00    +0.389 N 
ATOM      8  H   UNL     1       4.046  -1.924  -2.007  0.00  0.00    -0.081 HD
BRANCH   7   9
ATOM      9  C   UNL     1       2.200  -2.692  -1.598  0.00  0.00    -0.003 C 
BRANCH   9  14
ATOM     10  C   UNL     1      -0.017   1.427   0.288  0.00  0.00    +0.086 C 
ATOM     11  C   UNL     1       0.614   0.468  -0.689  0.00  0.00    +0.102 A 
ATOM     12  C   UNL     1       0.795   0.691  -2.003  0.00  0.00    +0.044 A 
ATOM     13  C   UNL     1       1.417  -0.464  -2.532  0.00  0.00    +0.043 A 
ATOM     14  C   UNL     1       1.578  -1.323  -1.509  0.00  0.00    +0.089 A 
ATOM     15  O   UNL     1       1.095  -0.750  -0.394  0.00  0.00    -0.467 OA
ENDBRANCH   9  14
ENDBRANCH   7   9
BRANCH   7  16
ATOM     16  C   UNL     1       3.888  -2.142   0.015  0.00  0.00    -0.075 C 
BRANCH  16  17
ATOM     17  C   UNL     1       5.383  -1.881   0.212  0.00  0.00    +0.009 C 
BRANCH  17  18
ATOM     18  C   UNL     1       5.630  -1.381   1.637  0.00  0.00    +0.157 C 
BRANCH  18  19
ATOM     19  O   UNL     1       7.026  -1.139   1.821  0.00  0.00    -0.383 OA
ATOM     20  C   UNL     1       7.367  -0.666   3.126  0.00  0.00    +0.193 C 
ENDBRANCH  18  19
ENDBRANCH  17  18
ENDBRANCH  16  17
ENDBRANCH   7  16
ENDBRANCH   6   7
ENDBRANCH   1   6
BRANCH   4  21
ATOM     21  C   UNL     1       2.472  -6.038  -5.768  0.00  0.00    +0.174 C 
BRANCH  21  22
ATOM     22  C   UNL     1       1.853  -7.185  -5.011  0.00  0.00    -0.002 A 
ATOM     23  C   UNL     1       2.191  -8.487  -5.331  0.00  0.00    +0.007 A 
ATOM     24  C   UNL     1       1.624  -9.539  -4.638  0.00  0.00    +0.003 A 
ATOM     25  C   UNL     1       0.717  -9.292  -3.624  0.00  0.00    +0.038 A 
ATOM     26  C   UNL     1       0.378  -7.988  -3.303  0.00  0.00    +0.124 A 
ATOM     27  C   UNL     1       0.952  -6.934  -3.994  0.00  0.00    +0.045 A 
ATOM     28  F   UNL     1      -0.508  -7.745  -2.313  0.00  0.00    -0.205 F 
ENDBRANCH  21  22
BRANCH  21  29
ATOM     29  C   UNL     1       1.384  -5.155  -6.321  0.00  0.00    -0.002 A 
ATOM     30  C   UNL     1       0.740  -4.252  -5.495  0.00  0.00    +0.007 A 
ATOM     31  C   UNL     1      -0.258  -3.441  -6.000  0.00  0.00    +0.003 A 
ATOM     32  C   UNL     1      -0.615  -3.532  -7.332  0.00  0.00    +0.038 A 
ATOM     33  C   UNL     1       0.028  -4.435  -8.160  0.00  0.00    +0.124 A 
ATOM     34  C   UNL     1       1.033  -5.243  -7.654  0.00  0.00    +0.045 A 
ATOM     35  F   UNL     1      -0.320  -4.525  -9.463  0.00  0.00    -0.205 F 
ENDBRANCH  21  29
BRANCH  21  36
ATOM     36  O   UNL     1       3.263  -6.549  -6.843  0.00  0.00    -0.372 OA
ATOM     37  H   UNL     1       3.985  -7.127  -6.561  0.00  0.00    +0.212 HD
ENDBRANCH  21  36
ENDBRANCH   4  21
TORSDOF 12
