REMARK  Name = ZINC39466459
REMARK  6 active torsions:
REMARK  status: ('A' for Active; 'I' for Inactive)
REMARK    1  A    between atoms: C_4  and  C_7
REMARK    2  A    between atoms: C_7  and  C_8
REMARK    3  A    between atoms: P_17  and  C_33
REMARK    4  A    between atoms: C_25  and  C_26
REMARK    5  A    between atoms: C_26  and  C_27
REMARK    6  A    between atoms: C_33  and  C_34
REMARK                            x       y       z     vdW  Elec       q    Type
REMARK                         _______ _______ _______ _____ _____    ______ ____
ROOT
ATOM      1  C   UNL     1       4.057  -1.074   1.440  0.00  0.00    -0.043 C 
ATOM      2  C   UNL     1       3.820  -2.280   1.947  0.00  0.00    -0.019 C 
ATOM      3  C   UNL     1       4.337  -2.631   3.316  0.00  0.00    +0.016 C 
ATOM      4  C   UNL     1       4.507  -4.137   3.450  0.00  0.00    -0.003 C 
ATOM      5  C   UNL     1       5.577  -4.484   4.495  0.00  0.00    -0.020 C 
ATOM      6  C   UNL     1       5.170  -5.850   5.066  0.00  0.00    +0.156 C 
ATOM      7  O   UNL     1       6.128  -6.290   6.043  0.00  0.00    -0.319 OA
ATOM      8  P   UNL     1       6.519  -5.243   7.226  0.00  0.00    +0.262 P 
ATOM      9  O   UNL     1       7.825  -5.604   7.822  0.00  0.00    -0.274 OA
ATOM     10  N   UNL     1       6.615  -3.777   6.478  0.00  0.00    -0.291 NA
ATOM     11  N   UNL     1       5.657  -3.465   5.535  0.00  0.00    +0.397 N 
ATOM     12  C   UNL     1       6.096  -2.163   5.009  0.00  0.00    -0.046 C 
ATOM     13  C   UNL     1       5.694  -1.967   3.541  0.00  0.00    +0.005 C 
ATOM     14  C   UNL     1       5.599  -0.499   3.221  0.00  0.00    -0.021 C 
ATOM     15  C   UNL     1       4.822  -0.090   2.225  0.00  0.00    -0.044 C 
ATOM     16  H   UNL     1       7.322  -3.153   6.703  0.00  0.00    +0.111 HD
ATOM     17  H   UNL     1       4.756  -3.363   5.977  0.00  0.00    -0.055 HD
ENDROOT
BRANCH   1  18
ATOM     18  C   UNL     1       3.552  -0.717   0.065  0.00  0.00    +0.070 C 
BRANCH  18  22
ATOM     19  C   UNL     1       6.612  -1.469  -2.819  0.00  0.00    +0.000 A 
ATOM     20  C   UNL     1       5.782  -2.496  -2.408  0.00  0.00    +0.000 A 
ATOM     21  C   UNL     1       4.792  -2.252  -1.474  0.00  0.00    +0.004 A 
ATOM     22  C   UNL     1       4.632  -0.983  -0.952  0.00  0.00    -0.043 A 
ATOM     23  C   UNL     1       5.462   0.044  -1.362  0.00  0.00    +0.004 A 
ATOM     24  C   UNL     1       6.451  -0.199  -2.297  0.00  0.00    +0.000 A 
ENDBRANCH  18  22
ENDBRANCH   1  18
BRANCH  15  25
ATOM     25  C   UNL     1       4.718   1.379   1.904  0.00  0.00    +0.070 C 
BRANCH  25  26
ATOM     26  C   UNL     1       3.531   1.968   2.621  0.00  0.00    -0.043 A 
ATOM     27  C   UNL     1       2.317   2.082   1.970  0.00  0.00    +0.004 A 
ATOM     28  C   UNL     1       1.228   2.622   2.628  0.00  0.00    +0.000 A 
ATOM     29  C   UNL     1       1.352   3.047   3.938  0.00  0.00    +0.000 A 
ATOM     30  C   UNL     1       2.566   2.932   4.589  0.00  0.00    +0.000 A 
ATOM     31  C   UNL     1       3.654   2.388   3.933  0.00  0.00    +0.004 A 
ENDBRANCH  25  26
ENDBRANCH  15  25
BRANCH   8  32
ATOM     32  C   UNL     1       5.223  -5.222   8.508  0.00  0.00    +0.147 C 
BRANCH  32  33
ATOM     33  C   UNL     1       5.079  -6.601   9.100  0.00  0.00    -0.037 A 
ATOM     34  C   UNL     1       4.194  -7.503   8.540  0.00  0.00    +0.004 A 
ATOM     35  C   UNL     1       4.062  -8.768   9.082  0.00  0.00    +0.000 A 
ATOM     36  C   UNL     1       4.815  -9.130  10.184  0.00  0.00    +0.000 A 
ATOM     37  C   UNL     1       5.700  -8.228  10.743  0.00  0.00    +0.000 A 
ATOM     38  C   UNL     1       5.835  -6.964  10.198  0.00  0.00    +0.004 A 
ENDBRANCH  32  33
ENDBRANCH   8  32
TORSDOF 6
