REMARK  Name = ZINC59120614
REMARK  9 active torsions:
REMARK  status: ('A' for Active; 'I' for Inactive)
REMARK    1  A    between atoms: C_1  and  C_2
REMARK    2  A    between atoms: C_2  and  O_3
REMARK    3  A    between atoms: O_3  and  C_4
REMARK    4  A    between atoms: C_4  and  C_6
REMARK    5  A    between atoms: N_8  and  C_29
REMARK    6  A    between atoms: C_13  and  C_22
REMARK    7  A    between atoms: N_15  and  C_16
REMARK    8  A    between atoms: C_25  and  C_28
REMARK    9  A    between atoms: C_34  and  N_35
REMARK                            x       y       z     vdW  Elec       q    Type
REMARK                         _______ _______ _______ _____ _____    ______ ____
ROOT
ATOM      1  C   UNL     1      -2.347  -2.716  -0.582  0.00  0.00    +0.203 C 
ATOM      2  N   UNL     1      -3.365  -1.938  -0.325  0.00  0.00    -0.163 NA
ATOM      3  N   UNL     1      -4.639  -2.419  -0.098  0.00  0.00    -0.186 N 
ATOM      4  C   UNL     1      -4.772  -3.878  -0.167  0.00  0.00    +0.195 C 
ATOM      5  S   UNL     1      -3.048  -4.360  -0.556  0.00  0.00    -0.049 S 
ATOM      6  C   UNL     1      -5.209  -4.476   1.162  0.00  0.00    +0.068 C 
ATOM      7  C   UNL     1      -5.242  -6.002   1.029  0.00  0.00    +0.062 C 
ATOM      8  C   UNL     1      -5.960  -6.405  -0.226  0.00  0.00    +0.067 C 
ATOM      9  N   UNL     1      -6.135  -5.625  -1.236  0.00  0.00    -0.181 NA
ATOM     10  N   UNL     1      -5.668  -4.301  -1.234  0.00  0.00    -0.189 N 
ENDROOT
BRANCH   8  11
ATOM     11  C   UNL     1      -6.498  -7.776  -0.306  0.00  0.00    -0.002 A 
ATOM     12  C   UNL     1      -6.339  -8.657   0.766  0.00  0.00    +0.010 A 
ATOM     13  C   UNL     1      -6.845  -9.937   0.683  0.00  0.00    +0.004 A 
ATOM     14  C   UNL     1      -7.508 -10.350  -0.458  0.00  0.00    -0.050 A 
ATOM     15  C   UNL     1      -7.670  -9.483  -1.525  0.00  0.00    +0.004 A 
ATOM     16  C   UNL     1      -7.175  -8.198  -1.454  0.00  0.00    +0.010 A 
ATOM     17  C   UNL     1      -8.057 -11.751  -0.541  0.00  0.00    +0.044 C 
ENDBRANCH   8  11
BRANCH  10  18
ATOM     18  C   UNL     1      -6.053  -3.408  -2.235  0.00  0.00    +0.055 A 
ATOM     19  C   UNL     1      -5.092  -2.689  -2.936  0.00  0.00    +0.025 A 
ATOM     20  C   UNL     1      -5.478  -1.807  -3.926  0.00  0.00    +0.002 A 
ATOM     21  C   UNL     1      -6.818  -1.637  -4.220  0.00  0.00    +0.000 A 
ATOM     22  C   UNL     1      -7.778  -2.351  -3.524  0.00  0.00    +0.002 A 
ATOM     23  C   UNL     1      -7.399  -3.240  -2.538  0.00  0.00    +0.025 A 
ENDBRANCH  10  18
BRANCH   3  24
ATOM     24  C   UNL     1      -5.720  -1.580   0.177  0.00  0.00    +0.085 A 
ATOM     25  C   UNL     1      -6.546  -1.148  -0.855  0.00  0.00    +0.027 A 
ATOM     26  C   UNL     1      -7.614  -0.317  -0.579  0.00  0.00    +0.002 A 
ATOM     27  C   UNL     1      -7.862   0.085   0.721  0.00  0.00    +0.002 A 
ATOM     28  C   UNL     1      -7.042  -0.342   1.749  0.00  0.00    +0.035 A 
ATOM     29  C   UNL     1      -5.976  -1.178   1.482  0.00  0.00    +0.149 A 
BRANCH  29  30
ATOM     30  N   UNL     1      -5.102  -1.641   2.585  0.00  0.00    +0.058 N 
ATOM     31  O   UNL     1      -5.326  -1.291   3.720  0.00  0.00    -0.126 OA
ATOM     32  O   UNL     1      -4.166  -2.368   2.349  0.00  0.00    -0.126 OA
ENDBRANCH  29  30
ENDBRANCH   3  24
BRANCH   1  33
ATOM     33  C   UNL     1      -0.955  -2.329  -0.838  0.00  0.00    +0.366 C 
ATOM     34  O   UNL     1      -0.120  -3.183  -1.069  0.00  0.00    -0.243 OA
BRANCH  33  35
ATOM     35  O   UNL     1      -0.601  -1.028  -0.818  0.00  0.00    -0.460 OA
BRANCH  35  37
ATOM     36  C   UNL     1       0.980   0.790  -1.011  0.00  0.00    +0.048 C 
ATOM     37  C   UNL     1       0.771  -0.724  -1.076  0.00  0.00    +0.229 C 
ENDBRANCH  35  37
ENDBRANCH  33  35
ENDBRANCH   1  33
TORSDOF 7
