REMARK  Name = ZINC13213375
REMARK  8 active torsions:
REMARK  status: ('A' for Active; 'I' for Inactive)
REMARK    1  A    between atoms: C_4  and  O_32
REMARK    2  A    between atoms: C_5  and  C_7
REMARK    3  A    between atoms: C_9  and  C_24
REMARK    4  A    between atoms: N_13  and  C_14
REMARK    5  A    between atoms: C_18  and  C_20
REMARK    6  A    between atoms: C_24  and  C_26
REMARK    7  A    between atoms: O_32  and  C_33
REMARK    8  A    between atoms: C_33  and  C_34
REMARK                            x       y       z     vdW  Elec       q    Type
REMARK                         _______ _______ _______ _____ _____    ______ ____
ROOT
ATOM      1  C   UNL     1       0.962  -1.836   0.146  0.00  0.00    +0.153 C 
ATOM      2  C   UNL     1       1.118  -2.639   1.416  0.00  0.00    +0.077 C 
ATOM      3  C   UNL     1       0.119  -3.552   1.426  0.00  0.00    +0.250 C 
ATOM      4  C   UNL     1      -0.699  -3.389   0.208  0.00  0.00    +0.292 C 
ATOM      5  O   UNL     1      -1.671  -4.062  -0.073  0.00  0.00    -0.266 OA
ATOM      6  N   UNL     1      -0.209  -2.386  -0.545  0.00  0.00    -0.253 N 
ATOM      7  O   UNL     1      -0.095  -4.470   2.397  0.00  0.00    -0.282 OA
ENDROOT
BRANCH   1  12
ATOM      8  C   UNL     1      -0.375   1.302   1.766  0.00  0.00    +0.001 A 
ATOM      9  C   UNL     1       0.316   2.285   1.083  0.00  0.00    +0.004 A 
ATOM     10  C   UNL     1       1.216   1.939   0.095  0.00  0.00    +0.046 A 
ATOM     11  C   UNL     1       1.428   0.602  -0.211  0.00  0.00    +0.127 A 
ATOM     12  C   UNL     1       0.735  -0.383   0.476  0.00  0.00    +0.020 A 
ATOM     13  C   UNL     1      -0.166  -0.031   1.464  0.00  0.00    +0.009 A 
BRANCH  11  14
ATOM     14  O   UNL     1       2.314   0.259  -1.183  0.00  0.00    -0.477 OA
BRANCH  14  15
ATOM     15  C   UNL     1       2.904   1.325  -1.930  0.00  0.00    +0.346 C 
BRANCH  15  16
ATOM     16  C   UNL     1       3.737   0.767  -3.007  0.00  0.00    +0.104 C 
ATOM     17  N   UNL     1       4.381   0.336  -3.838  0.00  0.00    -0.193 NA
ENDBRANCH  15  16
ENDBRANCH  14  15
ENDBRANCH  11  14
ENDBRANCH   1  12
BRANCH   6  18
ATOM     18  C   UNL     1      -0.726  -1.946  -1.768  0.00  0.00    +0.038 A 
ATOM     19  C   UNL     1      -0.113  -0.896  -2.443  0.00  0.00    +0.023 A 
ATOM     20  C   UNL     1      -0.619  -0.456  -3.652  0.00  0.00    +0.003 A 
ATOM     21  C   UNL     1      -1.735  -1.057  -4.198  0.00  0.00    +0.015 A 
ATOM     22  C   UNL     1      -2.359  -2.112  -3.528  0.00  0.00    +0.065 A 
ATOM     23  C   UNL     1      -1.845  -2.559  -2.309  0.00  0.00    +0.038 A 
BRANCH  22  24
ATOM     24  C   UNL     1      -3.553  -2.756  -4.108  0.00  0.00    +0.387 C 
ATOM     25  O   UNL     1      -3.999  -2.365  -5.178  0.00  0.00    -0.241 OA
ATOM     26  O   UNL     1      -4.097  -3.680  -3.520  0.00  0.00    -0.241 OA
ENDBRANCH  22  24
ENDBRANCH   6  18
BRANCH   2  27
ATOM     27  C   UNL     1       2.153  -2.463   2.442  0.00  0.00    +0.202 C 
ATOM     28  O   UNL     1       2.079  -3.076   3.493  0.00  0.00    -0.286 OA
BRANCH  27  29
ATOM     29  C   UNL     1       3.273  -1.552   2.203  0.00  0.00    +0.061 A 
ATOM     30  C   UNL     1       4.258  -1.124   3.086  0.00  0.00    +0.021 A 
ATOM     31  C   UNL     1       5.188  -0.258   2.567  0.00  0.00    +0.028 A 
ATOM     32  C   UNL     1       5.088   0.114   1.263  0.00  0.00    +0.079 A 
ATOM     33  S   UNL     1       3.734  -0.707   0.702  0.00  0.00    -0.074 S 
ATOM     34 CL   UNL     1       6.127   1.187   0.378  0.00  0.00    -0.076 Cl
ENDBRANCH  27  29
ENDBRANCH   2  27
TORSDOF 8
