REMARK  Name = ZINC54641491
REMARK  15 active torsions:
REMARK  status: ('A' for Active; 'I' for Inactive)
REMARK    1  A    between atoms: C_1  and  C_2
REMARK    2  A    between atoms: C_2  and  N_3
REMARK    3  A    between atoms: N_3  and  C_4
REMARK    4  A    between atoms: C_4  and  C_5
REMARK    5  A    between atoms: C_6  and  C_8
REMARK    6  A    between atoms: C_8  and  O_9
REMARK    7  A    between atoms: O_9  and  C_10
REMARK    8  A    between atoms: C_13  and  C_19
REMARK    9  A    between atoms: C_15  and  O_16
REMARK   10  A    between atoms: O_16  and  C_17
REMARK   11  A    between atoms: C_17  and  C_18
REMARK   12  A    between atoms: C_21  and  C_30
REMARK   13  A    between atoms: C_22  and  C_29
REMARK   14  A    between atoms: C_30  and  O_32
REMARK   15  A    between atoms: O_32  and  C_33
REMARK                            x       y       z     vdW  Elec       q    Type
REMARK                         _______ _______ _______ _____ _____    ______ ____
ROOT
ATOM      1  C   UNL     1       7.404  -3.122   6.188  0.00  0.00    +0.181 C 
ATOM      2  C   UNL     1       7.220  -2.153   7.326  0.00  0.00    +0.082 C 
ATOM      3  C   UNL     1       6.676  -2.499   8.503  0.00  0.00    +0.020 C 
ATOM      4  N   UNL     1       6.251  -3.778   8.766  0.00  0.00    -0.286 N 
ATOM      5  C   UNL     1       6.632  -4.772   7.877  0.00  0.00    +0.240 A 
ATOM      6  N   UNL     1       7.178  -4.480   6.667  0.00  0.00    -0.201 N 
ATOM      7  N   UNL     1       7.436  -5.710   6.066  0.00  0.00    -0.042 NA
ATOM      8  N   UNL     1       7.045  -6.617   6.902  0.00  0.00    -0.021 NA
ATOM      9  N   UNL     1       6.570  -6.070   7.969  0.00  0.00    -0.092 NA
ATOM     10  C   UNL     1       6.526  -1.449   9.573  0.00  0.00    +0.061 C 
ATOM     11  H   UNL     1       5.706  -3.978   9.543  0.00  0.00    +0.155 HD
ENDROOT
BRANCH   1  15
ATOM     12  C   UNL     1       4.602  -2.221   3.085  0.00  0.00    +0.163 A 
ATOM     13  C   UNL     1       4.153  -2.556   4.353  0.00  0.00    +0.050 A 
ATOM     14  C   UNL     1       5.061  -2.846   5.354  0.00  0.00    +0.010 A 
ATOM     15  C   UNL     1       6.418  -2.804   5.093  0.00  0.00    -0.015 A 
ATOM     16  C   UNL     1       6.873  -2.471   3.831  0.00  0.00    +0.055 A 
ATOM     17  C   UNL     1       5.968  -2.184   2.822  0.00  0.00    +0.162 A 
BRANCH  12  18
ATOM     18  O   UNL     1       3.710  -1.935   2.100  0.00  0.00    -0.479 OA
BRANCH  18  19
ATOM     19  C   UNL     1       2.324  -1.993   2.442  0.00  0.00    +0.324 C 
BRANCH  19  21
ATOM     20  N   UNL     1       0.148  -1.639   1.321  0.00  0.00    -0.299 N 
ATOM     21  C   UNL     1       1.493  -1.649   1.234  0.00  0.00    +0.253 C 
ATOM     22  O   UNL     1       2.034  -1.380   0.182  0.00  0.00    -0.272 OA
BRANCH  20  24
ATOM     23  C   UNL     1      -0.907   0.205   0.110  0.00  0.00    +0.024 C 
ATOM     24  C   UNL     1      -0.660  -1.304   0.146  0.00  0.00    +0.104 C 
ENDBRANCH  20  24
BRANCH  20  25
ATOM     25  C   UNL     1      -0.506  -1.963   2.591  0.00  0.00    +0.104 C 
ATOM     26  C   UNL     1      -0.768  -3.469   2.660  0.00  0.00    +0.024 C 
ENDBRANCH  20  25
ENDBRANCH  19  21
ENDBRANCH  18  19
ENDBRANCH  12  18
BRANCH  17  27
ATOM     27  O   UNL     1       6.413  -1.862   1.578  0.00  0.00    -0.489 OA
BRANCH  27  28
ATOM     28  C   UNL     1       7.829  -1.844   1.380  0.00  0.00    +0.226 C 
ATOM     29  C   UNL     1       8.136  -1.463  -0.069  0.00  0.00    +0.048 C 
ENDBRANCH  27  28
ENDBRANCH  17  27
ENDBRANCH   1  15
BRANCH   2  30
ATOM     30  C   UNL     1       7.641  -0.816   7.147  0.00  0.00    +0.339 C 
ATOM     31  O   UNL     1       8.827  -0.544   7.169  0.00  0.00    -0.245 OA
BRANCH  30  32
ATOM     32  O   UNL     1       6.728   0.158   6.952  0.00  0.00    -0.458 OA
BRANCH  32  33
ATOM     33  C   UNL     1       7.224   1.487   6.778  0.00  0.00    +0.177 C 
ATOM     34  C   UNL     1       7.326   2.176   8.140  0.00  0.00    +0.044 C 
ATOM     35  C   UNL     1       7.858   3.598   7.954  0.00  0.00    +0.004 C 
ATOM     36  C   UNL     1       6.903   4.386   7.054  0.00  0.00    +0.000 C 
ATOM     37  C   UNL     1       6.801   3.697   5.692  0.00  0.00    +0.004 C 
ATOM     38  C   UNL     1       6.270   2.274   5.878  0.00  0.00    +0.044 C 
ENDBRANCH  32  33
ENDBRANCH  30  32
ENDBRANCH   2  30
TORSDOF 11
