REMARK  Name = ZINC04663761
REMARK  5 active torsions:
REMARK  status: ('A' for Active; 'I' for Inactive)
REMARK    1  A    between atoms: C_1  and  C_2
REMARK    2  A    between atoms: C_4  and  C_29
REMARK    3  A    between atoms: C_6  and  N_8
REMARK    4  A    between atoms: C_9  and  C_20
REMARK    5  A    between atoms: C_23  and  N_26
REMARK                            x       y       z     vdW  Elec       q    Type
REMARK                         _______ _______ _______ _____ _____    ______ ____
ROOT
ATOM      1  N   UNL     1       3.621  -0.650  -0.035  0.00  0.00    -0.244 N 
ATOM      2  C   UNL     1       4.866   0.109  -0.154  0.00  0.00    +0.198 C 
ATOM      3  N   UNL     1       5.943  -0.560   0.585  0.00  0.00    -0.321 N 
ATOM      4  C   UNL     1       6.070  -1.940   0.479  0.00  0.00    +0.041 A 
ATOM      5  C   UNL     1       7.295  -2.572   0.615  0.00  0.00    +0.024 A 
ATOM      6  C   UNL     1       7.370  -3.948   0.512  0.00  0.00    +0.002 A 
ATOM      7  C   UNL     1       6.230  -4.700   0.276  0.00  0.00    +0.001 A 
ATOM      8  C   UNL     1       5.003  -4.086   0.134  0.00  0.00    +0.015 A 
ATOM      9  C   UNL     1       4.914  -2.699   0.229  0.00  0.00    +0.058 A 
ATOM     10  C   UNL     1       3.631  -1.994   0.066  0.00  0.00    +0.254 C 
ATOM     11  O   UNL     1       2.589  -2.621   0.018  0.00  0.00    -0.270 OA
ATOM     12  H   UNL     1       6.555  -0.048   1.137  0.00  0.00    +0.148 HD
ENDROOT
BRANCH   1  18
ATOM     13  C   UNL     1      -0.828   0.103  -1.987  0.00  0.00    +0.044 C 
ATOM     14  C   UNL     1       0.225   0.416  -0.955  0.00  0.00    -0.048 A 
ATOM     15  C   UNL     1      -0.017   1.378   0.009  0.00  0.00    +0.006 A 
ATOM     16  C   UNL     1       0.946   1.668   0.958  0.00  0.00    -0.048 A 
ATOM     17  C   UNL     1       2.153   0.997   0.946  0.00  0.00    +0.027 A 
ATOM     18  C   UNL     1       2.400   0.031  -0.021  0.00  0.00    +0.039 A 
ATOM     19  C   UNL     1       1.430  -0.258  -0.972  0.00  0.00    +0.027 A 
ATOM     20  C   UNL     1       0.678   2.717   2.006  0.00  0.00    +0.044 C 
ENDBRANCH   1  18
BRANCH   2  21
ATOM     21  C   UNL     1       5.249   0.215  -1.608  0.00  0.00    -0.009 A 
ATOM     22  C   UNL     1       4.269   0.220  -2.583  0.00  0.00    +0.009 A 
ATOM     23  C   UNL     1       4.620   0.322  -3.916  0.00  0.00    +0.033 A 
ATOM     24  C   UNL     1       5.952   0.408  -4.275  0.00  0.00    +0.126 A 
ATOM     25  C   UNL     1       6.933   0.397  -3.301  0.00  0.00    +0.033 A 
ATOM     26  C   UNL     1       6.581   0.300  -1.967  0.00  0.00    +0.009 A 
BRANCH  24  27
ATOM     27  N   UNL     1       6.328   0.512  -5.703  0.00  0.00    +0.056 N 
ATOM     28  O   UNL     1       7.502   0.587  -6.019  0.00  0.00    -0.126 OA
ATOM     29  O   UNL     1       5.464   0.522  -6.561  0.00  0.00    -0.126 OA
ENDBRANCH  24  27
ENDBRANCH   2  21
TORSDOF 3
