REMARK  Name = ZINC36586588
REMARK  14 active torsions:
REMARK  status: ('A' for Active; 'I' for Inactive)
REMARK    1  A    between atoms: C_1  and  C_2
REMARK    2  A    between atoms: C_5  and  S_8
REMARK    3  A    between atoms: S_8  and  C_11
REMARK    4  A    between atoms: C_11  and  N_12
REMARK    5  A    between atoms: C_13  and  C_15
REMARK    6  A    between atoms: C_15  and  C_17
REMARK    7  A    between atoms: C_15  and  N_23
REMARK    8  A    between atoms: N_23  and  C_34
REMARK    9  A    between atoms: C_24  and  C_26
REMARK   10  A    between atoms: C_27  and  O_33
REMARK   11  A    between atoms: C_31  and  O_32
REMARK   12  A    between atoms: C_34  and  C_35
REMARK   13  A    between atoms: C_34  and  C_36
REMARK   14  A    between atoms: C_34  and  C_37
REMARK                            x       y       z     vdW  Elec       q    Type
REMARK                         _______ _______ _______ _____ _____    ______ ____
ROOT
ATOM      1  C   UNL     1       3.208  -4.081   3.792  0.00  0.00    +0.166 C 
ENDROOT
BRANCH   1   2
ATOM      2  C   UNL     1       4.669  -3.737   3.491  0.00  0.00    +0.019 C 
ATOM      3  C   UNL     1       5.391  -3.395   4.796  0.00  0.00    +0.006 C 
ATOM      4  C   UNL     1       6.851  -3.051   4.495  0.00  0.00    +0.000 C 
ATOM      5  C   UNL     1       6.908  -1.850   3.550  0.00  0.00    +0.000 C 
ATOM      6  C   UNL     1       6.186  -2.192   2.245  0.00  0.00    +0.000 C 
ATOM      7  C   UNL     1       4.726  -2.536   2.546  0.00  0.00    +0.006 C 
ENDBRANCH   1   2
BRANCH   1   9
ATOM      8  N   UNL     1       1.577  -3.931   1.939  0.00  0.00    -0.295 N 
ATOM      9  C   UNL     1       2.555  -4.629   2.550  0.00  0.00    +0.235 C 
ATOM     10  O   UNL     1       2.909  -5.698   2.099  0.00  0.00    -0.274 OA
ATOM     11  H   UNL     1       1.243  -3.112   2.338  0.00  0.00    +0.150 HD
BRANCH   8  12
ATOM     12  C   UNL     1       1.018  -4.409   0.672  0.00  0.00    +0.278 C 
BRANCH  12  13
ATOM     13  S   UNL     1      -0.477  -5.383   1.000  0.00  0.00    +0.013 S 
ATOM     14  O   UNL     1      -0.233  -6.317   2.042  0.00  0.00    -0.168 OA
ATOM     15  O   UNL     1      -1.066  -5.801  -0.224  0.00  0.00    -0.168 OA
BRANCH  13  20
ATOM     16  C   UNL     1      -4.411  -1.453   3.340  0.00  0.00    +0.044 C 
ATOM     17  C   UNL     1      -3.428  -2.435   2.756  0.00  0.00    -0.050 A 
ATOM     18  C   UNL     1      -3.381  -2.634   1.389  0.00  0.00    +0.005 A 
ATOM     19  C   UNL     1      -2.479  -3.534   0.852  0.00  0.00    +0.027 A 
ATOM     20  C   UNL     1      -1.625  -4.235   1.683  0.00  0.00    +0.090 A 
ATOM     21  C   UNL     1      -1.672  -4.035   3.050  0.00  0.00    +0.027 A 
ATOM     22  C   UNL     1      -2.570  -3.131   3.586  0.00  0.00    +0.005 A 
ENDBRANCH  13  20
ENDBRANCH  12  13
ENDBRANCH   8  12
ENDBRANCH   1   9
BRANCH   1  23
ATOM     23  N   UNL     1       3.152  -5.085   4.857  0.00  0.00    -0.280 N 
ATOM     24  C   UNL     1       2.567  -4.788   6.034  0.00  0.00    +0.255 C 
ATOM     25  O   UNL     1       2.011  -3.716   6.183  0.00  0.00    -0.270 OA
BRANCH  24  26
ATOM     26  C   UNL     1       2.600  -5.760   7.139  0.00  0.00    +0.119 A 
ATOM     27  C   UNL     1       3.649  -5.736   8.070  0.00  0.00    +0.133 A 
ATOM     28  C   UNL     1       3.670  -6.655   9.106  0.00  0.00    +0.046 A 
ATOM     29  C   UNL     1       2.662  -7.594   9.225  0.00  0.00    +0.007 A 
ATOM     30  C   UNL     1       1.624  -7.627   8.313  0.00  0.00    +0.046 A 
ATOM     31  C   UNL     1       1.580  -6.713   7.272  0.00  0.00    +0.133 A 
BRANCH  31  32
ATOM     32  O   UNL     1       0.557  -6.744   6.382  0.00  0.00    -0.506 OA
ATOM     33  H   UNL     1       0.663  -7.404   5.684  0.00  0.00    +0.292 HD
ENDBRANCH  31  32
BRANCH  27  34
ATOM     34  O   UNL     1       4.640  -4.816   7.955  0.00  0.00    -0.506 OA
ATOM     35  H   UNL     1       4.466  -3.990   8.427  0.00  0.00    +0.292 HD
ENDBRANCH  27  34
ENDBRANCH  24  26
BRANCH  23  36
ATOM     36  C   UNL     1       3.732  -6.413   4.643  0.00  0.00    +0.030 C 
ATOM     37  C   UNL     1       4.881  -6.312   3.637  0.00  0.00    +0.031 C 
ATOM     38  C   UNL     1       4.263  -6.959   5.970  0.00  0.00    +0.031 C 
ATOM     39  C   UNL     1       2.659  -7.357   4.096  0.00  0.00    +0.031 C 
ENDBRANCH  23  36
ENDBRANCH   1  23
TORSDOF 10
