REMARK  Name = ZINC40291882
REMARK  4 active torsions:
REMARK  status: ('A' for Active; 'I' for Inactive)
REMARK    1  A    between atoms: C_1  and  C_2
REMARK    2  A    between atoms: C_3  and  C_18
REMARK    3  A    between atoms: C_7  and  C_8
REMARK    4  A    between atoms: N_9  and  O_10
REMARK                            x       y       z     vdW  Elec       q    Type
REMARK                         _______ _______ _______ _____ _____    ______ ____
ROOT
ATOM      1  C   UNL     1      -0.018   1.503   0.010  0.00  0.00    +0.046 C 
ATOM      2  C   UNL     1       0.002  -0.004   0.002  0.00  0.00    -0.014 A 
ATOM      3  C   UNL     1       0.006  -0.712  -1.188  0.00  0.00    +0.064 A 
ATOM      4  N   UNL     1       0.024  -2.031  -1.174  0.00  0.00    -0.152 NA
ATOM      5  N   UNL     1       0.039  -2.710  -0.086  0.00  0.00    -0.129 NA
ATOM      6  C   UNL     1       0.037  -2.134   1.106  0.00  0.00    +0.187 A 
ATOM      7  C   UNL     1       0.023  -0.733   1.197  0.00  0.00    +0.068 A 
ATOM      8  N   UNL     1       0.053  -2.914   2.263  0.00  0.00    -0.218 N 
ATOM      9  C   UNL     1      -0.388  -4.195   2.373  0.00  0.00    +0.131 A 
ATOM     10  C   UNL     1      -0.197  -4.586   3.654  0.00  0.00    +0.056 A 
ATOM     11  C   UNL     1       0.378  -3.515   4.351  0.00  0.00    +0.150 A 
ATOM     12  N   UNL     1       0.533  -2.518   3.518  0.00  0.00    -0.172 NA
ATOM     13 BR   UNL     1      -0.629  -6.279   4.377  0.00  0.00    -0.047 Br
ATOM     14  C   UNL     1      -0.010   0.026  -2.502  0.00  0.00    +0.068 C 
ENDROOT
BRANCH   7  15
ATOM     15  C   UNL     1       0.026  -0.050   2.510  0.00  0.00    +0.166 C 
ATOM     16  N   UNL     1      -1.099   0.234   3.098  0.00  0.00    -0.071 NA
ATOM     17  N   UNL     1       1.226   0.286   3.114  0.00  0.00    -0.340 N 
ATOM     18  H   UNL     1       2.065   0.074   2.675  0.00  0.00    +0.144 HD
ATOM     19  H   UNL     1       1.228   0.733   3.974  0.00  0.00    +0.144 HD
BRANCH  16  20
ATOM     20  O   UNL     1      -1.097   0.887   4.354  0.00  0.00    -0.408 OA
ATOM     21  H   UNL     1      -1.979   1.056   4.711  0.00  0.00    +0.328 HD
ENDBRANCH  16  20
ENDBRANCH   7  15
TORSDOF 2
