REMARK  Name = ZINC39696263
REMARK  8 active torsions:
REMARK  status: ('A' for Active; 'I' for Inactive)
REMARK    1  A    between atoms: C_1  and  C_2
REMARK    2  A    between atoms: C_2  and  C_3
REMARK    3  A    between atoms: C_6  and  C_9
REMARK    4  A    between atoms: C_9  and  C_11
REMARK    5  A    between atoms: C_9  and  N_12
REMARK    6  A    between atoms: C_13  and  C_15
REMARK    7  A    between atoms: C_26  and  C_28
REMARK    8  A    between atoms: C_31  and  C_33
REMARK                            x       y       z     vdW  Elec       q    Type
REMARK                         _______ _______ _______ _____ _____    ______ ____
ROOT
ATOM      1  C   UNL     1      -8.330  -0.554  -1.977  0.00  0.00    +0.100 C 
ATOM      2  C   UNL     1      -8.015   0.958  -2.002  0.00  0.00    +0.121 C 
ATOM      3  N   UNL     1      -9.312   1.606  -2.306  0.00  0.00    -0.294 N 
ATOM      4  C   UNL     1     -10.306   0.822  -1.534  0.00  0.00    +0.115 C 
ATOM      5  C   UNL     1      -9.834  -0.640  -1.669  0.00  0.00    -0.004 C 
ATOM      6  C   UNL     1     -10.064  -1.390  -0.360  0.00  0.00    -0.010 C 
ATOM      7  C   UNL     1     -11.568  -1.513  -0.105  0.00  0.00    -0.082 C 
ATOM      8  N   UNL     1     -12.199  -2.229  -1.221  0.00  0.00    +0.379 N 
ATOM      9  C   UNL     1     -12.054  -1.454  -2.459  0.00  0.00    -0.082 C 
ATOM     10  C   UNL     1     -10.570  -1.329  -2.814  0.00  0.00    -0.010 C 
ATOM     11  C   UNL     1      -9.538   2.667  -3.105  0.00  0.00    +0.282 C 
ATOM     12  O   UNL     1     -10.671   3.086  -3.255  0.00  0.00    -0.267 OA
ATOM     13  H   UNL     1     -11.757  -3.129  -1.335  0.00  0.00    -0.086 HD
ATOM     14  H   UNL     1     -13.179  -2.362  -1.022  0.00  0.00    -0.086 HD
ENDROOT
BRANCH  11  15
ATOM     15  C   UNL     1      -8.420   3.317  -3.793  0.00  0.00    +0.190 A 
ATOM     16  C   UNL     1      -8.509   4.409  -4.630  0.00  0.00    +0.055 A 
ATOM     17  C   UNL     1      -7.210   4.693  -5.062  0.00  0.00    +0.050 A 
ATOM     18  C   UNL     1      -6.383   3.775  -4.480  0.00  0.00    +0.136 A 
ATOM     19  O   UNL     1      -7.122   2.956  -3.714  0.00  0.00    -0.450 OA
BRANCH  18  20
ATOM     20  C   UNL     1      -4.919   3.700  -4.659  0.00  0.00    +0.017 A 
ATOM     21  C   UNL     1      -4.264   4.622  -5.478  0.00  0.00    +0.011 A 
ATOM     22  C   UNL     1      -2.897   4.546  -5.640  0.00  0.00    +0.001 A 
ATOM     23  C   UNL     1      -2.174   3.559  -4.994  0.00  0.00    +0.000 A 
ATOM     24  C   UNL     1      -2.817   2.641  -4.181  0.00  0.00    +0.001 A 
ATOM     25  C   UNL     1      -4.183   2.709  -4.006  0.00  0.00    +0.011 A 
ENDBRANCH  18  20
ENDBRANCH  11  15
BRANCH   1  27
ATOM     26  N   UNL     1      -7.184  -2.533  -1.033  0.00  0.00    -0.308 N 
ATOM     27  C   UNL     1      -7.533  -1.239  -0.896  0.00  0.00    +0.219 C 
ATOM     28  O   UNL     1      -7.206  -0.624   0.097  0.00  0.00    -0.275 OA
ATOM     29  H   UNL     1      -7.446  -3.025  -1.828  0.00  0.00    +0.149 HD
BRANCH  26  30
ATOM     30  C   UNL     1      -6.409  -3.198   0.018  0.00  0.00    +0.100 C 
ATOM     31  C   UNL     1      -7.359  -3.721   1.098  0.00  0.00    +0.033 C 
BRANCH  30  35
ATOM     32  C   UNL     1      -4.235  -6.467  -1.667  0.00  0.00    -0.048 A 
ATOM     33  C   UNL     1      -3.644  -5.663  -0.711  0.00  0.00    +0.004 A 
ATOM     34  C   UNL     1      -4.347  -4.605  -0.166  0.00  0.00    +0.006 A 
ATOM     35  C   UNL     1      -5.642  -4.351  -0.577  0.00  0.00    -0.027 A 
ATOM     36  C   UNL     1      -6.234  -5.155  -1.534  0.00  0.00    +0.006 A 
ATOM     37  C   UNL     1      -5.529  -6.210  -2.082  0.00  0.00    +0.004 A 
BRANCH  32  39
ATOM     38  C   UNL     1      -2.704  -7.141  -3.497  0.00  0.00    +0.009 C 
ATOM     39  C   UNL     1      -3.468  -7.620  -2.261  0.00  0.00    +0.032 C 
ENDBRANCH  32  39
ENDBRANCH  30  35
ENDBRANCH  26  30
ENDBRANCH   1  27
TORSDOF 6
