REMARK  Name = ZINC06444041
REMARK  10 active torsions:
REMARK  status: ('A' for Active; 'I' for Inactive)
REMARK    1  A    between atoms: C_1  and  C_2
REMARK    2  A    between atoms: C_12  and  C_14
REMARK    3  A    between atoms: C_14  and  C_16
REMARK    4  A    between atoms: C_14  and  N_69
REMARK    5  A    between atoms: N_20  and  C_21
REMARK    6  A    between atoms: C_21  and  C_22
REMARK    7  A    between atoms: C_28  and  C_29
REMARK    8  A    between atoms: C_28  and  N_69
REMARK    9  A    between atoms: C_34  and  C_35
REMARK   10  A    between atoms: C_34  and  N_69
REMARK                            x       y       z     vdW  Elec       q    Type
REMARK                         _______ _______ _______ _____ _____    ______ ____
ROOT
ATOM      1  C   UNL     1      -1.750   1.271  -1.486  0.00  0.00    +0.039 C 
ENDROOT
BRANCH   1  13
ATOM      2  C   UNL     1      -5.558  -1.851   2.868  0.00  0.00    +0.046 C 
ATOM      3  C   UNL     1      -5.870  -1.258   1.518  0.00  0.00    -0.026 A 
ATOM      4  C   UNL     1      -7.149  -1.327   1.010  0.00  0.00    +0.005 A 
ATOM      5  C   UNL     1      -7.449  -0.785  -0.232  0.00  0.00    +0.001 A 
ATOM      6  C   UNL     1      -6.481  -0.172  -0.975  0.00  0.00    +0.010 A 
ATOM      7  C   UNL     1      -5.175  -0.090  -0.480  0.00  0.00    -0.001 A 
ATOM      8  C   UNL     1      -4.867  -0.639   0.779  0.00  0.00    +0.052 A 
ATOM      9  N   UNL     1      -3.579  -0.555   1.262  0.00  0.00    -0.322 N 
ATOM     10  H   UNL     1      -3.368  -0.935   2.130  0.00  0.00    +0.169 HD
ATOM     11  C   UNL     1      -2.608   0.038   0.545  0.00  0.00    +0.251 A 
ATOM     12  O   UNL     1      -1.479   0.089   1.001  0.00  0.00    -0.268 OA
ATOM     13  C   UNL     1      -2.866   0.609  -0.720  0.00  0.00    +0.011 A 
ATOM     14  C   UNL     1      -4.113   0.560  -1.250  0.00  0.00    +0.017 A 
ENDBRANCH   1  13
BRANCH   1  15
ATOM     15  C   UNL     1      -0.617   0.294  -1.667  0.00  0.00    +0.143 A 
ATOM     16  N   UNL     1       0.336   0.032  -0.806  0.00  0.00    -0.115 NA
ATOM     17  N   UNL     1       1.110  -0.856  -1.328  0.00  0.00    -0.023 NA
ATOM     18  N   UNL     1       0.676  -1.168  -2.499  0.00  0.00    -0.044 NA
ATOM     19  N   UNL     1      -0.390  -0.484  -2.743  0.00  0.00    -0.228 N 
BRANCH  19  20
ATOM     20  C   UNL     1      -1.200  -0.540  -3.962  0.00  0.00    +0.178 C 
BRANCH  20  21
ATOM     21  C   UNL     1      -0.586   0.373  -5.025  0.00  0.00    +0.140 C 
ATOM     22  C   UNL     1      -1.455   0.350  -6.301  0.00  0.00    +0.035 C 
ATOM     23  C   UNL     1      -0.384   0.360  -7.428  0.00  0.00    +0.031 C 
ATOM     24  C   UNL     1       0.748  -0.468  -6.768  0.00  0.00    +0.160 C 
ATOM     25  O   UNL     1       0.718  -0.102  -5.379  0.00  0.00    -0.375 OA
ENDBRANCH  20  21
ENDBRANCH  19  20
ENDBRANCH   1  15
BRANCH   1  26
ATOM     26  N   UNL     1      -1.258   2.433  -0.717  0.00  0.00    +0.396 N 
ATOM     27  H   UNL     1      -0.784   2.096   0.129  0.00  0.00    -0.080 HD
BRANCH  26  28
ATOM     28  C   UNL     1      -2.393   3.294  -0.322  0.00  0.00    -0.002 C 
BRANCH  28  29
ATOM     29  C   UNL     1      -2.839   2.893   1.060  0.00  0.00    +0.089 A 
ATOM     30  C   UNL     1      -2.289   3.307   2.216  0.00  0.00    +0.042 A 
ATOM     31  C   UNL     1      -3.011   2.684   3.259  0.00  0.00    +0.041 A 
ATOM     32  C   UNL     1      -3.960   1.927   2.679  0.00  0.00    +0.195 A 
ATOM     33  O   UNL     1      -3.851   2.057   1.347  0.00  0.00    -0.470 OA
ENDBRANCH  28  29
ENDBRANCH  26  28
BRANCH  26  34
ATOM     34  C   UNL     1      -0.296   3.207  -1.530  0.00  0.00    -0.045 C 
BRANCH  34  35
ATOM     35  C   UNL     1       1.102   2.622  -1.319  0.00  0.00    +0.102 C 
ATOM     36  C   UNL     1       2.162   3.734  -1.462  0.00  0.00    +0.032 C 
ATOM     37  C   UNL     1       3.306   3.005  -2.218  0.00  0.00    +0.030 C 
ATOM     38  C   UNL     1       2.494   2.041  -3.120  0.00  0.00    +0.160 C 
ATOM     39  O   UNL     1       1.372   1.634  -2.321  0.00  0.00    -0.378 OA
ENDBRANCH  34  35
ENDBRANCH  26  34
ENDBRANCH   1  26
TORSDOF 9
