REMARK  Name = ZINC19802335
REMARK  7 active torsions:
REMARK  status: ('A' for Active; 'I' for Inactive)
REMARK    1  A    between atoms: C_1  and  C_2
REMARK    2  A    between atoms: C_2  and  C_3
REMARK    3  A    between atoms: C_2  and  C_4
REMARK    4  A    between atoms: C_10  and  N_21
REMARK    5  A    between atoms: N_24  and  C_27
REMARK    6  A    between atoms: C_27  and  C_28
REMARK    7  A    between atoms: C_27  and  C_29
REMARK                            x       y       z     vdW  Elec       q    Type
REMARK                         _______ _______ _______ _____ _____    ______ ____
ROOT
ATOM      1  C   UNL     1       1.950  -4.068  -1.764  0.00  0.00    -0.044 A 
ATOM      2  C   UNL     1       1.510  -5.068  -2.613  0.00  0.00    +0.005 A 
ATOM      3  C   UNL     1       0.375  -5.766  -2.287  0.00  0.00    +0.015 A 
ATOM      4  C   UNL     1      -0.354  -5.493  -1.114  0.00  0.00    +0.017 A 
ATOM      5  C   UNL     1       0.095  -4.518  -0.260  0.00  0.00    -0.016 A 
ATOM      6  C   UNL     1       1.252  -3.807  -0.612  0.00  0.00    +0.010 A 
ATOM      7  C   UNL     1      -0.476  -4.067   1.056  0.00  0.00    +0.092 C 
ATOM      8  C   UNL     1      -1.851  -4.551   1.387  0.00  0.00    +0.060 C 
ATOM      9  C   UNL     1      -1.888  -6.000   1.742  0.00  0.00    -0.032 A 
ATOM     10  C   UNL     1      -1.940  -6.372   3.081  0.00  0.00    +0.007 A 
ATOM     11  C   UNL     1      -1.899  -7.710   3.423  0.00  0.00    +0.038 A 
ATOM     12  C   UNL     1      -1.808  -8.684   2.441  0.00  0.00    +0.124 A 
ATOM     13  C   UNL     1      -1.772  -8.314   1.107  0.00  0.00    +0.053 A 
ATOM     14  C   UNL     1      -1.822  -6.964   0.778  0.00  0.00    +0.019 A 
ATOM     15  S   UNL     1      -1.808  -6.456  -0.905  0.00  0.00    -0.089 S 
ATOM     16  F   UNL     1      -1.754  -9.989   2.785  0.00  0.00    -0.205 F 
ENDROOT
BRANCH   7  17
ATOM     17  N   UNL     1      -0.496  -2.598   1.064  0.00  0.00    -0.299 NA
ATOM     18  C   UNL     1      -1.415  -2.078   0.042  0.00  0.00    +0.066 C 
ATOM     19  C   UNL     1      -1.347  -0.549   0.029  0.00  0.00    -0.063 C 
ATOM     20  N   UNL     1      -1.699  -0.035   1.360  0.00  0.00    +0.383 N 
ATOM     21  C   UNL     1      -0.780  -0.554   2.382  0.00  0.00    -0.063 C 
ATOM     22  C   UNL     1      -0.848  -2.083   2.395  0.00  0.00    +0.066 C 
ATOM     23  H   UNL     1      -2.712  -0.387   1.603  0.00  0.00    -0.081 HD
BRANCH  20  24
ATOM     24  C   UNL     1      -1.719   1.434   1.368  0.00  0.00    -0.075 C 
ATOM     25  C   UNL     1      -2.209   1.930   2.730  0.00  0.00    -0.014 C 
ATOM     26  C   UNL     1      -0.307   1.965   1.109  0.00  0.00    -0.014 C 
ENDBRANCH  20  24
ENDBRANCH   7  17
BRANCH   1  28
ATOM     27  C   UNL     1       4.386  -4.217  -2.208  0.00  0.00    +0.012 C 
ATOM     28  C   UNL     1       3.186  -3.274  -2.101  0.00  0.00    +0.013 C 
ATOM     29  C   UNL     1       2.981  -2.556  -3.436  0.00  0.00    +0.012 C 
ENDBRANCH   1  28
TORSDOF 3
