REMARK  Name = ZINC63315456
REMARK  3 active torsions:
REMARK  status: ('A' for Active; 'I' for Inactive)
REMARK    1  A    between atoms: C_5  and  N_7
REMARK    2  A    between atoms: C_13  and  C_15
REMARK    3  A    between atoms: C_15  and  N_16
REMARK                            x       y       z     vdW  Elec       q    Type
REMARK                         _______ _______ _______ _____ _____    ______ ____
ROOT
ATOM      1  N   UNL     1       0.135  -8.091  -1.088  0.00  0.00    -0.291 N 
ATOM      2  C   UNL     1       0.140  -8.961  -2.117  0.00  0.00    +0.303 C 
ATOM      3  O   UNL     1       0.033  -8.554  -3.258  0.00  0.00    -0.253 OA
ATOM      4  N   UNL     1       0.264 -10.282  -1.882  0.00  0.00    -0.283 N 
ATOM      5  C   UNL     1       0.272 -10.776  -0.501  0.00  0.00    +0.114 C 
ATOM      6  C   UNL     1       1.574 -11.556  -0.243  0.00  0.00    +0.052 C 
ATOM      7  C   UNL     1       1.776 -12.465  -1.430  0.00  0.00    -0.035 C 
ATOM      8  C   UNL     1       2.002 -13.771  -1.507  0.00  0.00    +0.001 A 
ATOM      9  C   UNL     1       2.247 -14.785  -0.469  0.00  0.00    +0.030 A 
ATOM     10  C   UNL     1       2.424 -16.061  -0.907  0.00  0.00    +0.042 A 
ATOM     11  C   UNL     1       2.382 -16.423  -2.258  0.00  0.00    +0.022 A 
ATOM     12  C   UNL     1       2.172 -15.554  -3.279  0.00  0.00    +0.027 A 
ATOM     13  C   UNL     1       1.980 -14.182  -2.944  0.00  0.00    +0.043 A 
ATOM     14  N   UNL     1       1.785 -13.149  -3.709  0.00  0.00    -0.376 N 
ATOM     15  C   UNL     1       1.722 -11.955  -2.865  0.00  0.00    +0.124 C 
ATOM     16  C   UNL     1       0.383 -11.215  -3.014  0.00  0.00    +0.138 C 
ATOM     17 CL   UNL     1       2.717 -17.303   0.270  0.00  0.00    -0.084 Cl
ATOM     18  H   UNL     1       0.146  -8.419  -0.175  0.00  0.00    +0.151 HD
ATOM     19  H   UNL     1       1.697 -13.166  -4.675  0.00  0.00    +0.160 HD
ENDROOT
BRANCH   1  20
ATOM     20  C   UNL     1       0.112  -6.649  -1.347  0.00  0.00    +0.201 C 
BRANCH  20  27
ATOM     21  N   UNL     1       1.249  -2.080  -0.025  0.00  0.00    -0.325 N 
ATOM     22  C   UNL     1       1.269  -2.834   1.235  0.00  0.00    +0.124 C 
ATOM     23  C   UNL     1       0.089  -3.814   1.239  0.00  0.00    +0.126 C 
ATOM     24  N   UNL     1       0.090  -4.555  -0.031  0.00  0.00    -0.297 N 
ATOM     25  C   UNL     1       0.070  -3.801  -1.291  0.00  0.00    +0.126 C 
ATOM     26  C   UNL     1       1.244  -2.821  -1.295  0.00  0.00    +0.124 C 
ATOM     27  C   UNL     1       0.110  -5.903  -0.038  0.00  0.00    +0.233 C 
ATOM     28  O   UNL     1       0.127  -6.515   1.009  0.00  0.00    -0.274 OA
BRANCH  21  33
ATOM     29  C   UNL     1      -0.000   1.378   0.007  0.00  0.00    +0.002 A 
ATOM     30  C   UNL     1       1.187   2.087  -0.003  0.00  0.00    +0.003 A 
ATOM     31  C   UNL     1       2.396   1.416  -0.021  0.00  0.00    +0.040 A 
ATOM     32  C   UNL     1       2.421   0.033  -0.028  0.00  0.00    +0.144 A 
ATOM     33  C   UNL     1       1.228  -0.681  -0.018  0.00  0.00    +0.065 A 
ATOM     34  C   UNL     1       0.017  -0.003   0.000  0.00  0.00    +0.026 A 
ATOM     35  F   UNL     1       3.602  -0.622  -0.046  0.00  0.00    -0.204 F 
ENDBRANCH  21  33
ENDBRANCH  20  27
ENDBRANCH   1  20
TORSDOF 3
