REMARK  Name = ZINC40988439
REMARK  6 active torsions:
REMARK  status: ('A' for Active; 'I' for Inactive)
REMARK    1  A    between atoms: C_6  and  C_7
REMARK    2  A    between atoms: C_7  and  C_9
REMARK    3  A    between atoms: C_7  and  N_30
REMARK    4  A    between atoms: C_9  and  N_10
REMARK    5  A    between atoms: C_11  and  C_13
REMARK    6  A    between atoms: N_16  and  C_18
REMARK                            x       y       z     vdW  Elec       q    Type
REMARK                         _______ _______ _______ _____ _____    ______ ____
ROOT
ATOM      1  N   UNL     1      -2.825  -2.148   1.350  0.00  0.00    -0.311 N 
ATOM      2  C   UNL     1      -3.320  -2.703   2.474  0.00  0.00    +0.264 C 
ATOM      3  O   UNL     1      -2.720  -2.587   3.524  0.00  0.00    -0.268 OA
ATOM      4  H   UNL     1      -3.304  -2.240   0.511  0.00  0.00    +0.149 HD
ENDROOT
BRANCH   2   5
ATOM      5  C   UNL     1      -4.592  -3.453   2.428  0.00  0.00    +0.150 A 
ATOM      6  C   UNL     1      -5.235  -4.080   3.509  0.00  0.00    +0.006 A 
ATOM      7  C   UNL     1      -6.360  -4.639   2.998  0.00  0.00    +0.044 A 
ATOM      8  N   UNL     1      -6.384  -4.356   1.686  0.00  0.00    -0.263 N 
ATOM      9  N   UNL     1      -5.349  -3.659   1.365  0.00  0.00    -0.166 NA
ATOM     10  C   UNL     1      -7.354  -5.423   3.817  0.00  0.00    +0.055 C 
ATOM     11  C   UNL     1      -6.686  -5.817   5.140  0.00  0.00    +0.006 C 
ATOM     12  C   UNL     1      -6.043  -4.584   5.780  0.00  0.00    +0.005 C 
ATOM     13  C   UNL     1      -4.823  -4.154   4.953  0.00  0.00    +0.039 C 
BRANCH   8  14
ATOM     14  C   UNL     1      -7.436  -4.775   0.756  0.00  0.00    +0.130 C 
ATOM     15  C   UNL     1      -6.825  -5.620  -0.374  0.00  0.00    +0.051 C 
ATOM     16  C   UNL     1      -7.853  -5.795  -1.518  0.00  0.00    +0.168 C 
ATOM     17  S   UNL     1      -8.880  -4.277  -1.373  0.00  0.00    -0.029 S 
ATOM     18  O   UNL     1      -8.634  -3.442  -2.496  0.00  0.00    -0.174 OA
ATOM     19  O   UNL     1     -10.215  -4.650  -1.058  0.00  0.00    -0.174 OA
ATOM     20  C   UNL     1      -8.101  -3.522   0.117  0.00  0.00    +0.192 C 
ENDBRANCH   8  14
ENDBRANCH   2   5
BRANCH   1  21
ATOM     21  C   UNL     1      -1.563  -1.404   1.395  0.00  0.00    +0.094 C 
BRANCH  21  22
ATOM     22  C   UNL     1      -1.297  -0.769   0.028  0.00  0.00    -0.020 C 
BRANCH  22  28
ATOM     23  C   UNL     1      -3.416  -0.036  -1.084  0.00  0.00    +0.003 A 
ATOM     24  C   UNL     1      -4.383   0.916  -1.345  0.00  0.00    +0.020 A 
ATOM     25  C   UNL     1      -4.286   2.174  -0.779  0.00  0.00    +0.041 A 
ATOM     26  C   UNL     1      -3.220   2.479   0.048  0.00  0.00    +0.020 A 
ATOM     27  C   UNL     1      -2.253   1.527   0.309  0.00  0.00    +0.003 A 
ATOM     28  C   UNL     1      -2.351   0.270  -0.257  0.00  0.00    -0.059 A 
ATOM     29 CL   UNL     1      -5.501   3.370  -1.108  0.00  0.00    -0.084 Cl
ENDBRANCH  22  28
BRANCH  22  30
ATOM     30  N   UNL     1       0.028  -0.133   0.034  0.00  0.00    +0.385 N 
ATOM     31  C   UNL     1       1.086  -1.156   0.237  0.00  0.00    -0.078 C 
ATOM     32  C   UNL     1       2.354  -0.471  -0.332  0.00  0.00    -0.020 C 
ATOM     33  C   UNL     1       1.810   0.301  -1.556  0.00  0.00    -0.020 C 
ATOM     34  C   UNL     1       0.305   0.478  -1.284  0.00  0.00    -0.078 C 
ATOM     35  H   UNL     1       0.075   0.567   0.759  0.00  0.00    -0.081 HD
ENDBRANCH  22  30
ENDBRANCH  21  22
ENDBRANCH   1  21
TORSDOF 6
