REMARK  Name = ZINC22572231
REMARK  11 active torsions:
REMARK  status: ('A' for Active; 'I' for Inactive)
REMARK    1  A    between atoms: C_1  and  C_2
REMARK    2  A    between atoms: C_9  and  C_11
REMARK    3  A    between atoms: C_14  and  N_18
REMARK    4  A    between atoms: C_16  and  O_17
REMARK    5  A    between atoms: N_18  and  C_19
REMARK    6  A    between atoms: C_19  and  N_21
REMARK    7  A    between atoms: C_22  and  C_24
REMARK    8  A    between atoms: C_25  and  O_32
REMARK    9  A    between atoms: C_29  and  O_30
REMARK   10  A    between atoms: O_30  and  C_31
REMARK   11  A    between atoms: O_32  and  C_33
REMARK                            x       y       z     vdW  Elec       q    Type
REMARK                         _______ _______ _______ _____ _____    ______ ____
ROOT
ATOM      1  C   UNL     1       0.045  -5.525   2.289  0.00  0.00    +0.078 A 
ATOM      2  C   UNL     1       0.863  -6.564   1.836  0.00  0.00    +0.018 A 
ATOM      3  C   UNL     1       0.895  -7.760   2.516  0.00  0.00    +0.024 A 
ATOM      4  C   UNL     1       0.116  -7.940   3.655  0.00  0.00    +0.036 A 
ATOM      5  C   UNL     1      -0.700  -6.914   4.113  0.00  0.00    +0.069 A 
ATOM      6  C   UNL     1      -0.736  -5.705   3.440  0.00  0.00    +0.131 A 
ENDROOT
BRANCH   1  15
ATOM      7  C   UNL     1       0.800   0.271  -2.225  0.00  0.00    +0.044 C 
ATOM      8  C   UNL     1       0.345  -0.605  -1.087  0.00  0.00    -0.047 A 
ATOM      9  C   UNL     1      -0.568  -0.117  -0.164  0.00  0.00    +0.005 A 
ATOM     10  C   UNL     1      -0.994  -0.906   0.880  0.00  0.00    +0.032 A 
ATOM     11  C   UNL     1      -0.501  -2.207   1.011  0.00  0.00    +0.110 A 
ATOM     12  C   UNL     1       0.423  -2.697   0.075  0.00  0.00    +0.156 A 
ATOM     13  C   UNL     1       0.836  -1.890  -0.973  0.00  0.00    +0.052 A 
ATOM     14  O   UNL     1       0.715  -3.962   0.452  0.00  0.00    -0.435 OA
ATOM     15  C   UNL     1       0.008  -4.242   1.564  0.00  0.00    +0.232 A 
ATOM     16  N   UNL     1      -0.719  -3.206   1.905  0.00  0.00    -0.209 NA
ENDBRANCH   1  15
BRANCH   6  17
ATOM     17  O   UNL     1      -1.529  -4.699   3.889  0.00  0.00    -0.506 OA
ATOM     18  H   UNL     1      -2.423  -4.708   3.522  0.00  0.00    +0.292 HD
ENDBRANCH   6  17
BRANCH   4  19
ATOM     19  N   UNL     1       0.153  -9.156   4.338  0.00  0.00    -0.296 N 
ATOM     20  H   UNL     1       0.105  -9.991   3.846  0.00  0.00    +0.154 HD
BRANCH  19  21
ATOM     21  C   UNL     1       0.257  -9.171   5.682  0.00  0.00    +0.141 C 
ATOM     22  S   UNL     1       0.234  -7.701   6.559  0.00  0.00    -0.018 S 
BRANCH  21  23
ATOM     23  N   UNL     1       0.380 -10.344   6.335  0.00  0.00    -0.263 N 
ATOM     24  C   UNL     1       0.484 -10.359   7.679  0.00  0.00    +0.257 C 
ATOM     25  O   UNL     1       0.467  -9.314   8.302  0.00  0.00    -0.270 OA
ATOM     26  H   UNL     1       0.393 -11.177   5.839  0.00  0.00    +0.157 HD
BRANCH  24  27
ATOM     27  C   UNL     1       0.617 -11.639   8.393  0.00  0.00    +0.120 A 
ATOM     28  C   UNL     1       1.887 -12.177   8.648  0.00  0.00    +0.136 A 
ATOM     29  C   UNL     1       2.001 -13.382   9.320  0.00  0.00    +0.046 A 
ATOM     30  C   UNL     1       0.869 -14.055   9.739  0.00  0.00    +0.007 A 
ATOM     31  C   UNL     1      -0.388 -13.535   9.493  0.00  0.00    +0.046 A 
ATOM     32  C   UNL     1      -0.525 -12.328   8.828  0.00  0.00    +0.136 A 
BRANCH  32  33
ATOM     33  O   UNL     1      -1.759 -11.816   8.593  0.00  0.00    -0.494 OA
ATOM     34  C   UNL     1      -2.876 -12.572   9.065  0.00  0.00    +0.277 C 
ENDBRANCH  32  33
BRANCH  28  35
ATOM     35  O   UNL     1       3.000 -11.518   8.237  0.00  0.00    -0.494 OA
ATOM     36  C   UNL     1       4.260 -12.126   8.532  0.00  0.00    +0.277 C 
ENDBRANCH  28  35
ENDBRANCH  24  27
ENDBRANCH  21  23
ENDBRANCH  19  21
ENDBRANCH   4  19
TORSDOF 8
