REMARK  Name = ZINC38975273
REMARK  8 active torsions:
REMARK  status: ('A' for Active; 'I' for Inactive)
REMARK    1  A    between atoms: C_1  and  O_2
REMARK    2  A    between atoms: O_2  and  C_3
REMARK    3  A    between atoms: C_5  and  N_11
REMARK    4  A    between atoms: C_7  and  O_9
REMARK    5  A    between atoms: O_9  and  C_10
REMARK    6  A    between atoms: N_11  and  C_12
REMARK    7  A    between atoms: N_15  and  S_16
REMARK    8  A    between atoms: S_16  and  C_19
REMARK                            x       y       z     vdW  Elec       q    Type
REMARK                         _______ _______ _______ _____ _____    ______ ____
ROOT
ATOM      1  C   UNL     1       2.151  -4.684   3.269  0.00  0.00    +0.237 C 
ATOM      2  C   UNL     1       1.317  -5.829   3.796  0.00  0.00    +0.192 C 
ATOM      3  N   UNL     1       0.130  -5.612   4.282  0.00  0.00    -0.110 NA
ATOM      4  N   UNL     1       1.818  -7.074   3.755  0.00  0.00    -0.226 NA
ATOM      5  C   UNL     1       3.017  -7.319   3.268  0.00  0.00    +0.089 A 
ATOM      6  C   UNL     1       3.515  -8.647   3.240  0.00  0.00    +0.030 A 
ATOM      7  C   UNL     1       4.744  -8.904   2.741  0.00  0.00    +0.002 A 
ATOM      8  C   UNL     1       5.583  -7.900   2.232  0.00  0.00    +0.002 A 
ATOM      9  C   UNL     1       5.207  -6.602   2.212  0.00  0.00    +0.027 A 
ATOM     10  C   UNL     1       3.882  -6.238   2.736  0.00  0.00    +0.063 A 
ATOM     11  N   UNL     1       3.484  -4.997   2.731  0.00  0.00    -0.359 N 
ATOM     12  H   UNL     1       4.055  -4.295   2.381  0.00  0.00    +0.162 HD
ENDROOT
BRANCH   3  13
ATOM     13  S   UNL     1      -0.773  -6.875   4.857  0.00  0.00    +0.100 S 
ATOM     14  O   UNL     1      -1.081  -7.696   3.738  0.00  0.00    -0.146 OA
ATOM     15  O   UNL     1      -0.095  -7.372   6.002  0.00  0.00    -0.146 OA
BRANCH  13  16
ATOM     16  C   UNL     1      -2.301  -6.207   5.427  0.00  0.00    +0.113 A 
ATOM     17  C   UNL     1      -2.424  -5.784   6.737  0.00  0.00    +0.030 A 
ATOM     18  C   UNL     1      -3.621  -5.259   7.185  0.00  0.00    +0.022 A 
ATOM     19  C   UNL     1      -4.698  -5.157   6.321  0.00  0.00    +0.041 A 
ATOM     20  C   UNL     1      -4.574  -5.581   5.010  0.00  0.00    +0.022 A 
ATOM     21  C   UNL     1      -3.374  -6.100   4.562  0.00  0.00    +0.030 A 
ATOM     22 CL   UNL     1      -6.203  -4.499   6.883  0.00  0.00    -0.084 Cl
ENDBRANCH  13  16
ENDBRANCH   3  13
BRANCH   1  23
ATOM     23  N   UNL     1       1.385  -4.024   2.208  0.00  0.00    -0.318 N 
ATOM     24  H   UNL     1       1.007  -4.548   1.485  0.00  0.00    +0.148 HD
BRANCH  23  27
ATOM     25  C   UNL     1       1.696  -0.495   3.200  0.00  0.00    +0.125 A 
ATOM     26  C   UNL     1       1.880  -1.868   3.170  0.00  0.00    +0.068 A 
ATOM     27  C   UNL     1       1.199  -2.640   2.239  0.00  0.00    +0.036 A 
ATOM     28  C   UNL     1       0.333  -2.036   1.337  0.00  0.00    +0.068 A 
ATOM     29  C   UNL     1       0.149  -0.662   1.368  0.00  0.00    +0.125 A 
ATOM     30  C   UNL     1       0.826   0.108   2.303  0.00  0.00    +0.091 A 
BRANCH  25  32
ATOM     31  C   UNL     1       2.119   1.669   4.089  0.00  0.00    +0.277 C 
ATOM     32  O   UNL     1       2.362   0.261   4.112  0.00  0.00    -0.495 OA
ENDBRANCH  25  32
BRANCH  29  33
ATOM     33  O   UNL     1      -0.698  -0.070   0.486  0.00  0.00    -0.495 OA
ATOM     34  C   UNL     1      -0.839   1.349   0.574  0.00  0.00    +0.277 C 
ENDBRANCH  29  33
ENDBRANCH  23  27
ENDBRANCH   1  23
TORSDOF 6
