REMARK  Name = ZINC39696182
REMARK  9 active torsions:
REMARK  status: ('A' for Active; 'I' for Inactive)
REMARK    1  A    between atoms: C_1  and  C_2
REMARK    2  A    between atoms: C_2  and  C_3
REMARK    3  A    between atoms: C_6  and  C_9
REMARK    4  A    between atoms: C_9  and  C_11
REMARK    5  A    between atoms: C_9  and  N_12
REMARK    6  A    between atoms: C_13  and  C_15
REMARK    7  A    between atoms: C_26  and  C_28
REMARK    8  A    between atoms: C_33  and  O_34
REMARK    9  A    between atoms: O_34  and  C_35
REMARK                            x       y       z     vdW  Elec       q    Type
REMARK                         _______ _______ _______ _____ _____    ______ ____
ROOT
ATOM      1  C   UNL     1       1.462  -5.343   6.580  0.00  0.00    +0.100 C 
ATOM      2  C   UNL     1       0.734  -4.543   7.684  0.00  0.00    +0.121 C 
ATOM      3  N   UNL     1       0.790  -5.417   8.879  0.00  0.00    -0.296 N 
ATOM      4  C   UNL     1       2.144  -6.018   8.833  0.00  0.00    +0.115 C 
ATOM      5  C   UNL     1       2.388  -6.309   7.339  0.00  0.00    -0.004 C 
ATOM      6  C   UNL     1       3.845  -6.037   6.979  0.00  0.00    -0.010 C 
ATOM      7  C   UNL     1       4.742  -7.047   7.700  0.00  0.00    -0.082 C 
ATOM      8  N   UNL     1       4.365  -8.409   7.303  0.00  0.00    +0.379 N 
ATOM      9  C   UNL     1       2.992  -8.695   7.736  0.00  0.00    -0.082 C 
ATOM     10  C   UNL     1       2.021  -7.755   7.016  0.00  0.00    -0.010 C 
ATOM     11  C   UNL     1      -0.173  -5.621   9.800  0.00  0.00    +0.252 C 
ATOM     12  O   UNL     1       0.058  -6.300  10.781  0.00  0.00    -0.270 OA
ATOM     13  H   UNL     1       4.424  -8.494   6.299  0.00  0.00    -0.086 HD
ATOM     14  H   UNL     1       4.996  -9.070   7.731  0.00  0.00    -0.086 HD
ENDROOT
BRANCH  11  15
ATOM     15  C   UNL     1      -1.508  -5.019   9.616  0.00  0.00    +0.099 A 
ATOM     16  C   UNL     1      -1.647  -3.762   9.016  0.00  0.00    +0.020 A 
ATOM     17  C   UNL     1      -2.920  -3.243   8.867  0.00  0.00    +0.021 A 
ATOM     18  C   UNL     1      -4.009  -3.972   9.310  0.00  0.00    +0.114 A 
ATOM     19  N   UNL     1      -3.855  -5.154   9.873  0.00  0.00    -0.220 NA
ATOM     20  C   UNL     1      -2.661  -5.699  10.035  0.00  0.00    +0.233 A 
BRANCH  20  21
ATOM     21  O   UNL     1      -2.551  -6.919  10.614  0.00  0.00    -0.437 OA
BRANCH  21  22
ATOM     22  C   UNL     1      -3.681  -7.503  11.092  0.00  0.00    +0.130 A 
ATOM     23  C   UNL     1      -3.956  -7.473  12.452  0.00  0.00    +0.046 A 
ATOM     24  C   UNL     1      -5.105  -8.066  12.936  0.00  0.00    +0.004 A 
ATOM     25  C   UNL     1      -5.982  -8.690  12.067  0.00  0.00    +0.000 A 
ATOM     26  C   UNL     1      -5.710  -8.722  10.712  0.00  0.00    +0.004 A 
ATOM     27  C   UNL     1      -4.564  -8.124  10.222  0.00  0.00    +0.046 A 
ENDBRANCH  21  22
ENDBRANCH  20  21
ENDBRANCH  11  15
BRANCH   1  29
ATOM     28  N   UNL     1       2.539  -4.758   4.432  0.00  0.00    -0.308 N 
ATOM     29  C   UNL     1       2.271  -4.418   5.708  0.00  0.00    +0.219 C 
ATOM     30  O   UNL     1       2.680  -3.367   6.155  0.00  0.00    -0.275 OA
ATOM     31  H   UNL     1       2.212  -5.598   4.075  0.00  0.00    +0.149 HD
BRANCH  28  32
ATOM     32  C   UNL     1       3.325  -3.858   3.584  0.00  0.00    +0.100 C 
ATOM     33  C   UNL     1       2.402  -2.812   2.957  0.00  0.00    +0.033 C 
BRANCH  32  37
ATOM     34  C   UNL     1       5.230  -6.115   0.497  0.00  0.00    -0.048 A 
ATOM     35  C   UNL     1       5.910  -5.087   1.122  0.00  0.00    +0.004 A 
ATOM     36  C   UNL     1       5.294  -4.356   2.121  0.00  0.00    +0.006 A 
ATOM     37  C   UNL     1       3.997  -4.654   2.495  0.00  0.00    -0.027 A 
ATOM     38  C   UNL     1       3.316  -5.681   1.869  0.00  0.00    +0.006 A 
ATOM     39  C   UNL     1       3.931  -6.409   0.868  0.00  0.00    +0.004 A 
BRANCH  34  41
ATOM     40  C   UNL     1       5.637  -6.248  -1.945  0.00  0.00    +0.009 C 
ATOM     41  C   UNL     1       5.902  -6.911  -0.592  0.00  0.00    +0.032 C 
ENDBRANCH  34  41
ENDBRANCH  32  37
ENDBRANCH  28  32
ENDBRANCH   1  29
TORSDOF 7
