REMARK  Name = ZINC30977695
REMARK  11 active torsions:
REMARK  status: ('A' for Active; 'I' for Inactive)
REMARK    1  A    between atoms: C_1  and  C_2
REMARK    2  A    between atoms: C_2  and  C_3
REMARK    3  A    between atoms: C_2  and  C_4
REMARK    4  A    between atoms: C_2  and  C_5
REMARK    5  A    between atoms: C_8  and  C_11
REMARK    6  A    between atoms: C_13  and  C_16
REMARK    7  A    between atoms: C_16  and  N_17
REMARK    8  A    between atoms: C_20  and  C_23
REMARK    9  A    between atoms: N_25  and  C_26
REMARK   10  A    between atoms: C_26  and  C_27
REMARK   11  A    between atoms: C_30  and  N_33
REMARK                            x       y       z     vdW  Elec       q    Type
REMARK                         _______ _______ _______ _____ _____    ______ ____
ROOT
ATOM      1  N   UNL     1       5.887  -8.882   5.043  0.00  0.00    +0.386 N 
ATOM      2  C   UNL     1       4.917  -9.780   4.402  0.00  0.00    -0.077 C 
ATOM      3  C   UNL     1       4.670  -9.322   2.962  0.00  0.00    -0.006 C 
ATOM      4  C   UNL     1       4.136  -7.887   2.973  0.00  0.00    +0.071 C 
ATOM      5  C   UNL     1       5.142  -6.982   3.688  0.00  0.00    -0.006 C 
ATOM      6  C   UNL     1       5.375  -7.507   5.107  0.00  0.00    -0.077 C 
ATOM      7  H   UNL     1       6.796  -8.873   4.423  0.00  0.00    -0.081 HD
ENDROOT
BRANCH   4   8
ATOM      8  C   UNL     1       3.947  -7.410   1.556  0.00  0.00    +0.216 C 
ATOM      9  O   UNL     1       4.214  -8.144   0.628  0.00  0.00    -0.276 OA
ATOM     10  N   UNL     1       3.483  -6.167   1.320  0.00  0.00    -0.311 N 
ATOM     11  H   UNL     1       3.241  -5.501   2.162  0.00  0.00    +0.149 HD
BRANCH  10  12
ATOM     12  C   UNL     1       3.300  -5.702  -0.057  0.00  0.00    +0.139 C 
BRANCH  12  13
ATOM     13  C   UNL     1       2.774  -4.290  -0.046  0.00  0.00    -0.030 A 
ATOM     14  C   UNL     1       3.656  -3.225  -0.049  0.00  0.00    +0.007 A 
ATOM     15  C   UNL     1       3.177  -1.930  -0.038  0.00  0.00    +0.026 A 
ATOM     16  C   UNL     1       1.809  -1.697  -0.024  0.00  0.00    +0.047 A 
ATOM     17  C   UNL     1       0.925  -2.768  -0.015  0.00  0.00    +0.026 A 
ATOM     18  C   UNL     1       1.410  -4.062  -0.031  0.00  0.00    +0.007 A 
BRANCH  16  19
ATOM     19  N   UNL     1       1.320  -0.383  -0.013  0.00  0.00    -0.306 N 
ATOM     20  C   UNL     1       0.002  -0.004   0.002  0.00  0.00    +0.112 A 
ATOM     21  C   UNL     1      -0.016   1.342   0.009  0.00  0.00    +0.130 A 
ATOM     22  N   UNL     1       1.252   1.778  -0.000  0.00  0.00    -0.244 NA
ATOM     23  C   UNL     1       2.062   0.755  -0.014  0.00  0.00    +0.204 A 
ENDBRANCH  16  19
ENDBRANCH  12  13
ENDBRANCH  10  12
ENDBRANCH   4   8
BRANCH   1  24
ATOM     24  C   UNL     1       6.253  -9.371   6.379  0.00  0.00    +0.022 C 
BRANCH  24  27
ATOM     25  C   UNL     1       8.636  -7.118   7.849  0.00  0.00    +0.202 A 
ATOM     26  N   UNL     1       7.354  -7.471   7.609  0.00  0.00    -0.193 NA
ATOM     27  C   UNL     1       7.419  -8.573   6.903  0.00  0.00    +0.211 A 
ATOM     28  O   UNL     1       8.714  -8.860   6.740  0.00  0.00    -0.340 OA
ATOM     29  N   UNL     1       9.398  -8.016   7.281  0.00  0.00    -0.056 NA
BRANCH  25  33
ATOM     30  C   UNL     1       9.949  -3.717  10.040  0.00  0.00    -0.042 A 
ATOM     31  C   UNL     1      10.877  -4.586   9.495  0.00  0.00    +0.005 A 
ATOM     32  C   UNL     1      10.456  -5.691   8.783  0.00  0.00    +0.012 A 
ATOM     33  C   UNL     1       9.094  -5.931   8.614  0.00  0.00    +0.022 A 
ATOM     34  C   UNL     1       8.164  -5.050   9.161  0.00  0.00    +0.012 A 
ATOM     35  C   UNL     1       8.595  -3.950   9.875  0.00  0.00    +0.005 A 
BRANCH  30  37
ATOM     36  C   UNL     1      11.269  -1.622   9.911  0.00  0.00    +0.015 C 
ATOM     37  C   UNL     1      10.414  -2.512  10.816  0.00  0.00    -0.013 C 
ATOM     38  C   UNL     1       9.199  -1.722  11.307  0.00  0.00    +0.015 C 
ATOM     39  C   UNL     1      11.245  -2.968  12.016  0.00  0.00    +0.015 C 
ENDBRANCH  30  37
ENDBRANCH  25  33
ENDBRANCH  24  27
ENDBRANCH   1  24
TORSDOF 8
