REMARK  Name = ZINC00683306
REMARK  5 active torsions:
REMARK  status: ('A' for Active; 'I' for Inactive)
REMARK    1  A    between atoms: C_1  and  C_2
REMARK    2  A    between atoms: C_3  and  C_17
REMARK    3  A    between atoms: C_4  and  C_10
REMARK    4  A    between atoms: C_17  and  O_19
REMARK    5  A    between atoms: O_19  and  C_20
REMARK                            x       y       z     vdW  Elec       q    Type
REMARK                         _______ _______ _______ _____ _____    ______ ____
ROOT
ATOM      1  C   UNL     1      -1.809  -3.257  -2.998  0.00  0.00    +0.061 C 
ATOM      2  C   UNL     1      -1.509  -2.723  -1.621  0.00  0.00    +0.021 C 
ATOM      3  C   UNL     1      -1.254  -1.407  -1.460  0.00  0.00    +0.081 C 
ATOM      4  C   UNL     1      -0.958  -0.913  -0.059  0.00  0.00    +0.179 C 
ATOM      5  N   UNL     1      -0.971  -1.915   1.019  0.00  0.00    -0.285 N 
ATOM      6  C   UNL     1      -1.242  -3.197   0.700  0.00  0.00    +0.304 C 
ATOM      7  O   UNL     1      -1.256  -4.032   1.583  0.00  0.00    -0.252 OA
ATOM      8  N   UNL     1      -1.498  -3.579  -0.557  0.00  0.00    -0.273 N 
ATOM      9  H   UNL     1      -0.789  -1.660   1.937  0.00  0.00    +0.151 HD
ATOM     10  H   UNL     1      -1.687  -4.516  -0.721  0.00  0.00    +0.156 HD
ENDROOT
BRANCH   4  11
ATOM     11  C   UNL     1       0.403  -0.264  -0.073  0.00  0.00    +0.132 A 
ATOM     12  C   UNL     1       0.643   1.058  -0.133  0.00  0.00    +0.063 A 
ATOM     13  C   UNL     1       2.048   1.220  -0.124  0.00  0.00    +0.070 A 
ATOM     14  C   UNL     1       2.583  -0.015  -0.059  0.00  0.00    +0.184 A 
ATOM     15  O   UNL     1       1.580  -0.909  -0.028  0.00  0.00    -0.450 OA
ATOM     16 BR   UNL     1       4.429  -0.421  -0.018  0.00  0.00    -0.007 Br
ATOM     17 BR   UNL     1       2.995   2.855  -0.192  0.00  0.00    -0.046 Br
ENDBRANCH   4  11
BRANCH   3  18
ATOM     18  C   UNL     1      -1.264  -0.520  -2.562  0.00  0.00    +0.339 C 
ATOM     19  O   UNL     1      -1.380  -0.955  -3.692  0.00  0.00    -0.245 OA
BRANCH  18  20
ATOM     20  O   UNL     1      -1.145   0.809  -2.359  0.00  0.00    -0.465 OA
ATOM     21  C   UNL     1      -1.162   1.646  -3.517  0.00  0.00    +0.280 C 
ENDBRANCH  18  20
ENDBRANCH   3  18
TORSDOF 3
