REMARK  Name = ZINC63694222
REMARK  8 active torsions:
REMARK  status: ('A' for Active; 'I' for Inactive)
REMARK    1  A    between atoms: C_1  and  O_2
REMARK    2  A    between atoms: O_2  and  C_3
REMARK    3  A    between atoms: C_9  and  C_12
REMARK    4  A    between atoms: C_12  and  C_13
REMARK    5  A    between atoms: C_13  and  N_14
REMARK    6  A    between atoms: C_15  and  C_17
REMARK    7  A    between atoms: C_20  and  N_23
REMARK    8  A    between atoms: C_24  and  C_26
REMARK                            x       y       z     vdW  Elec       q    Type
REMARK                         _______ _______ _______ _____ _____    ______ ____
ROOT
ATOM      1  C   UNL     1      -2.344  -8.569  -1.022  0.00  0.00    +0.037 A 
ATOM      2  C   UNL     1      -1.476  -9.163  -0.102  0.00  0.00    +0.015 A 
ATOM      3  C   UNL     1      -1.890 -10.255   0.627  0.00  0.00    +0.024 A 
ATOM      4  C   UNL     1      -3.172 -10.766   0.449  0.00  0.00    +0.033 A 
ATOM      5  C   UNL     1      -4.039 -10.177  -0.465  0.00  0.00    +0.024 A 
ATOM      6  C   UNL     1      -3.633  -9.081  -1.193  0.00  0.00    +0.015 A 
ENDROOT
BRANCH   1   8
ATOM      7  N   UNL     1      -0.660  -6.905  -1.638  0.00  0.00    -0.311 N 
ATOM      8  C   UNL     1      -1.903  -7.398  -1.805  0.00  0.00    +0.244 C 
ATOM      9  O   UNL     1      -2.662  -6.878  -2.601  0.00  0.00    -0.270 OA
ATOM     10  H   UNL     1      -0.055  -7.319  -1.003  0.00  0.00    +0.149 HD
BRANCH   7  11
ATOM     11  C   UNL     1      -0.223  -5.742  -2.416  0.00  0.00    +0.109 C 
BRANCH  11  12
ATOM     12  C   UNL     1       1.217  -5.389  -2.038  0.00  0.00    +0.052 C 
BRANCH  12  19
ATOM     13  C   UNL     1       1.266  -0.889  -1.121  0.00  0.00    +0.121 A 
ATOM     14  C   UNL     1       1.778  -0.088  -2.157  0.00  0.00    +0.047 A 
ATOM     15  C   UNL     1       2.217  -0.604  -3.325  0.00  0.00    +0.029 A 
ATOM     16  C   UNL     1       2.170  -2.053  -3.544  0.00  0.00    +0.043 A 
ATOM     17  N   UNL     1       2.524  -2.797  -4.562  0.00  0.00    -0.380 N 
ATOM     18  C   UNL     1       2.251  -4.201  -4.233  0.00  0.00    +0.144 C 
ATOM     19  C   UNL     1       1.667  -4.194  -2.838  0.00  0.00    -0.040 C 
ATOM     20  C   UNL     1       1.631  -2.898  -2.453  0.00  0.00    +0.002 A 
ATOM     21  C   UNL     1       1.184  -2.237  -1.222  0.00  0.00    +0.055 A 
ATOM     22  H   UNL     1       2.903  -2.474  -5.394  0.00  0.00    +0.160 HD
BRANCH  13  24
ATOM     23  C   UNL     1       0.948   1.134   0.088  0.00  0.00    +0.277 C 
ATOM     24  O   UNL     1       0.844  -0.290   0.024  0.00  0.00    -0.495 OA
ENDBRANCH  13  24
ENDBRANCH  12  19
ENDBRANCH  11  12
ENDBRANCH   7  11
ENDBRANCH   1   8
BRANCH   4  25
ATOM     25  N   UNL     1      -3.588 -11.873   1.189  0.00  0.00    -0.284 N 
ATOM     26  C   UNL     1      -3.143 -12.047   2.449  0.00  0.00    +0.240 C 
ATOM     27  O   UNL     1      -2.458 -11.195   2.974  0.00  0.00    -0.273 OA
ATOM     28  H   UNL     1      -4.198 -12.517   0.797  0.00  0.00    +0.155 HD
BRANCH  26  29
ATOM     29  C   UNL     1      -3.496 -13.301   3.206  0.00  0.00    +0.182 C 
ATOM     30  C   UNL     1      -2.620 -14.426   2.720  0.00  0.00    -0.006 A 
ATOM     31  C   UNL     1      -2.200 -14.681   1.415  0.00  0.00    +0.007 A 
ATOM     32  C   UNL     1      -1.407 -15.770   1.127  0.00  0.00    +0.000 A 
ATOM     33  C   UNL     1      -1.005 -16.640   2.124  0.00  0.00    +0.001 A 
ATOM     34  C   UNL     1      -1.403 -16.401   3.427  0.00  0.00    +0.016 A 
ATOM     35  C   UNL     1      -2.192 -15.306   3.713  0.00  0.00    +0.028 A 
ATOM     36  S   UNL     1      -2.855 -14.665   5.232  0.00  0.00    -0.043 S 
ATOM     37  N   UNL     1      -3.343 -13.043   4.657  0.00  0.00    -0.243 NA
ATOM     38  H   UNL     1      -4.221 -12.763   5.069  0.00  0.00    +0.137 HD
ENDBRANCH  26  29
ENDBRANCH   4  25
TORSDOF 7
