REMARK  Name = ZINC45778484
REMARK  12 active torsions:
REMARK  status: ('A' for Active; 'I' for Inactive)
REMARK    1  A    between atoms: C_1  and  C_2
REMARK    2  A    between atoms: C_5  and  N_8
REMARK    3  A    between atoms: N_8  and  S_9
REMARK    4  A    between atoms: S_9  and  C_12
REMARK    5  A    between atoms: C_14  and  C_20
REMARK    6  A    between atoms: C_17  and  O_18
REMARK    7  A    between atoms: O_18  and  C_19
REMARK    8  A    between atoms: C_20  and  O_22
REMARK    9  A    between atoms: O_22  and  C_23
REMARK   10  A    between atoms: C_23  and  C_25
REMARK   11  A    between atoms: C_23  and  C_26
REMARK   12  A    between atoms: C_29  and  C_31
REMARK                            x       y       z     vdW  Elec       q    Type
REMARK                         _______ _______ _______ _____ _____    ______ ____
ROOT
ATOM      1  C   UNL     1       0.435  -4.541   2.678  0.00  0.00    +0.151 A 
ATOM      2  C   UNL     1       0.059  -5.567   3.515  0.00  0.00    +0.047 A 
ATOM      3  C   UNL     1      -0.430  -5.280   4.793  0.00  0.00    +0.061 A 
ATOM      4  C   UNL     1      -0.536  -3.951   5.214  0.00  0.00    +0.018 A 
ATOM      5  C   UNL     1      -0.158  -2.931   4.371  0.00  0.00    +0.048 A 
ATOM      6  C   UNL     1       0.334  -3.221   3.103  0.00  0.00    +0.147 A 
ENDROOT
BRANCH   1   7
ATOM      7  S   UNL     1       1.053  -4.901   1.067  0.00  0.00    +0.076 S 
ATOM      8  O   UNL     1       1.002  -6.313   0.919  0.00  0.00    -0.150 OA
ATOM      9  O   UNL     1       2.259  -4.163   0.920  0.00  0.00    -0.150 OA
BRANCH   7  10
ATOM     10  N   UNL     1      -0.023  -4.272  -0.022  0.00  0.00    -0.216 N 
ATOM     11  H   UNL     1       0.262  -3.584  -0.644  0.00  0.00    +0.174 HD
BRANCH  10  16
ATOM     12  C   UNL     1      -5.378  -6.136  -0.120  0.00  0.00    +0.044 C 
ATOM     13  C   UNL     1      -3.955  -5.641  -0.094  0.00  0.00    -0.050 A 
ATOM     14  C   UNL     1      -3.696  -4.283  -0.131  0.00  0.00    +0.005 A 
ATOM     15  C   UNL     1      -2.394  -3.825  -0.107  0.00  0.00    +0.025 A 
ATOM     16  C   UNL     1      -1.342  -4.731  -0.046  0.00  0.00    +0.048 A 
ATOM     17  C   UNL     1      -1.605  -6.094  -0.009  0.00  0.00    +0.025 A 
ATOM     18  C   UNL     1      -2.910  -6.545  -0.027  0.00  0.00    +0.005 A 
ENDBRANCH  10  16
ENDBRANCH   7  10
ENDBRANCH   1   7
BRANCH   6  19
ATOM     19  O   UNL     1       0.710  -2.213   2.276  0.00  0.00    -0.493 OA
ATOM     20  C   UNL     1       0.473  -0.879   2.730  0.00  0.00    +0.277 C 
ENDBRANCH   6  19
BRANCH   3  21
ATOM     21  C   UNL     1      -0.834  -6.376   5.693  0.00  0.00    +0.340 C 
ATOM     22  O   UNL     1      -0.742  -7.530   5.324  0.00  0.00    -0.245 OA
BRANCH  21  23
ATOM     23  O   UNL     1      -1.306  -6.097   6.924  0.00  0.00    -0.448 OA
BRANCH  23  24
ATOM     24  C   UNL     1      -1.679  -7.207   7.742  0.00  0.00    +0.261 C 
ATOM     25  C   UNL     1      -0.471  -7.665   8.562  0.00  0.00    +0.062 C 
BRANCH  24  26
ATOM     26  C   UNL     1      -2.790  -6.795   8.673  0.00  0.00    +0.258 A 
ATOM     27  N   UNL     1      -2.846  -5.690   9.363  0.00  0.00    -0.108 NA
ATOM     28  N   UNL     1      -3.935  -5.665  10.048  0.00  0.00    -0.107 NA
ATOM     29  C   UNL     1      -4.617  -6.763   9.817  0.00  0.00    +0.249 A 
ATOM     30  O   UNL     1      -3.906  -7.497   8.937  0.00  0.00    -0.416 OA
BRANCH  29  31
ATOM     31  C   UNL     1      -5.923  -7.125  10.407  0.00  0.00    +0.038 A 
ATOM     32  C   UNL     1      -6.532  -8.335  10.072  0.00  0.00    +0.013 A 
ATOM     33  C   UNL     1      -7.751  -8.667  10.627  0.00  0.00    +0.001 A 
ATOM     34  C   UNL     1      -8.370  -7.803  11.513  0.00  0.00    +0.000 A 
ATOM     35  C   UNL     1      -7.771  -6.601  11.848  0.00  0.00    +0.001 A 
ATOM     36  C   UNL     1      -6.550  -6.260  11.305  0.00  0.00    +0.013 A 
ENDBRANCH  29  31
ENDBRANCH  24  26
ENDBRANCH  23  24
ENDBRANCH  21  23
ENDBRANCH   3  21
TORSDOF 9
