REMARK  Name = ZINC13406277
REMARK  8 active torsions:
REMARK  status: ('A' for Active; 'I' for Inactive)
REMARK    1  A    between atoms: C_1  and  C_2
REMARK    2  A    between atoms: C_2  and  C_3
REMARK    3  A    between atoms: C_8  and  N_9
REMARK    4  A    between atoms: C_19  and  S_20
REMARK    5  A    between atoms: S_20  and  C_21
REMARK    6  A    between atoms: C_21  and  C_22
REMARK    7  A    between atoms: C_28  and  C_34
REMARK    8  A    between atoms: C_29  and  C_33
REMARK                            x       y       z     vdW  Elec       q    Type
REMARK                         _______ _______ _______ _____ _____    ______ ____
ROOT
ATOM      1  N   UNL     1      -1.238   2.069   0.019  0.00  0.00    -0.255 N 
ATOM      2  C   UNL     1      -1.821   2.387   1.199  0.00  0.00    +0.267 A 
ATOM      3  O   UNL     1      -1.303   2.088   2.259  0.00  0.00    -0.267 OA
ATOM      4  C   UNL     1      -3.099   3.109   1.153  0.00  0.00    +0.065 A 
ATOM      5  C   UNL     1      -3.776   3.484   2.313  0.00  0.00    +0.015 A 
ATOM      6  C   UNL     1      -4.966   4.150   2.213  0.00  0.00    +0.001 A 
ATOM      7  C   UNL     1      -5.506   4.457   0.971  0.00  0.00    +0.002 A 
ATOM      8  C   UNL     1      -4.864   4.102  -0.182  0.00  0.00    +0.028 A 
ATOM      9  C   UNL     1      -3.646   3.419  -0.114  0.00  0.00    +0.079 A 
ATOM     10  N   UNL     1      -2.977   3.048  -1.230  0.00  0.00    -0.223 NA
ATOM     11  C   UNL     1      -1.836   2.408  -1.164  0.00  0.00    +0.177 A 
ENDROOT
BRANCH   1  17
ATOM     12  C   UNL     1       0.002  -0.004   0.002  0.00  0.00    -0.024 A 
ATOM     13  C   UNL     1       1.208  -0.677  -0.013  0.00  0.00    +0.005 A 
ATOM     14  C   UNL     1       2.396   0.031  -0.021  0.00  0.00    +0.000 A 
ATOM     15  C   UNL     1       2.381   1.413  -0.013  0.00  0.00    +0.002 A 
ATOM     16  C   UNL     1       1.178   2.092   0.002  0.00  0.00    +0.026 A 
ATOM     17  C   UNL     1      -0.017   1.384   0.010  0.00  0.00    +0.055 A 
BRANCH  12  19
ATOM     18  C   UNL     1      -1.808  -0.922  -1.423  0.00  0.00    +0.009 C 
ATOM     19  C   UNL     1      -1.292  -0.776   0.010  0.00  0.00    +0.034 C 
ENDBRANCH  12  19
ENDBRANCH   1  17
BRANCH  11  20
ATOM     20  S   UNL     1      -1.033   1.963  -2.668  0.00  0.00    -0.079 S 
BRANCH  20  21
ATOM     21  C   UNL     1      -2.216   2.630  -3.865  0.00  0.00    +0.151 C 
BRANCH  21  22
ATOM     22  C   UNL     1      -1.724   2.358  -5.263  0.00  0.00    +0.124 A 
ATOM     23  N   UNL     1      -2.471   2.780  -6.312  0.00  0.00    -0.309 N 
ATOM     24  H   UNL     1      -3.307   3.248  -6.155  0.00  0.00    +0.170 HD
ATOM     25  C   UNL     1      -2.053   2.550  -7.578  0.00  0.00    +0.263 A 
ATOM     26  O   UNL     1      -2.712   2.923  -8.534  0.00  0.00    -0.267 OA
ATOM     27  C   UNL     1      -0.832   1.867  -7.760  0.00  0.00    +0.118 A 
ATOM     28  C   UNL     1      -0.046   1.431  -8.926  0.00  0.00    +0.118 A 
ATOM     29  C   UNL     1       1.055   0.814  -8.414  0.00  0.00    +0.119 A 
ATOM     30  O   UNL     1       1.002   0.839  -7.076  0.00  0.00    -0.441 OA
ATOM     31  C   UNL     1      -0.107   1.458  -6.640  0.00  0.00    +0.235 A 
ATOM     32  N   UNL     1      -0.592   1.731  -5.419  0.00  0.00    -0.198 NA
ATOM     33  C   UNL     1       2.162   0.196  -9.229  0.00  0.00    +0.087 C 
BRANCH  28  34
ATOM     34  C   UNL     1      -0.380   1.622 -10.346  0.00  0.00    +0.391 C 
ATOM     35  O   UNL     1      -0.004   2.619 -10.930  0.00  0.00    -0.240 OA
ATOM     36  O   UNL     1      -1.103   0.690 -10.999  0.00  0.00    -0.240 OA
ENDBRANCH  28  34
ENDBRANCH  21  22
ENDBRANCH  20  21
ENDBRANCH  11  20
TORSDOF 6
