REMARK  Name = ZINC00861425
REMARK  13 active torsions:
REMARK  status: ('A' for Active; 'I' for Inactive)
REMARK    1  A    between atoms: C_1  and  C_2
REMARK    2  A    between atoms: C_3  and  C_33
REMARK    3  A    between atoms: C_4  and  C_23
REMARK    4  A    between atoms: C_10  and  C_15
REMARK    5  A    between atoms: C_18  and  O_21
REMARK    6  A    between atoms: O_21  and  C_22
REMARK    7  A    between atoms: C_25  and  O_31
REMARK    8  A    between atoms: C_26  and  O_30
REMARK    9  A    between atoms: O_31  and  C_32
REMARK   10  A    between atoms: C_33  and  O_35
REMARK   11  A    between atoms: O_35  and  C_36
REMARK   12  A    between atoms: C_36  and  C_37
REMARK   13  A    between atoms: C_36  and  C_38
REMARK                            x       y       z     vdW  Elec       q    Type
REMARK                         _______ _______ _______ _____ _____    ______ ____
ROOT
ATOM      1  C   UNL     1       4.753   4.150   0.814  0.00  0.00    +0.061 C 
ATOM      2  C   UNL     1       3.565   3.324   0.394  0.00  0.00    +0.031 C 
ATOM      3  C   UNL     1       3.646   1.982   0.410  0.00  0.00    +0.154 C 
ATOM      4  C   UNL     1       2.486   1.127  -0.005  0.00  0.00    +0.074 C 
ATOM      5  C   UNL     1       1.201   1.918   0.000  0.00  0.00    +0.025 C 
ATOM      6  C   UNL     1       1.222   3.267  -0.005  0.00  0.00    +0.049 C 
ATOM      7  N   UNL     1       2.412   3.944   0.000  0.00  0.00    -0.260 NA
ATOM      8  C   UNL     1      -0.059   4.064  -0.017  0.00  0.00    +0.064 C 
ATOM      9  C   UNL     1      -1.153   3.287   0.722  0.00  0.00    +0.032 C 
ATOM     10  C   UNL     1      -1.335   1.931   0.025  0.00  0.00    +0.088 C 
ATOM     11  C   UNL     1      -0.014   1.211   0.011  0.00  0.00    +0.162 C 
ATOM     12  O   UNL     1       0.003  -0.004   0.004  0.00  0.00    -0.292 OA
ENDROOT
BRANCH   4  13
ATOM     13  C   UNL     1       2.737   0.602  -1.395  0.00  0.00    -0.034 A 
ATOM     14  C   UNL     1       2.829  -0.761  -1.611  0.00  0.00    +0.053 A 
ATOM     15  C   UNL     1       3.060  -1.247  -2.888  0.00  0.00    +0.163 A 
ATOM     16  C   UNL     1       3.200  -0.360  -3.952  0.00  0.00    +0.177 A 
ATOM     17  C   UNL     1       3.107   1.005  -3.729  0.00  0.00    +0.086 A 
ATOM     18  C   UNL     1       2.871   1.482  -2.452  0.00  0.00    +0.028 A 
ATOM     19 CL   UNL     1       3.281   2.114  -5.053  0.00  0.00    -0.080 Cl
BRANCH  16  20
ATOM     20  O   UNL     1       3.426  -0.832  -5.207  0.00  0.00    -0.502 OA
ATOM     21  H   UNL     1       2.621  -1.004  -5.714  0.00  0.00    +0.292 HD
ENDBRANCH  16  20
BRANCH  15  22
ATOM     22  O   UNL     1       3.151  -2.587  -3.101  0.00  0.00    -0.491 OA
ATOM     23  C   UNL     1       2.998  -3.437  -1.963  0.00  0.00    +0.277 C 
ENDBRANCH  15  22
ENDBRANCH   4  13
BRANCH   9  24
ATOM     24  C   UNL     1      -2.444   4.061   0.674  0.00  0.00    -0.043 A 
ATOM     25  C   UNL     1      -3.016   4.375  -0.545  0.00  0.00    +0.007 A 
ATOM     26  C   UNL     1      -4.203   5.080  -0.591  0.00  0.00    +0.046 A 
ATOM     27  C   UNL     1      -4.815   5.484   0.587  0.00  0.00    +0.120 A 
ATOM     28  C   UNL     1      -4.236   5.173   1.808  0.00  0.00    +0.046 A 
ATOM     29  C   UNL     1      -3.052   4.462   1.850  0.00  0.00    +0.007 A 
BRANCH  27  30
ATOM     30  O   UNL     1      -5.979   6.183   0.543  0.00  0.00    -0.495 OA
ATOM     31  C   UNL     1      -6.518   6.468  -0.749  0.00  0.00    +0.277 C 
ENDBRANCH  27  30
ENDBRANCH   9  24
BRANCH   3  32
ATOM     32  C   UNL     1       4.847   1.364   0.829  0.00  0.00    +0.317 C 
ATOM     33  O   UNL     1       5.795   2.046   1.170  0.00  0.00    -0.250 OA
BRANCH  32  34
ATOM     34  O   UNL     1       4.942   0.018   0.850  0.00  0.00    -0.461 OA
BRANCH  34  35
ATOM     35  C   UNL     1       6.185  -0.538   1.283  0.00  0.00    +0.170 C 
ATOM     36  C   UNL     1       5.933  -1.894   1.947  0.00  0.00    +0.052 C 
ATOM     37  C   UNL     1       7.109  -0.724   0.078  0.00  0.00    +0.052 C 
ENDBRANCH  34  35
ENDBRANCH  32  34
ENDBRANCH   3  32
TORSDOF 8
