REMARK  Name = ZINC39677427
REMARK  5 active torsions:
REMARK  status: ('A' for Active; 'I' for Inactive)
REMARK    1  A    between atoms: C_6  and  C_7
REMARK    2  A    between atoms: C_7  and  N_8
REMARK    3  A    between atoms: C_9  and  C_11
REMARK    4  A    between atoms: C_22  and  C_24
REMARK    5  A    between atoms: C_27  and  C_31
REMARK                            x       y       z     vdW  Elec       q    Type
REMARK                         _______ _______ _______ _____ _____    ______ ____
ROOT
ATOM      1  C   UNL     1      -3.374  -2.110  -2.455  0.00  0.00    +0.100 C 
ATOM      2  C   UNL     1      -2.287  -2.712  -3.374  0.00  0.00    +0.121 C 
ATOM      3  N   UNL     1      -2.649  -4.144  -3.495  0.00  0.00    -0.296 N 
ATOM      4  C   UNL     1      -4.129  -4.143  -3.593  0.00  0.00    +0.115 C 
ATOM      5  C   UNL     1      -4.582  -3.050  -2.604  0.00  0.00    -0.004 C 
ATOM      6  C   UNL     1      -5.777  -2.289  -3.170  0.00  0.00    -0.010 C 
ATOM      7  C   UNL     1      -6.982  -3.230  -3.254  0.00  0.00    -0.082 C 
ATOM      8  N   UNL     1      -7.295  -3.749  -1.917  0.00  0.00    +0.379 N 
ATOM      9  C   UNL     1      -6.176  -4.558  -1.419  0.00  0.00    -0.082 C 
ATOM     10  C   UNL     1      -4.936  -3.673  -1.257  0.00  0.00    -0.010 C 
ATOM     11  C   UNL     1      -1.821  -5.207  -3.512  0.00  0.00    +0.249 C 
ATOM     12  O   UNL     1      -2.265  -6.320  -3.712  0.00  0.00    -0.270 OA
ATOM     13  H   UNL     1      -7.457  -2.977  -1.287  0.00  0.00    -0.086 HD
ATOM     14  H   UNL     1      -8.126  -4.320  -1.965  0.00  0.00    -0.086 HD
ENDROOT
BRANCH  11  15
ATOM     15  C   UNL     1      -0.373  -5.018  -3.288  0.00  0.00    +0.072 A 
ATOM     16  C   UNL     1       0.266  -3.870  -3.760  0.00  0.00    +0.016 A 
ATOM     17  C   UNL     1       1.618  -3.700  -3.547  0.00  0.00    +0.013 A 
ATOM     18  C   UNL     1       2.343  -4.664  -2.867  0.00  0.00    +0.058 A 
ATOM     19  C   UNL     1       1.719  -5.804  -2.397  0.00  0.00    +0.051 A 
ATOM     20  C   UNL     1       0.362  -5.986  -2.597  0.00  0.00    +0.136 A 
ATOM     21  F   UNL     1      -0.248  -7.097  -2.132  0.00  0.00    -0.205 F 
BRANCH  18  22
ATOM     22  C   UNL     1       3.820  -4.470  -2.640  0.00  0.00    +0.418 C 
ATOM     23  F   UNL     1       4.021  -3.798  -1.429  0.00  0.00    -0.166 F 
ATOM     24  F   UNL     1       4.452  -5.716  -2.592  0.00  0.00    -0.166 F 
ATOM     25  F   UNL     1       4.357  -3.714  -3.688  0.00  0.00    -0.166 F 
ENDBRANCH  18  22
ENDBRANCH  11  15
BRANCH   1  27
ATOM     26  N   UNL     1      -3.378  -1.165  -0.169  0.00  0.00    -0.311 N 
ATOM     27  C   UNL     1      -2.899  -2.090  -1.025  0.00  0.00    +0.218 C 
ATOM     28  O   UNL     1      -2.085  -2.905  -0.645  0.00  0.00    -0.275 OA
ATOM     29  H   UNL     1      -4.028  -0.513  -0.473  0.00  0.00    +0.149 HD
BRANCH  26  30
ATOM     30  C   UNL     1      -2.916  -1.145   1.221  0.00  0.00    +0.139 C 
BRANCH  30  36
ATOM     31  C   UNL     1      -4.800  -0.255   2.606  0.00  0.00    +0.009 A 
ATOM     32  C   UNL     1      -5.430   0.771   3.285  0.00  0.00    +0.050 A 
ATOM     33  C   UNL     1      -4.859   2.034   3.321  0.00  0.00    +0.162 A 
ATOM     34  C   UNL     1      -3.651   2.265   2.675  0.00  0.00    +0.162 A 
ATOM     35  C   UNL     1      -3.024   1.232   1.994  0.00  0.00    +0.054 A 
ATOM     36  C   UNL     1      -3.599  -0.025   1.961  0.00  0.00    -0.027 A 
ATOM     37  O   UNL     1      -3.069   3.495   2.704  0.00  0.00    -0.485 OA
ATOM     38  C   UNL     1      -3.907   4.595   3.078  0.00  0.00    +0.270 C 
ATOM     39  C   UNL     1      -4.710   4.186   4.321  0.00  0.00    +0.270 C 
ATOM     40  O   UNL     1      -5.494   3.035   3.990  0.00  0.00    -0.485 OA
ENDBRANCH  30  36
ENDBRANCH  26  30
ENDBRANCH   1  27
TORSDOF 5
