REMARK  Name = ZINC12750452
REMARK  11 active torsions:
REMARK  status: ('A' for Active; 'I' for Inactive)
REMARK    1  A    between atoms: C_1  and  C_2
REMARK    2  A    between atoms: C_2  and  O_3
REMARK    3  A    between atoms: O_3  and  C_4
REMARK    4  A    between atoms: C_9  and  N_10
REMARK    5  A    between atoms: C_11  and  C_13
REMARK    6  A    between atoms: C_13  and  C_15
REMARK    7  A    between atoms: C_13  and  N_59
REMARK    8  A    between atoms: C_21  and  C_23
REMARK    9  A    between atoms: C_21  and  C_24
REMARK   10  A    between atoms: C_21  and  N_59
REMARK   11  A    between atoms: C_27  and  N_30
REMARK                            x       y       z     vdW  Elec       q    Type
REMARK                         _______ _______ _______ _____ _____    ______ ____
ROOT
ATOM      1  C   UNL     1       1.280   1.981  -0.016  0.00  0.00    +0.048 C 
ENDROOT
BRANCH   1   2
ATOM      2  C   UNL     1       1.329   2.848  -1.247  0.00  0.00    -0.053 A 
ATOM      3  C   UNL     1       1.682   2.300  -2.465  0.00  0.00    +0.002 A 
ATOM      4  C   UNL     1       1.722   3.095  -3.596  0.00  0.00    +0.000 A 
ATOM      5  C   UNL     1       1.418   4.440  -3.506  0.00  0.00    +0.000 A 
ATOM      6  C   UNL     1       1.069   4.989  -2.286  0.00  0.00    +0.000 A 
ATOM      7  C   UNL     1       1.024   4.194  -1.157  0.00  0.00    +0.002 A 
ENDBRANCH   1   2
BRANCH   1   9
ATOM      8  N   UNL     1      -1.191   1.867   0.018  0.00  0.00    -0.284 N 
ATOM      9  C   UNL     1      -0.014   1.209   0.005  0.00  0.00    +0.208 C 
ATOM     10  O   UNL     1       0.003  -0.004   0.004  0.00  0.00    -0.277 OA
ATOM     11  H   UNL     1      -1.205   2.833   0.099  0.00  0.00    +0.155 HD
BRANCH   8  17
ATOM     12  C   UNL     1      -3.572   1.697   0.420  0.00  0.00    +0.142 A 
ATOM     13  C   UNL     1      -4.758   0.988   0.314  0.00  0.00    +0.047 A 
ATOM     14  C   UNL     1      -4.769  -0.254  -0.293  0.00  0.00    +0.004 A 
ATOM     15  C   UNL     1      -3.599  -0.793  -0.795  0.00  0.00    +0.002 A 
ATOM     16  C   UNL     1      -2.413  -0.090  -0.698  0.00  0.00    +0.027 A 
ATOM     17  C   UNL     1      -2.393   1.154  -0.086  0.00  0.00    +0.076 A 
BRANCH  12  18
ATOM     18  O   UNL     1      -3.559   2.919   1.015  0.00  0.00    -0.490 OA
BRANCH  18  20
ATOM     19  C   UNL     1      -4.595   4.789   2.142  0.00  0.00    +0.048 C 
ATOM     20  C   UNL     1      -4.806   3.412   1.511  0.00  0.00    +0.226 C 
ENDBRANCH  18  20
ENDBRANCH  12  18
ENDBRANCH   8  17
ENDBRANCH   1   9
BRANCH   1  21
ATOM     21  N   UNL     1       2.409   1.032  -0.037  0.00  0.00    +0.394 N 
ATOM     22  H   UNL     1       2.595   0.749  -1.007  0.00  0.00    -0.083 HD
ATOM     23  H   UNL     1       2.167   0.204   0.520  0.00  0.00    -0.083 HD
BRANCH  21  24
ATOM     24  C   UNL     1       3.618   1.661   0.527  0.00  0.00    -0.043 C 
ATOM     25  C   UNL     1       4.341   2.449  -0.567  0.00  0.00    -0.009 C 
BRANCH  24  26
ATOM     26  C   UNL     1       4.532   0.587   1.060  0.00  0.00    -0.061 A 
ATOM     27  C   UNL     1       4.685  -0.597   0.362  0.00  0.00    +0.004 A 
ATOM     28  C   UNL     1       5.526  -1.580   0.846  0.00  0.00    +0.028 A 
ATOM     29  C   UNL     1       6.209  -1.384   2.038  0.00  0.00    +0.067 A 
ATOM     30  C   UNL     1       6.048  -0.196   2.739  0.00  0.00    +0.028 A 
ATOM     31  C   UNL     1       5.210   0.786   2.248  0.00  0.00    +0.004 A 
BRANCH  29  32
ATOM     32  N   UNL     1       7.059  -2.382   2.534  0.00  0.00    -0.220 N 
ATOM     33  C   UNL     1       7.310  -3.581   1.973  0.00  0.00    +0.225 A 
ATOM     34  N   UNL     1       8.156  -4.219   2.741  0.00  0.00    -0.222 NA
ATOM     35  C   UNL     1       8.460  -3.468   3.800  0.00  0.00    +0.245 A 
ATOM     36  N   UNL     1       7.813  -2.335   3.718  0.00  0.00    -0.154 NA
ENDBRANCH  29  32
ENDBRANCH  24  26
ENDBRANCH  21  24
ENDBRANCH   1  21
TORSDOF 9
