REMARK  Name = ZINC08879581
REMARK  15 active torsions:
REMARK  status: ('A' for Active; 'I' for Inactive)
REMARK    1  A    between atoms: CD1_1  and  CG_2
REMARK    2  A    between atoms: CG_2  and  CD2_3
REMARK    3  A    between atoms: CG_2  and  CB_4
REMARK    4  A    between atoms: CB_4  and  CA_5
REMARK    5  A    between atoms: CA_5  and  C_7
REMARK    6  A    between atoms: CA_5  and  N_9
REMARK    7  A    between atoms: C_17  and  O_35
REMARK    8  A    between atoms: C_18  and  O_33
REMARK    9  A    between atoms: C_21  and  C_23
REMARK   10  A    between atoms: C_26  and  O_31
REMARK   11  A    between atoms: C_27  and  O_29
REMARK   12  A    between atoms: O_29  and  C_30
REMARK   13  A    between atoms: O_31  and  C_32
REMARK   14  A    between atoms: O_33  and  C_34
REMARK   15  A    between atoms: O_35  and  C_36
REMARK                            x       y       z     vdW  Elec       q    Type
REMARK                         _______ _______ _______ _____ _____    ______ ____
ROOT
ATOM      1  N   LEU A   1       3.338   0.727  -3.239  0.00  0.00    -0.286 N 
ATOM      2  C   UNK A   0       2.911   1.535  -2.249  0.00  0.00    +0.304 C 
ATOM      3  O   UNK A   0       2.846   2.736  -2.429  0.00  0.00    -0.253 OA
ATOM      4  N   UNK A   0       2.556   1.012  -1.058  0.00  0.00    -0.274 N 
ATOM      5  C   UNK A   0       1.982   1.852   0.006  0.00  0.00    +0.115 C 
ATOM      6  C   UNK A   0       0.552   1.377   0.259  0.00  0.00    +0.054 C 
ATOM      7  C   UNK A   0       0.499  -0.122   0.390  0.00  0.00    -0.037 A 
ATOM      8  C   UNK A   0      -0.605  -0.673   1.030  0.00  0.00    +0.053 A 
ATOM      9  C   UNK A   0      -0.724  -2.042   1.177  0.00  0.00    +0.162 A 
ATOM     10  C   UNK A   0       0.273  -2.877   0.678  0.00  0.00    +0.162 A 
ATOM     11  C   UNK A   0       1.371  -2.326   0.046  0.00  0.00    +0.055 A 
ATOM     12  C   UNK A   0       1.488  -0.950  -0.094  0.00  0.00    -0.016 A 
ATOM     13  C   UNK A   0       2.726  -0.416  -0.772  0.00  0.00    +0.139 C 
ATOM     14  H   LEU A   1       3.321  -0.235  -3.121  0.00  0.00    +0.151 HD
ENDROOT
BRANCH  13  15
ATOM     15  C   UNK A   0       3.915  -0.608   0.134  0.00  0.00    -0.019 A 
ATOM     16  C   UNK A   0       3.889  -0.106   1.422  0.00  0.00    +0.009 A 
ATOM     17  C   UNK A   0       4.975  -0.284   2.259  0.00  0.00    +0.050 A 
ATOM     18  C   UNK A   0       6.097  -0.957   1.803  0.00  0.00    +0.162 A 
ATOM     19  C   UNK A   0       6.126  -1.457   0.505  0.00  0.00    +0.162 A 
ATOM     20  C   UNK A   0       5.032  -1.280  -0.327  0.00  0.00    +0.055 A 
BRANCH  19  21
ATOM     21  O   UNK A   0       7.225  -2.118   0.053  0.00  0.00    -0.491 OA
ATOM     22  C   UNK A   0       7.184  -2.603  -1.290  0.00  0.00    +0.277 C 
ENDBRANCH  19  21
BRANCH  18  23
ATOM     23  O   UNK A   0       7.169  -1.128   2.623  0.00  0.00    -0.491 OA
ATOM     24  C   UNK A   0       7.069  -0.588   3.942  0.00  0.00    +0.277 C 
ENDBRANCH  18  23
ENDBRANCH  13  15
BRANCH  10  25
ATOM     25  O   UNK A   0       0.165  -4.226   0.813  0.00  0.00    -0.491 OA
ATOM     26  C   UNK A   0       1.227  -5.018   0.276  0.00  0.00    +0.277 C 
ENDBRANCH  10  25
BRANCH   9  27
ATOM     27  O   UNK A   0      -1.807  -2.571   1.805  0.00  0.00    -0.491 OA
ATOM     28  C   UNK A   0      -2.788  -1.652   2.291  0.00  0.00    +0.277 C 
ENDBRANCH   9  27
BRANCH   1  29
ATOM     29  CA  LEU A   1       3.826   1.303  -4.495  0.00  0.00    +0.188 C 
BRANCH  29  30
ATOM     30  C   LEU A   1       2.660   1.571  -5.412  0.00  0.00    +0.376 C 
ATOM     31  O   LEU A   1       1.537   1.308  -5.053  0.00  0.00    -0.244 OA
ATOM     32  OXT LEU A   1       2.870   2.102  -6.626  0.00  0.00    -0.244 OA
ENDBRANCH  29  30
BRANCH  29  33
ATOM     33  CB  LEU A   1       4.788   0.321  -5.167  0.00  0.00    +0.037 C 
BRANCH  33  35
ATOM     34  CD1 LEU A   1       6.907  -0.971  -4.875  0.00  0.00    +0.007 C 
ATOM     35  CG  LEU A   1       6.016   0.120  -4.276  0.00  0.00    -0.015 C 
ATOM     36  CD2 LEU A   1       6.802   1.430  -4.189  0.00  0.00    +0.007 C 
ENDBRANCH  33  35
ENDBRANCH  29  33
ENDBRANCH   1  29
TORSDOF 9
