REMARK  Name = ZINC04277169
REMARK  13 active torsions:
REMARK  status: ('A' for Active; 'I' for Inactive)
REMARK    1  A    between atoms: C_1  and  C_2
REMARK    2  A    between atoms: C_5  and  N_33
REMARK    3  A    between atoms: N_6  and  C_7
REMARK    4  A    between atoms: C_7  and  C_8
REMARK    5  A    between atoms: C_8  and  O_9
REMARK    6  A    between atoms: O_9  and  C_10
REMARK    7  A    between atoms: N_12  and  C_13
REMARK    8  A    between atoms: C_13  and  C_15
REMARK    9  A    between atoms: C_13  and  N_59
REMARK   10  A    between atoms: C_19  and  C_20
REMARK   11  A    between atoms: C_19  and  N_59
REMARK   12  A    between atoms: C_26  and  C_27
REMARK   13  A    between atoms: C_26  and  N_59
REMARK                            x       y       z     vdW  Elec       q    Type
REMARK                         _______ _______ _______ _____ _____    ______ ____
ROOT
ATOM      1  C   UNL     1       5.576  -1.055  -1.117  0.00  0.00    +0.075 C 
ENDROOT
BRANCH   1   4
ATOM      2  C   UNL     1       6.400  -0.716   1.151  0.00  0.00    +0.399 C 
ATOM      3  O   UNL     1       6.002  -1.829   1.431  0.00  0.00    -0.227 OA
ATOM      4  N   UNL     1       6.235  -0.235  -0.098  0.00  0.00    -0.291 N 
ATOM      5  H   UNL     1       6.553   0.654  -0.321  0.00  0.00    +0.150 HD
BRANCH   2   6
ATOM      6  O   UNL     1       7.006   0.038   2.088  0.00  0.00    -0.449 OA
BRANCH   6   7
ATOM      7  C   UNL     1       7.149  -0.544   3.410  0.00  0.00    +0.255 C 
BRANCH   7   8
ATOM      8  C   UNL     1       7.855   0.453   4.332  0.00  0.00    +0.166 C 
BRANCH   8  14
ATOM      9  C   UNL     1       5.808   0.706   6.644  0.00  0.00    +0.086 C 
ATOM     10  C   UNL     1       7.119  -0.035   6.685  0.00  0.00    +0.108 A 
ATOM     11  N   UNL     1       7.591  -0.689   7.711  0.00  0.00    -0.239 NA
ATOM     12  C   UNL     1       8.781  -1.217   7.390  0.00  0.00    +0.164 A 
ATOM     13  C   UNL     1       9.055  -0.881   6.115  0.00  0.00    +0.216 A 
ATOM     14  N   UNL     1       8.000  -0.135   5.667  0.00  0.00    -0.306 N 
BRANCH  13  15
ATOM     15  N   UNL     1      10.265  -1.250   5.346  0.00  0.00    +0.075 N 
ATOM     16  O   UNL     1      10.390  -0.880   4.193  0.00  0.00    -0.125 OA
ATOM     17  O   UNL     1      11.136  -1.924   5.867  0.00  0.00    -0.125 OA
ENDBRANCH  13  15
ENDBRANCH   8  14
ENDBRANCH   7   8
ENDBRANCH   6   7
ENDBRANCH   2   6
ENDBRANCH   1   4
BRANCH   1  18
ATOM     18  C   UNL     1       6.370  -0.982  -2.423  0.00  0.00    +0.194 C 
ATOM     19 CL   UNL     1       6.356   0.713  -3.040  0.00  0.00    -0.084 Cl
ATOM     20 CL   UNL     1       8.071  -1.497  -2.121  0.00  0.00    -0.084 Cl
ATOM     21 CL   UNL     1       5.619  -2.073  -3.645  0.00  0.00    -0.084 Cl
ENDBRANCH   1  18
BRANCH   1  22
ATOM     22  N   UNL     1       4.214  -0.536  -1.366  0.00  0.00    +0.400 N 
ATOM     23  H   UNL     1       4.237   0.079  -2.188  0.00  0.00    -0.078 HD
BRANCH  22  24
ATOM     24  C   UNL     1       3.748   0.239  -0.198  0.00  0.00    -0.040 C 
BRANCH  24  25
ATOM     25  C   UNL     1       2.560   1.070  -0.612  0.00  0.00    -0.064 A 
ATOM     26  C   UNL     1       1.290   0.524  -0.580  0.00  0.00    +0.002 A 
ATOM     27  C   UNL     1       0.201   1.286  -0.960  0.00  0.00    +0.000 A 
ATOM     28  C   UNL     1       0.382   2.593  -1.373  0.00  0.00    +0.000 A 
ATOM     29  C   UNL     1       1.651   3.138  -1.405  0.00  0.00    +0.000 A 
ATOM     30  C   UNL     1       2.741   2.377  -1.025  0.00  0.00    +0.002 A 
ENDBRANCH  24  25
ENDBRANCH  22  24
BRANCH  22  31
ATOM     31  C   UNL     1       3.288  -1.657  -1.631  0.00  0.00    -0.040 C 
BRANCH  31  32
ATOM     32  C   UNL     1       3.302  -2.637  -0.487  0.00  0.00    -0.064 A 
ATOM     33  C   UNL     1       4.079  -3.778  -0.563  0.00  0.00    +0.002 A 
ATOM     34  C   UNL     1       4.097  -4.674   0.489  0.00  0.00    +0.000 A 
ATOM     35  C   UNL     1       3.329  -4.435   1.613  0.00  0.00    +0.000 A 
ATOM     36  C   UNL     1       2.547  -3.297   1.688  0.00  0.00    +0.000 A 
ATOM     37  C   UNL     1       2.534  -2.398   0.638  0.00  0.00    +0.002 A 
ENDBRANCH  31  32
ENDBRANCH  22  31
ENDBRANCH   1  22
TORSDOF 12
