REMARK  Name = ZINC13092860
REMARK  8 active torsions:
REMARK  status: ('A' for Active; 'I' for Inactive)
REMARK    1  A    between atoms: C_4  and  N_8
REMARK    2  A    between atoms: C_5  and  C_6
REMARK    3  A    between atoms: C_9  and  C_11
REMARK    4  A    between atoms: C_11  and  S_12
REMARK    5  A    between atoms: S_12  and  C_13
REMARK    6  A    between atoms: C_17  and  C_20
REMARK    7  A    between atoms: C_20  and  C_21
REMARK    8  A    between atoms: C_21  and  C_22
REMARK                            x       y       z     vdW  Elec       q    Type
REMARK                         _______ _______ _______ _____ _____    ______ ____
ROOT
ATOM      1  S   UNL     1       4.939  -4.085  -0.069  0.00  0.00    -0.075 S 
ENDROOT
BRANCH   1   2
ATOM      2  C   UNL     1       5.142  -5.835  -0.081  0.00  0.00    +0.213 A 
ATOM      3  N   UNL     1       6.364  -6.353  -0.096  0.00  0.00    -0.180 NA
ATOM      4  C   UNL     1       6.512  -7.674  -0.105  0.00  0.00    +0.296 A 
ATOM      5  O   UNL     1       7.747  -8.231  -0.120  0.00  0.00    -0.264 OA
ATOM      6  C   UNL     1       5.369  -8.475  -0.099  0.00  0.00    +0.130 A 
ATOM      7  N   UNL     1       4.180  -7.903  -0.084  0.00  0.00    -0.146 NA
ATOM      8  N   UNL     1       4.072  -6.620  -0.070  0.00  0.00    -0.122 NA
BRANCH   6   9
ATOM      9  C   UNL     1       5.492  -9.977  -0.109  0.00  0.00    +0.074 C 
BRANCH   9  10
ATOM     10  C   UNL     1       5.548 -10.495   1.330  0.00  0.00    +0.131 C 
BRANCH  10  11
ATOM     11  C   UNL     1       5.670 -11.996   1.319  0.00  0.00    +0.356 C 
ATOM     12  O   UNL     1       5.709 -12.598   0.259  0.00  0.00    -0.246 OA
ATOM     13  O   UNL     1       5.730 -12.611   2.371  0.00  0.00    -0.246 OA
ENDBRANCH  10  11
ENDBRANCH   9  10
ENDBRANCH   6   9
ENDBRANCH   1   2
BRANCH   1  14
ATOM     14  C   UNL     1       3.140  -3.852  -0.050  0.00  0.00    +0.173 C 
BRANCH  14  16
ATOM     15  N   UNL     1       1.541  -1.965  -0.024  0.00  0.00    -0.278 N 
ATOM     16  C   UNL     1       2.824  -2.379  -0.039  0.00  0.00    +0.228 C 
ATOM     17  O   UNL     1       3.723  -1.566  -0.043  0.00  0.00    -0.275 OA
ATOM     18  H   UNL     1       0.821  -2.615  -0.021  0.00  0.00    +0.155 HD
BRANCH  15  22
ATOM     19  C   UNL     1      -0.018   1.440   0.010  0.00  0.00    +0.028 A 
ATOM     20  C   UNL     1       1.187   2.043   0.002  0.00  0.00    +0.048 A 
ATOM     21  S   UNL     1       2.328   0.678  -0.017  0.00  0.00    -0.081 S 
ATOM     22  C   UNL     1       1.250  -0.608  -0.013  0.00  0.00    +0.089 A 
ATOM     23  C   UNL     1       0.002  -0.004   0.002  0.00  0.00    +0.080 A 
BRANCH  23  24
ATOM     24  C   UNL     1      -1.206  -0.773   0.010  0.00  0.00    +0.102 C 
ATOM     25  N   UNL     1      -2.164  -1.383   0.016  0.00  0.00    -0.191 NA
ENDBRANCH  23  24
ENDBRANCH  15  22
ENDBRANCH  14  16
ENDBRANCH   1  14
TORSDOF 8
