REMARK  Name = ZINC20534000
REMARK  7 active torsions:
REMARK  status: ('A' for Active; 'I' for Inactive)
REMARK    1  A    between atoms: C_10  and  N_11
REMARK    2  A    between atoms: C_12  and  C_14
REMARK    3  A    between atoms: C_14  and  C_30
REMARK    4  A    between atoms: C_15  and  C_16
REMARK    5  A    between atoms: C_19  and  C_21
REMARK    6  A    between atoms: C_21  and  O_22
REMARK    7  A    between atoms: O_22  and  C_23
REMARK                            x       y       z     vdW  Elec       q    Type
REMARK                         _______ _______ _______ _____ _____    ______ ____
ROOT
ATOM      1  C   UNL     1      -3.856   0.137  -3.646  0.00  0.00    +0.117 C 
ATOM      2  C   UNL     1      -3.167   1.329  -3.804  0.00  0.00    +0.070 C 
ENDROOT
BRANCH   2   3
ATOM      3  C   UNL     1      -2.133   1.668  -2.911  0.00  0.00    +0.130 A 
ATOM      4  C   UNL     1      -1.365   2.820  -2.949  0.00  0.00    +0.049 A 
ATOM      5  C   UNL     1      -0.472   2.738  -1.874  0.00  0.00    +0.049 A 
ATOM      6  C   UNL     1      -0.713   1.566  -1.240  0.00  0.00    +0.143 A 
ATOM      7  O   UNL     1      -1.712   0.928  -1.862  0.00  0.00    -0.457 OA
BRANCH   6   8
ATOM      8  C   UNL     1       0.022   1.063  -0.024  0.00  0.00    +0.303 C 
BRANCH   8   9
ATOM      9  O   UNL     1      -0.638   1.525   1.156  0.00  0.00    -0.484 OA
BRANCH   9  10
ATOM     10  C   UNL     1      -0.099   1.157   2.349  0.00  0.00    +0.121 A 
ATOM     11  C   UNL     1       1.039   0.364   2.381  0.00  0.00    +0.047 A 
ATOM     12  C   UNL     1       1.589  -0.004   3.594  0.00  0.00    +0.019 A 
ATOM     13  C   UNL     1       0.999   0.409   4.776  0.00  0.00    +0.018 A 
ATOM     14  C   UNL     1      -0.139   1.195   4.745  0.00  0.00    +0.019 A 
ATOM     15  C   UNL     1      -0.689   1.570   3.534  0.00  0.00    +0.047 A 
ATOM     16 BR   UNL     1       1.750  -0.101   6.434  0.00  0.00    -0.050 Br
ENDBRANCH   9  10
ENDBRANCH   8   9
ENDBRANCH   6   8
ENDBRANCH   2   3
BRANCH   1  18
ATOM     17  N   UNL     1      -5.604  -1.375  -4.424  0.00  0.00    -0.280 N 
ATOM     18  C   UNL     1      -4.934  -0.216  -4.577  0.00  0.00    +0.259 C 
ATOM     19  O   UNL     1      -5.223   0.538  -5.488  0.00  0.00    -0.269 OA
ATOM     20  H   UNL     1      -5.295  -2.091  -3.648  0.00  0.00    +0.155 HD
BRANCH  17  30
ATOM     21  C   UNL     1      -9.995  -3.784  -3.797  0.00  0.00    +0.001 A 
ATOM     22  C   UNL     1      -8.921  -3.502  -2.955  0.00  0.00    +0.001 A 
ATOM     23  C   UNL     1      -7.836  -2.816  -3.409  0.00  0.00    +0.010 A 
ATOM     24  C   UNL     1      -7.795  -2.387  -4.745  0.00  0.00    +0.003 A 
ATOM     25  C   UNL     1      -8.888  -2.668  -5.601  0.00  0.00    -0.016 A 
ATOM     26  C   UNL     1      -9.991  -3.380  -5.097  0.00  0.00    +0.008 A 
ATOM     27  C   UNL     1      -8.850  -2.236  -6.937  0.00  0.00    +0.008 A 
ATOM     28  C   UNL     1      -7.769  -1.548  -7.399  0.00  0.00    +0.002 A 
ATOM     29  C   UNL     1      -6.691  -1.261  -6.567  0.00  0.00    +0.024 A 
ATOM     30  C   UNL     1      -6.690  -1.667  -5.250  0.00  0.00    +0.041 A 
ENDBRANCH  17  30
ENDBRANCH   1  18
BRANCH   1  31
ATOM     31  C   UNL     1      -3.516  -0.750  -2.574  0.00  0.00    +0.104 C 
ATOM     32  N   UNL     1      -3.247  -1.454  -1.724  0.00  0.00    -0.191 NA
ENDBRANCH   1  31
TORSDOF 7
