REMARK  Name = ZINC04921957
REMARK  4 active torsions:
REMARK  status: ('A' for Active; 'I' for Inactive)
REMARK    1  A    between atoms: C_1  and  C_2
REMARK    2  A    between atoms: C_4  and  C_29
REMARK    3  A    between atoms: C_6  and  N_8
REMARK    4  A    between atoms: C_9  and  C_11
REMARK                            x       y       z     vdW  Elec       q    Type
REMARK                         _______ _______ _______ _____ _____    ______ ____
ROOT
ATOM      1  C   UNL     1       1.202   2.102  -0.161  0.00  0.00    +0.099 A 
ATOM      2  C   UNL     1       0.016   1.412   0.023  0.00  0.00    +0.030 A 
ATOM      3  C   UNL     1       0.051  -0.005   0.013  0.00  0.00    +0.019 A 
ATOM      4  C   UNL     1      -1.127  -0.741   0.181  0.00  0.00    +0.017 A 
ATOM      5  C   UNL     1      -1.097  -2.110   0.197  0.00  0.00    -0.025 A 
ATOM      6  C   UNL     1       0.118  -2.789   0.058  0.00  0.00    +0.040 A 
ATOM      7  C   UNL     1       1.290  -2.075  -0.158  0.00  0.00    +0.017 A 
ATOM      8  C   UNL     1       1.267  -0.681  -0.174  0.00  0.00    +0.142 A 
ATOM      9  O   UNL     1       2.423  -0.011  -0.371  0.00  0.00    -0.437 OA
ATOM     10  C   UNL     1       2.441   1.334  -0.362  0.00  0.00    +0.226 A 
ATOM     11  N   UNL     1       3.571   1.966  -0.533  0.00  0.00    -0.266 NA
ATOM     12  C   UNL     1       2.620  -2.728  -0.408  0.00  0.00    +0.042 C 
ATOM     13  C   UNL     1       2.527  -4.247  -0.399  0.00  0.00    +0.024 C 
ATOM     14  C   UNL     1       1.447  -4.680   0.592  0.00  0.00    +0.105 C 
ATOM     15  N   UNL     1       0.149  -4.176   0.125  0.00  0.00    -0.329 N 
ATOM     16  C   UNL     1      -0.926  -4.713   0.969  0.00  0.00    +0.105 C 
ATOM     17  C   UNL     1      -2.271  -4.325   0.355  0.00  0.00    +0.024 C 
ATOM     18  C   UNL     1      -2.415  -2.812   0.373  0.00  0.00    +0.038 C 
ATOM     19  H   UNL     1       4.392   1.466  -0.666  0.00  0.00    +0.190 HD
ENDROOT
BRANCH   1  21
ATOM     20  N   UNL     1       0.079   4.261   0.026  0.00  0.00    -0.281 N 
ATOM     21  C   UNL     1       1.222   3.571  -0.158  0.00  0.00    +0.253 C 
ATOM     22  O   UNL     1       2.271   4.165  -0.322  0.00  0.00    -0.270 OA
ATOM     23  H   UNL     1      -0.768   3.791   0.080  0.00  0.00    +0.155 HD
BRANCH  20  29
ATOM     24  C   UNL     1      -2.044   8.624  -0.759  0.00  0.00    +0.044 C 
ATOM     25  C   UNL     1      -0.902   7.794  -0.232  0.00  0.00    -0.048 A 
ATOM     26  C   UNL     1       0.182   8.411   0.364  0.00  0.00    +0.006 A 
ATOM     27  C   UNL     1       1.232   7.653   0.849  0.00  0.00    -0.048 A 
ATOM     28  C   UNL     1       1.201   6.277   0.739  0.00  0.00    +0.026 A 
ATOM     29  C   UNL     1       0.114   5.654   0.140  0.00  0.00    +0.034 A 
ATOM     30  C   UNL     1      -0.937   6.419  -0.351  0.00  0.00    +0.026 A 
ATOM     31  C   UNL     1       2.411   8.330   1.500  0.00  0.00    +0.044 C 
ENDBRANCH  20  29
ENDBRANCH   1  21
TORSDOF 2
