REMARK  Name = ZINC57640729
REMARK  10 active torsions:
REMARK  status: ('A' for Active; 'I' for Inactive)
REMARK    1  A    between atoms: C_1  and  C_2
REMARK    2  A    between atoms: C_2  and  C_3
REMARK    3  A    between atoms: C_3  and  C_5
REMARK    4  A    between atoms: C_3  and  N_16
REMARK    5  A    between atoms: N_9  and  C_10
REMARK    6  A    between atoms: N_16  and  C_17
REMARK    7  A    between atoms: N_16  and  C_27
REMARK    8  A    between atoms: C_17  and  C_18
REMARK    9  A    between atoms: C_27  and  C_28
REMARK   10  A    between atoms: C_33  and  C_40
REMARK                            x       y       z     vdW  Elec       q    Type
REMARK                         _______ _______ _______ _____ _____    ______ ____
ROOT
ATOM      1  N   UNL     1       0.486  -1.043  -2.702  0.00  0.00    -0.284 NA
ENDROOT
BRANCH   1   2
ATOM      2  C   UNL     1       1.437  -1.246  -1.602  0.00  0.00    +0.127 C 
BRANCH   2   3
ATOM      3  C   UNL     1       2.777  -0.671  -1.984  0.00  0.00    +0.169 A 
ATOM      4  N   UNL     1       3.319  -0.678  -3.178  0.00  0.00    -0.112 NA
ATOM      5  N   UNL     1       4.465  -0.093  -3.097  0.00  0.00    -0.023 NA
ATOM      6  N   UNL     1       4.667   0.286  -1.884  0.00  0.00    -0.044 NA
ATOM      7  N   UNL     1       3.647  -0.048  -1.168  0.00  0.00    -0.225 N 
BRANCH   7   8
ATOM      8  C   UNL     1       3.470   0.202   0.265  0.00  0.00    +0.111 C 
ATOM      9  C   UNL     1       3.714   1.684   0.558  0.00  0.00    +0.027 C 
ATOM     10  C   UNL     1       3.529   1.945   2.054  0.00  0.00    +0.002 C 
ATOM     11  C   UNL     1       4.525   1.097   2.847  0.00  0.00    +0.000 C 
ATOM     12  C   UNL     1       4.281  -0.385   2.553  0.00  0.00    +0.002 C 
ATOM     13  C   UNL     1       4.466  -0.646   1.057  0.00  0.00    +0.027 C 
ENDBRANCH   7   8
ENDBRANCH   2   3
BRANCH   2  15
ATOM     14  C   UNL     1       0.259  -3.298  -0.800  0.00  0.00    +0.006 C 
ATOM     15  C   UNL     1       1.585  -2.743  -1.325  0.00  0.00    +0.023 C 
ENDBRANCH   2  15
ENDBRANCH   1   2
BRANCH   1  16
ATOM     16  C   UNL     1       1.027  -1.555  -3.968  0.00  0.00    +0.120 C 
BRANCH  16  17
ATOM     17  C   UNL     1      -0.092  -1.721  -4.963  0.00  0.00    -0.030 A 
ATOM     18  C   UNL     1      -0.861  -2.870  -4.953  0.00  0.00    +0.009 A 
ATOM     19  C   UNL     1      -1.889  -3.026  -5.863  0.00  0.00    +0.050 A 
ATOM     20  C   UNL     1      -2.152  -2.030  -6.790  0.00  0.00    +0.166 A 
ATOM     21  C   UNL     1      -1.378  -0.872  -6.800  0.00  0.00    +0.167 A 
ATOM     22  C   UNL     1      -0.352  -0.720  -5.881  0.00  0.00    +0.054 A 
ATOM     23  O   UNL     1      -1.830  -0.054  -7.795  0.00  0.00    -0.453 OA
ATOM     24  C   UNL     1      -2.621  -0.895  -8.655  0.00  0.00    +0.466 C 
ATOM     25  O   UNL     1      -3.089  -1.937  -7.778  0.00  0.00    -0.453 OA
ENDBRANCH  16  17
ENDBRANCH   1  16
BRANCH   1  26
ATOM     26  C   UNL     1       0.115   0.373  -2.823  0.00  0.00    +0.126 C 
BRANCH  26  27
ATOM     27  C   UNL     1      -0.867   0.730  -1.738  0.00  0.00    +0.031 A 
ATOM     28  C   UNL     1      -0.427   1.304  -0.591  0.00  0.00    +0.020 A 
ATOM     29  C   UNL     1      -1.407   1.639   0.445  0.00  0.00    -0.001 A 
ATOM     30  C   UNL     1      -1.013   2.233   1.648  0.00  0.00    +0.010 A 
ATOM     31  C   UNL     1      -1.952   2.534   2.594  0.00  0.00    +0.004 A 
ATOM     32  C   UNL     1      -3.294   2.254   2.371  0.00  0.00    -0.048 A 
ATOM     33  C   UNL     1      -3.704   1.669   1.193  0.00  0.00    +0.029 A 
ATOM     34  C   UNL     1      -2.766   1.355   0.215  0.00  0.00    +0.049 A 
ATOM     35  N   UNL     1      -3.149   0.769  -0.973  0.00  0.00    -0.322 N 
ATOM     36  H   UNL     1      -4.086   0.574  -1.129  0.00  0.00    +0.169 HD
ATOM     37  C   UNL     1      -2.243   0.470  -1.920  0.00  0.00    +0.254 A 
ATOM     38  O   UNL     1      -2.617  -0.042  -2.961  0.00  0.00    -0.268 OA
ATOM     39  C   UNL     1      -4.312   2.594   3.429  0.00  0.00    +0.044 C 
ENDBRANCH  26  27
ENDBRANCH   1  26
TORSDOF 8
