REMARK  Name = ZINC09298402
REMARK  6 active torsions:
REMARK  status: ('A' for Active; 'I' for Inactive)
REMARK    1  A    between atoms: C_1  and  O_2
REMARK    2  A    between atoms: O_2  and  C_3
REMARK    3  A    between atoms: C_6  and  C_8
REMARK    4  A    between atoms: C_12  and  N_13
REMARK    5  A    between atoms: C_14  and  C_16
REMARK    6  A    between atoms: C_18  and  C_26
REMARK                            x       y       z     vdW  Elec       q    Type
REMARK                         _______ _______ _______ _____ _____    ______ ____
ROOT
ATOM      1  N   UNL     1       2.340   3.290  -0.018  0.00  0.00    -0.275 N 
ATOM      2  C   UNL     1       1.633   4.437   0.009  0.00  0.00    +0.249 C 
ATOM      3  O   UNL     1       0.418   4.402   0.033  0.00  0.00    -0.270 OA
ATOM      4  H   UNL     1       3.310   3.318  -0.037  0.00  0.00    +0.156 HD
ENDROOT
BRANCH   1   9
ATOM      5  C   UNL     1       2.229   0.797  -0.042  0.00  0.00    +0.069 A 
ATOM      6  C   UNL     1       1.311  -0.334  -0.032  0.00  0.00    -0.023 A 
ATOM      7  C   UNL     1       0.002  -0.004  -0.006  0.00  0.00    -0.004 A 
ATOM      8  S   UNL     1      -0.022   1.768   0.014  0.00  0.00    -0.077 S 
ATOM      9  C   UNL     1       1.683   2.072  -0.017  0.00  0.00    +0.085 A 
ATOM     10  C   UNL     1      -1.175  -0.929  -0.010  0.00  0.00    +0.043 C 
ATOM     11  C   UNL     1      -0.969  -2.016   1.053  0.00  0.00    +0.005 C 
ATOM     12  C   UNL     1      -0.233  -3.187   0.408  0.00  0.00    +0.001 C 
ATOM     13  C   UNL     1       0.728  -2.677  -0.664  0.00  0.00    +0.005 C 
ATOM     14  C   UNL     1       1.792  -1.780  -0.043  0.00  0.00    +0.037 C 
BRANCH   5  18
ATOM     15  C   UNL     1       5.708   0.304   1.041  0.00  0.00    +0.407 C 
ATOM     16  O   UNL     1       6.286   0.231  -0.025  0.00  0.00    -0.226 OA
ATOM     17  N   UNL     1       4.374   0.490   1.073  0.00  0.00    -0.217 N 
ATOM     18  C   UNL     1       3.680   0.595  -0.077  0.00  0.00    +0.255 C 
ATOM     19  O   UNL     1       4.258   0.521  -1.145  0.00  0.00    -0.270 OA
ATOM     20  H   UNL     1       3.913   0.549   1.925  0.00  0.00    +0.161 HD
BRANCH  15  22
ATOM     21  C   UNL     1       7.836   0.001   2.079  0.00  0.00    +0.282 C 
ATOM     22  O   UNL     1       6.402   0.200   2.190  0.00  0.00    -0.453 OA
ENDBRANCH  15  22
ENDBRANCH   5  18
ENDBRANCH   1   9
BRANCH   2  23
ATOM     23  C   UNL     1       2.335   5.739   0.008  0.00  0.00    +0.048 A 
ATOM     24  C   UNL     1       3.717   5.812   0.098  0.00  0.00    +0.042 A 
ATOM     25  C   UNL     1       4.343   7.071   0.089  0.00  0.00    +0.079 A 
ATOM     26  N   UNL     1       3.659   8.196   0.007  0.00  0.00    -0.246 NA
ATOM     27  C   UNL     1       2.327   8.216  -0.078  0.00  0.00    +0.072 A 
ATOM     28  C   UNL     1       1.598   7.000  -0.082  0.00  0.00    +0.013 A 
ATOM     29  C   UNL     1       0.203   7.027  -0.171  0.00  0.00    +0.011 A 
ATOM     30  C   UNL     1      -0.445   8.224  -0.254  0.00  0.00    +0.001 A 
ATOM     31  C   UNL     1       0.266   9.422  -0.250  0.00  0.00    +0.002 A 
ATOM     32  C   UNL     1       1.624   9.432  -0.164  0.00  0.00    +0.028 A 
BRANCH  25  33
ATOM     33  C   UNL     1       5.814   7.136   0.179  0.00  0.00    +0.038 A 
ATOM     34  C   UNL     1       6.631   8.237   0.187  0.00  0.00    +0.017 A 
ATOM     35  C   UNL     1       7.990   8.051   0.284  0.00  0.00    +0.008 A 
ATOM     36  C   UNL     1       8.482   6.785   0.358  0.00  0.00    +0.046 A 
ATOM     37  S   UNL     1       6.994   5.801   0.299  0.00  0.00    -0.095 S 
ENDBRANCH  25  33
ENDBRANCH   2  23
TORSDOF 5
