REMARK  Name = ZINC35778981
REMARK  15 active torsions:
REMARK  status: ('A' for Active; 'I' for Inactive)
REMARK    1  A    between atoms: C_1  and  C_2
REMARK    2  A    between atoms: C_6  and  O_8
REMARK    3  A    between atoms: O_8  and  C_9
REMARK    4  A    between atoms: C_9  and  C_10
REMARK    5  A    between atoms: C_20  and  C_22
REMARK    6  A    between atoms: C_22  and  N_23
REMARK    7  A    between atoms: N_23  and  C_24
REMARK    8  A    between atoms: N_23  and  C_28
REMARK    9  A    between atoms: C_24  and  C_25
REMARK   10  A    between atoms: C_28  and  C_29
REMARK   11  A    between atoms: C_29  and  C_31
REMARK   12  A    between atoms: C_29  and  O_40
REMARK   13  A    between atoms: C_31  and  O_32
REMARK   14  A    between atoms: O_32  and  C_33
REMARK   15  A    between atoms: C_33  and  C_34
REMARK                            x       y       z     vdW  Elec       q    Type
REMARK                         _______ _______ _______ _____ _____    ______ ____
ROOT
ATOM      1  C   UNL     1      -1.262  -5.093   2.377  0.00  0.00    +0.144 C 
ATOM      2  C   UNL     1       0.109  -4.507   2.708  0.00  0.00    -0.014 A 
ATOM      3  C   UNL     1       1.274  -4.857   2.025  0.00  0.00    +0.013 A 
ATOM      4  C   UNL     1       2.454  -4.293   2.369  0.00  0.00    +0.046 A 
ATOM      5  S   UNL     1       1.971  -3.214   3.708  0.00  0.00    -0.101 S 
ATOM      6  C   UNL     1       0.239  -3.596   3.710  0.00  0.00    -0.004 A 
ATOM      7  C   UNL     1      -0.831  -3.052   4.601  0.00  0.00    +0.061 C 
ATOM      8  C   UNL     1      -2.199  -3.363   3.974  0.00  0.00    +0.113 C 
ATOM      9  N   UNL     1      -2.176  -4.747   3.475  0.00  0.00    -0.292 N 
ATOM     10  C   UNL     1      -2.980  -5.684   4.016  0.00  0.00    +0.200 C 
ATOM     11  O   UNL     1      -2.952  -6.822   3.598  0.00  0.00    -0.278 OA
ENDROOT
BRANCH   1  12
ATOM     12  C   UNL     1      -1.778  -4.498   1.066  0.00  0.00    +0.256 C 
BRANCH  12  13
ATOM     13  O   UNL     1      -1.763  -3.071   1.152  0.00  0.00    -0.490 OA
BRANCH  13  19
ATOM     14  C   UNL     1      -2.658   1.208  -1.017  0.00  0.00    +0.044 C 
ATOM     15  C   UNL     1      -2.644  -0.298  -1.032  0.00  0.00    -0.047 A 
ATOM     16  C   UNL     1      -3.072  -0.982  -2.155  0.00  0.00    +0.003 A 
ATOM     17  C   UNL     1      -3.061  -2.364  -2.172  0.00  0.00    +0.004 A 
ATOM     18  C   UNL     1      -2.623  -3.066  -1.066  0.00  0.00    +0.045 A 
ATOM     19  C   UNL     1      -2.194  -2.383   0.062  0.00  0.00    +0.121 A 
ATOM     20  C   UNL     1      -2.200  -0.996   0.074  0.00  0.00    +0.049 A 
ENDBRANCH  13  19
ENDBRANCH  12  13
ENDBRANCH   1  12
BRANCH  10  21
ATOM     21  C   UNL     1      -3.913  -5.317   5.141  0.00  0.00    +0.019 C 
BRANCH  21  22
ATOM     22  N   UNL     1      -4.675  -6.503   5.552  0.00  0.00    +0.387 N 
ATOM     23  H   UNL     1      -5.122  -6.912   4.745  0.00  0.00    -0.081 HD
BRANCH  22  24
ATOM     24  C   UNL     1      -3.764  -7.485   6.157  0.00  0.00    -0.075 C 
BRANCH  24  25
ATOM     25  C   UNL     1      -4.540  -8.760   6.495  0.00  0.00    -0.028 C 
ATOM     26  C   UNL     1      -4.730  -9.100   7.974  0.00  0.00    +0.002 C 
ATOM     27  C   UNL     1      -3.759  -9.917   7.120  0.00  0.00    +0.002 C 
ENDBRANCH  24  25
ENDBRANCH  22  24
BRANCH  22  28
ATOM     28  C   UNL     1      -5.696  -6.114   6.533  0.00  0.00    -0.044 C 
BRANCH  28  29
ATOM     29  C   UNL     1      -6.760  -5.254   5.848  0.00  0.00    +0.124 C 
BRANCH  29  30
ATOM     30  O   UNL     1      -6.202  -3.980   5.517  0.00  0.00    -0.391 OA
ATOM     31  H   UNL     1      -5.880  -3.482   6.280  0.00  0.00    +0.210 HD
ENDBRANCH  29  30
BRANCH  29  32
ATOM     32  C   UNL     1      -7.947  -5.061   6.794  0.00  0.00    +0.189 C 
BRANCH  32  33
ATOM     33  O   UNL     1      -8.988  -4.357   6.114  0.00  0.00    -0.373 OA
BRANCH  33  34
ATOM     34  C   UNL     1     -10.150  -4.123   6.913  0.00  0.00    +0.195 C 
BRANCH  34  35
ATOM     35  C   UNL     1     -11.177  -3.379   6.099  0.00  0.00    -0.022 A 
ATOM     36  C   UNL     1     -11.182  -1.996   6.090  0.00  0.00    +0.006 A 
ATOM     37  C   UNL     1     -12.125  -1.313   5.344  0.00  0.00    +0.000 A 
ATOM     38  C   UNL     1     -13.062  -2.013   4.608  0.00  0.00    +0.000 A 
ATOM     39  C   UNL     1     -13.056  -3.395   4.616  0.00  0.00    +0.000 A 
ATOM     40  C   UNL     1     -12.111  -4.078   5.359  0.00  0.00    +0.006 A 
ENDBRANCH  34  35
ENDBRANCH  33  34
ENDBRANCH  32  33
ENDBRANCH  29  32
ENDBRANCH  28  29
ENDBRANCH  22  28
ENDBRANCH  21  22
ENDBRANCH  10  21
TORSDOF 14
