REMARK  Name = ZINC20352804
REMARK  14 active torsions:
REMARK  status: ('A' for Active; 'I' for Inactive)
REMARK    1  A    between atoms: C_1  and  C_2
REMARK    2  A    between atoms: C_4  and  O_11
REMARK    3  A    between atoms: C_7  and  N_8
REMARK    4  A    between atoms: O_11  and  C_12
REMARK    5  A    between atoms: C_12  and  C_13
REMARK    6  A    between atoms: C_15  and  C_21
REMARK    7  A    between atoms: C_18  and  O_19
REMARK    8  A    between atoms: O_19  and  C_20
REMARK    9  A    between atoms: C_22  and  C_23
REMARK   10  A    between atoms: C_22  and  C_25
REMARK   11  A    between atoms: N_27  and  C_28
REMARK   12  A    between atoms: C_28  and  C_29
REMARK   13  A    between atoms: C_32  and  O_35
REMARK   14  A    between atoms: O_35  and  C_36
REMARK                            x       y       z     vdW  Elec       q    Type
REMARK                         _______ _______ _______ _____ _____    ______ ____
ROOT
ATOM      1  C   UNL     1      -1.282  -2.686  -0.280  0.00  0.00    +0.032 A 
ATOM      2  C   UNL     1      -2.139  -1.623  -0.336  0.00  0.00    +0.018 A 
ATOM      3  C   UNL     1      -3.507  -1.839  -0.558  0.00  0.00    -0.023 A 
ATOM      4  C   UNL     1      -3.988  -3.148  -0.711  0.00  0.00    +0.011 A 
ATOM      5  C   UNL     1      -3.123  -4.202  -0.648  0.00  0.00    +0.046 A 
ATOM      6  C   UNL     1      -1.766  -3.981  -0.433  0.00  0.00    +0.127 A 
ENDROOT
BRANCH   6   7
ATOM      7  O   UNL     1      -0.911  -5.033  -0.371  0.00  0.00    -0.495 OA
ATOM      8  C   UNL     1      -1.473  -6.336  -0.536  0.00  0.00    +0.277 C 
ENDBRANCH   6   7
BRANCH   3   9
ATOM      9  C   UNL     1      -4.429  -0.704  -0.624  0.00  0.00    +0.032 C 
ATOM     10  C   UNL     1      -5.735  -0.853  -0.212  0.00  0.00    +0.114 C 
BRANCH  10  11
ATOM     11  C   UNL     1      -6.699   0.241  -0.410  0.00  0.00    +0.255 C 
ATOM     12  O   UNL     1      -6.342   1.278  -0.939  0.00  0.00    -0.269 OA
ATOM     13  N   UNL     1      -7.976   0.096  -0.007  0.00  0.00    -0.307 N 
ATOM     14  H   UNL     1      -8.299  -0.841   0.471  0.00  0.00    +0.149 HD
BRANCH  13  15
ATOM     15  C   UNL     1      -8.936   1.185  -0.205  0.00  0.00    +0.139 C 
BRANCH  15  16
ATOM     16  C   UNL     1     -10.283   0.771   0.330  0.00  0.00    -0.030 A 
ATOM     17  C   UNL     1     -11.190   0.139  -0.501  0.00  0.00    +0.009 A 
ATOM     18  C   UNL     1     -12.423  -0.247  -0.012  0.00  0.00    +0.046 A 
ATOM     19  C   UNL     1     -12.756   0.012   1.310  0.00  0.00    +0.120 A 
ATOM     20  C   UNL     1     -11.846   0.652   2.139  0.00  0.00    +0.046 A 
ATOM     21  C   UNL     1     -10.612   1.030   1.647  0.00  0.00    +0.009 A 
BRANCH  19  22
ATOM     22  O   UNL     1     -13.970  -0.362   1.792  0.00  0.00    -0.495 OA
ATOM     23  C   UNL     1     -14.856  -1.016   0.881  0.00  0.00    +0.277 C 
ENDBRANCH  19  22
ENDBRANCH  15  16
ENDBRANCH  13  15
ENDBRANCH  10  11
BRANCH  10  24
ATOM     24  C   UNL     1      -6.155  -2.072   0.410  0.00  0.00    +0.104 C 
ATOM     25  N   UNL     1      -6.488  -3.040   0.904  0.00  0.00    -0.191 NA
ENDBRANCH  10  24
ENDBRANCH   3   9
BRANCH   1  26
ATOM     26  C   UNL     1       0.188  -2.454  -0.046  0.00  0.00    +0.268 C 
BRANCH  26  27
ATOM     27  O   UNL     1       0.436  -1.053   0.078  0.00  0.00    -0.487 OA
BRANCH  27  31
ATOM     28  C   UNL     1       3.684   2.522   0.783  0.00  0.00    +0.046 C 
ATOM     29  C   UNL     1       3.344   1.060   0.642  0.00  0.00    -0.017 A 
ATOM     30  C   UNL     1       2.035   0.675   0.423  0.00  0.00    +0.051 A 
ATOM     31  C   UNL     1       1.723  -0.671   0.293  0.00  0.00    +0.121 A 
ATOM     32  C   UNL     1       2.725  -1.625   0.383  0.00  0.00    +0.048 A 
ATOM     33  C   UNL     1       4.032  -1.234   0.602  0.00  0.00    +0.036 A 
ATOM     34  C   UNL     1       4.341   0.107   0.731  0.00  0.00    +0.129 A 
BRANCH  34  35
ATOM     35  N   UNL     1       5.742   0.524   0.964  0.00  0.00    +0.057 N 
ATOM     36  O   UNL     1       6.653  -0.071   0.417  0.00  0.00    -0.126 OA
ATOM     37  O   UNL     1       5.984   1.461   1.703  0.00  0.00    -0.126 OA
ENDBRANCH  34  35
ENDBRANCH  27  31
ENDBRANCH  26  27
ENDBRANCH   1  26
TORSDOF 11
