REMARK  Name = ZINC09550005
REMARK  8 active torsions:
REMARK  status: ('A' for Active; 'I' for Inactive)
REMARK    1  A    between atoms: C_4  and  C_7
REMARK    2  A    between atoms: C_7  and  C_9
REMARK    3  A    between atoms: C_7  and  N_14
REMARK    4  A    between atoms: C_15  and  C_17
REMARK    5  A    between atoms: C_17  and  N_57
REMARK    6  A    between atoms: N_20  and  S_23
REMARK    7  A    between atoms: S_23  and  C_26
REMARK    8  A    between atoms: C_31  and  C_32
REMARK                            x       y       z     vdW  Elec       q    Type
REMARK                         _______ _______ _______ _____ _____    ______ ____
ROOT
ATOM      1  C   UNL     1      -1.337   6.118   1.890  0.00  0.00    -0.061 C 
ATOM      2  C   UNL     1      -2.035   7.429   1.514  0.00  0.00    +0.091 C 
ATOM      3  N   UNL     1      -3.034   7.740   2.549  0.00  0.00    -0.180 NA
ATOM      4  C   UNL     1      -3.996   6.693   2.924  0.00  0.00    +0.091 C 
ATOM      5  C   UNL     1      -3.220   5.411   3.244  0.00  0.00    -0.061 C 
ATOM      6  N   UNL     1      -2.364   5.072   2.086  0.00  0.00    +0.387 N 
ATOM      7  H   UNL     1      -2.949   5.018   1.244  0.00  0.00    -0.081 HD
ENDROOT
BRANCH   3   8
ATOM      8  S   UNL     1      -3.072   9.229   3.273  0.00  0.00    +0.062 S 
ATOM      9  O   UNL     1      -2.309  10.101   2.450  0.00  0.00    -0.153 OA
ATOM     10  O   UNL     1      -4.431   9.486   3.600  0.00  0.00    -0.153 OA
BRANCH   8  11
ATOM     11  C   UNL     1      -2.204   9.089   4.799  0.00  0.00    +0.123 A 
ATOM     12  C   UNL     1      -2.884   9.203   5.994  0.00  0.00    +0.030 A 
ATOM     13  C   UNL     1      -2.204   9.089   7.194  0.00  0.00    +0.002 A 
ATOM     14  C   UNL     1      -0.838   8.870   7.204  0.00  0.00    +0.001 A 
ATOM     15  C   UNL     1      -0.145   8.758   6.017  0.00  0.00    +0.021 A 
ATOM     16  C   UNL     1      -0.825   8.868   4.802  0.00  0.00    +0.078 A 
BRANCH  16  17
ATOM     17  C   UNL     1      -0.112   8.754   3.566  0.00  0.00    +0.101 C 
ATOM     18  N   UNL     1       0.453   8.664   2.585  0.00  0.00    -0.191 NA
ENDBRANCH  16  17
ENDBRANCH   8  11
ENDBRANCH   3   8
BRANCH   6  19
ATOM     19  C   UNL     1      -1.715   3.763   2.305  0.00  0.00    +0.019 C 
BRANCH  19  21
ATOM     20  N   UNL     1      -0.378   2.165   0.972  0.00  0.00    -0.306 N 
ATOM     21  C   UNL     1      -1.029   3.343   1.030  0.00  0.00    +0.197 C 
ATOM     22  O   UNL     1      -1.063   4.066   0.057  0.00  0.00    -0.278 OA
ATOM     23  H   UNL     1      -0.350   1.587   1.751  0.00  0.00    +0.150 HD
BRANCH  20  24
ATOM     24  C   UNL     1       0.289   1.756  -0.267  0.00  0.00    +0.140 C 
BRANCH  24  28
ATOM     25  C   UNL     1       0.586  -2.503  -0.388  0.00  0.00    +0.000 A 
ATOM     26  C   UNL     1       0.276  -1.799  -1.536  0.00  0.00    +0.000 A 
ATOM     27  C   UNL     1       0.180  -0.421  -1.497  0.00  0.00    +0.006 A 
ATOM     28  C   UNL     1       0.394   0.254  -0.309  0.00  0.00    -0.022 A 
ATOM     29  C   UNL     1       0.709  -0.450   0.838  0.00  0.00    +0.006 A 
ATOM     30  C   UNL     1       0.800  -1.829   0.800  0.00  0.00    +0.000 A 
ENDBRANCH  24  28
BRANCH  24  31
ATOM     31  C   UNL     1       1.670   2.358  -0.316  0.00  0.00    +0.014 A 
ATOM     32  C   UNL     1       2.334   2.887  -1.372  0.00  0.00    +0.013 A 
ATOM     33  C   UNL     1       3.607   3.390  -1.180  0.00  0.00    +0.008 A 
ATOM     34  C   UNL     1       4.158   3.330   0.057  0.00  0.00    +0.045 A 
ATOM     35  S   UNL     1       2.860   2.551   1.002  0.00  0.00    -0.099 S 
ENDBRANCH  24  31
ENDBRANCH  20  24
ENDBRANCH  19  21
ENDBRANCH   6  19
TORSDOF 8
