REMARK  Name = ZINC35955162
REMARK  4 active torsions:
REMARK  status: ('A' for Active; 'I' for Inactive)
REMARK    1  A    between atoms: N_11  and  C_12
REMARK    2  A    between atoms: C_18  and  C_20
REMARK    3  A    between atoms: C_27  and  C_30
REMARK    4  A    between atoms: C_34  and  C_36
REMARK                            x       y       z     vdW  Elec       q    Type
REMARK                         _______ _______ _______ _____ _____    ______ ____
ROOT
ATOM      1  C   UNL     1       6.793   1.555   0.077  0.00  0.00    +0.095 C 
ATOM      2  C   UNL     1       7.586   1.099  -1.149  0.00  0.00    +0.044 C 
ATOM      3  C   UNL     1       7.411  -0.412  -1.332  0.00  0.00    +0.110 C 
ATOM      4  N   UNL     1       7.789  -1.087  -0.083  0.00  0.00    -0.296 N 
ATOM      5  C   UNL     1       7.152  -0.662   1.170  0.00  0.00    +0.110 C 
ATOM      6  C   UNL     1       7.330   0.852   1.326  0.00  0.00    +0.044 C 
ATOM      7  C   UNL     1       8.703  -2.078  -0.088  0.00  0.00    +0.266 C 
ATOM      8  O   UNL     1       9.102  -2.541   0.963  0.00  0.00    -0.268 OA
ENDROOT
BRANCH   1  19
ATOM      9  C   UNL     1       4.295   6.194   0.279  0.00  0.00    +0.002 A 
ATOM     10  C   UNL     1       3.725   4.946   0.095  0.00  0.00    +0.002 A 
ATOM     11  C   UNL     1       4.517   3.815   0.065  0.00  0.00    +0.028 A 
ATOM     12  C   UNL     1       5.890   3.930   0.221  0.00  0.00    +0.070 A 
ATOM     13  C   UNL     1       6.466   5.189   0.406  0.00  0.00    +0.067 A 
ATOM     14  C   UNL     1       5.662   6.318   0.434  0.00  0.00    +0.028 A 
ATOM     15  N   UNL     1       7.839   4.989   0.529  0.00  0.00    -0.306 N 
ATOM     16  H   UNL     1       8.503   5.682   0.668  0.00  0.00    +0.170 HD
ATOM     17  C   UNL     1       8.087   3.670   0.423  0.00  0.00    +0.328 A 
ATOM     18  O   UNL     1       9.189   3.157   0.487  0.00  0.00    -0.247 OA
ATOM     19  N   UNL     1       6.931   3.005   0.237  0.00  0.00    -0.289 N 
ENDBRANCH   1  19
BRANCH   7  20
ATOM     20  C   UNL     1       9.218  -2.599  -1.366  0.00  0.00    +0.144 A 
ATOM     21  C   UNL     1      10.238  -3.493  -1.519  0.00  0.00    +0.120 A 
ATOM     22  N   UNL     1      10.383  -3.695  -2.845  0.00  0.00    -0.333 N 
ATOM     23  C   UNL     1       9.457  -2.930  -3.488  0.00  0.00    +0.111 A 
ATOM     24  N   UNL     1       8.760  -2.282  -2.605  0.00  0.00    -0.228 NA
ATOM     25  C   UNL     1       9.298  -2.883  -4.990  0.00  0.00    +0.075 C 
ATOM     26  C   UNL     1      10.035  -4.088  -5.588  0.00  0.00    +0.017 C 
ATOM     27  C   UNL     1      11.442  -4.166  -4.990  0.00  0.00    +0.039 C 
ATOM     28  C   UNL     1      11.351  -4.570  -3.514  0.00  0.00    +0.131 C 
BRANCH  27  29
ATOM     29  C   UNL     1      12.251  -5.192  -5.741  0.00  0.00    -0.042 A 
ATOM     30  C   UNL     1      11.828  -6.508  -5.786  0.00  0.00    +0.004 A 
ATOM     31  C   UNL     1      12.569  -7.449  -6.475  0.00  0.00    +0.001 A 
ATOM     32  C   UNL     1      13.733  -7.075  -7.120  0.00  0.00    +0.012 A 
ATOM     33  C   UNL     1      14.155  -5.760  -7.076  0.00  0.00    +0.055 A 
ATOM     34  C   UNL     1      13.412  -4.817  -6.391  0.00  0.00    +0.016 A 
BRANCH  33  35
ATOM     35  C   UNL     1      15.425  -5.352  -7.779  0.00  0.00    +0.417 C 
ATOM     36  F   UNL     1      15.993  -6.469  -8.400  0.00  0.00    -0.166 F 
ATOM     37  F   UNL     1      15.133  -4.381  -8.743  0.00  0.00    -0.166 F 
ATOM     38  F   UNL     1      16.326  -4.827  -6.847  0.00  0.00    -0.166 F 
ENDBRANCH  33  35
ENDBRANCH  27  29
ENDBRANCH   7  20
TORSDOF 4
