REMARK  Name = ZINC17794209
REMARK  12 active torsions:
REMARK  status: ('A' for Active; 'I' for Inactive)
REMARK    1  A    between atoms: C_1  and  C_2
REMARK    2  A    between atoms: C_4  and  C_33
REMARK    3  A    between atoms: C_5  and  S_9
REMARK    4  A    between atoms: C_6  and  C_8
REMARK    5  A    between atoms: S_9  and  N_12
REMARK    6  A    between atoms: C_15  and  C_18
REMARK    7  A    between atoms: N_20  and  C_21
REMARK    8  A    between atoms: C_21  and  C_22
REMARK    9  A    between atoms: C_22  and  C_24
REMARK   10  A    between atoms: C_22  and  N_67
REMARK   11  A    between atoms: C_31  and  N_67
REMARK   12  A    between atoms: C_32  and  N_67
REMARK                            x       y       z     vdW  Elec       q    Type
REMARK                         _______ _______ _______ _____ _____    ______ ____
ROOT
ATOM      1  N   UNL     1      -6.594   0.892  -4.152  0.00  0.00    -0.177 NA
ATOM      2  C   UNL     1      -7.009  -0.482  -4.466  0.00  0.00    +0.110 C 
ATOM      3  C   UNL     1      -6.645  -1.389  -3.287  0.00  0.00    +0.030 C 
ATOM      4  C   UNL     1      -5.154  -1.238  -2.974  0.00  0.00    +0.077 C 
ATOM      5  C   UNL     1      -4.858   0.210  -2.579  0.00  0.00    +0.030 C 
ATOM      6  C   UNL     1      -5.202   1.136  -3.750  0.00  0.00    +0.110 C 
ENDROOT
BRANCH   4   7
ATOM      7  C   UNL     1      -4.785  -2.154  -1.836  0.00  0.00    +0.216 C 
ATOM      8  O   UNL     1      -5.630  -2.858  -1.326  0.00  0.00    -0.276 OA
ATOM      9  N   UNL     1      -3.515  -2.192  -1.385  0.00  0.00    -0.316 N 
ATOM     10  H   UNL     1      -2.839  -1.628  -1.793  0.00  0.00    +0.149 HD
BRANCH   9  11
ATOM     11  C   UNL     1      -3.156  -3.082  -0.279  0.00  0.00    +0.093 C 
BRANCH  11  12
ATOM     12  C   UNL     1      -1.645  -3.028  -0.051  0.00  0.00    -0.021 C 
BRANCH  12  13
ATOM     13  C   UNL     1      -0.933  -3.563  -1.266  0.00  0.00    -0.057 A 
ATOM     14  C   UNL     1      -0.393  -2.689  -2.192  0.00  0.00    +0.002 A 
ATOM     15  C   UNL     1       0.260  -3.179  -3.308  0.00  0.00    +0.003 A 
ATOM     16  C   UNL     1       0.373  -4.543  -3.500  0.00  0.00    +0.038 A 
ATOM     17  C   UNL     1      -0.167  -5.419  -2.574  0.00  0.00    +0.124 A 
ATOM     18  C   UNL     1      -0.816  -4.927  -1.454  0.00  0.00    +0.040 A 
ATOM     19  F   UNL     1      -0.057  -6.752  -2.761  0.00  0.00    -0.205 F 
ENDBRANCH  12  13
BRANCH  12  22
ATOM     20  C   UNL     1       0.157  -3.875   1.327  0.00  0.00    -0.096 C 
ATOM     21  C   UNL     1      -1.991  -3.366   2.322  0.00  0.00    -0.096 C 
ATOM     22  N   UNL     1      -1.305  -3.873   1.114  0.00  0.00    +0.382 N 
ATOM     23  H   UNL     1      -1.618  -4.833   0.932  0.00  0.00    -0.082 HD
ENDBRANCH  12  22
ENDBRANCH  11  12
ENDBRANCH   9  11
ENDBRANCH   4   7
BRANCH   1  24
ATOM     24  S   UNL     1      -7.675   2.143  -4.249  0.00  0.00    +0.061 S 
ATOM     25  O   UNL     1      -6.924   3.305  -4.572  0.00  0.00    -0.153 OA
ATOM     26  O   UNL     1      -8.754   1.686  -5.053  0.00  0.00    -0.153 OA
BRANCH  24  31
ATOM     27  C   UNL     1      -9.901   3.010   1.292  0.00  0.00    +0.044 C 
ATOM     28  C   UNL     1      -9.345   2.794  -0.092  0.00  0.00    -0.050 A 
ATOM     29  C   UNL     1      -9.765   1.713  -0.845  0.00  0.00    +0.008 A 
ATOM     30  C   UNL     1      -9.255   1.514  -2.114  0.00  0.00    -0.024 A 
ATOM     31  C   UNL     1      -8.325   2.397  -2.631  0.00  0.00    +0.111 A 
ATOM     32  C   UNL     1      -7.901   3.474  -1.877  0.00  0.00    -0.024 A 
ATOM     33  C   UNL     1      -8.415   3.676  -0.610  0.00  0.00    +0.008 A 
ATOM     34  C   UNL     1      -6.882   4.433  -2.438  0.00  0.00    +0.046 C 
ATOM     35  C   UNL     1      -9.713   0.336  -2.934  0.00  0.00    +0.046 C 
ENDBRANCH  24  31
ENDBRANCH   1  24
TORSDOF 7
