REMARK  Name = ZINC03263905
REMARK  5 active torsions:
REMARK  status: ('A' for Active; 'I' for Inactive)
REMARK    1  A    between atoms: C_4  and  C_7
REMARK    2  A    between atoms: C_10  and  C_26
REMARK    3  A    between atoms: C_11  and  C_19
REMARK    4  A    between atoms: C_26  and  N_28
REMARK    5  A    between atoms: N_28  and  C_29
REMARK                            x       y       z     vdW  Elec       q    Type
REMARK                         _______ _______ _______ _____ _____    ______ ____
ROOT
ATOM      1  C   UNL     1       2.537  -2.827   0.090  0.00  0.00    +0.163 A 
ATOM      2  N   UNL     1       1.749  -1.813  -0.224  0.00  0.00    -0.146 NA
ATOM      3  N   UNL     1       2.386  -0.610   0.110  0.00  0.00    -0.211 N 
ATOM      4  C   UNL     1       2.354   0.764   0.254  0.00  0.00    +0.104 A 
ATOM      5  C   UNL     1       3.631   1.203   0.673  0.00  0.00    +0.017 A 
ATOM      6  C   UNL     1       4.435   0.076   0.774  0.00  0.00    +0.005 A 
ATOM      7  C   UNL     1       3.619  -0.978   0.478  0.00  0.00    +0.141 A 
ATOM      8  N   UNL     1       3.689  -2.347   0.620  0.00  0.00    -0.309 N 
ATOM      9  C   UNL     1       4.855  -2.898   1.310  0.00  0.00    +0.125 C 
ATOM     10  C   UNL     1       6.123  -2.658   0.514  0.00  0.00    +0.022 C 
ATOM     11  C   UNL     1       6.385  -1.206   0.092  0.00  0.00    +0.006 C 
ATOM     12  C   UNL     1       5.911  -0.117   1.067  0.00  0.00    +0.039 C 
ENDROOT
BRANCH   5  13
ATOM     13  C   UNL     1       4.034   2.600   0.955  0.00  0.00    -0.015 A 
ATOM     14  C   UNL     1       4.999   3.224   0.164  0.00  0.00    +0.010 A 
ATOM     15  C   UNL     1       5.367   4.527   0.427  0.00  0.00    +0.020 A 
ATOM     16  C   UNL     1       4.787   5.212   1.482  0.00  0.00    +0.041 A 
ATOM     17  C   UNL     1       3.833   4.597   2.274  0.00  0.00    +0.020 A 
ATOM     18  C   UNL     1       3.454   3.295   2.016  0.00  0.00    +0.010 A 
ATOM     19 CL   UNL     1       5.260   6.850   1.812  0.00  0.00    -0.084 Cl
ENDBRANCH   5  13
BRANCH   1  23
ATOM     20  C   UNL     1       1.608  -6.935  -0.470  0.00  0.00    +0.000 A 
ATOM     21  C   UNL     1       0.597  -5.990  -0.497  0.00  0.00    +0.001 A 
ATOM     22  C   UNL     1       0.893  -4.655  -0.315  0.00  0.00    +0.011 A 
ATOM     23  C   UNL     1       2.213  -4.258  -0.105  0.00  0.00    +0.019 A 
ATOM     24  C   UNL     1       3.229  -5.214  -0.086  0.00  0.00    +0.011 A 
ATOM     25  C   UNL     1       2.920  -6.547  -0.262  0.00  0.00    +0.001 A 
ENDBRANCH   1  23
BRANCH   4  26
ATOM     26  C   UNL     1       1.236   1.591   0.017  0.00  0.00    +0.103 C 
ATOM     27  S   UNL     1       1.361   3.283   0.242  0.00  0.00    -0.033 S 
BRANCH  26  28
ATOM     28  N   UNL     1       0.070   1.048  -0.387  0.00  0.00    -0.305 N 
ATOM     29  H   UNL     1       0.017   0.098  -0.574  0.00  0.00    +0.153 HD
BRANCH  28  30
ATOM     30  C   UNL     1      -1.061   1.857  -0.542  0.00  0.00    +0.067 A 
ATOM     31  C   UNL     1      -0.965   3.065  -1.219  0.00  0.00    +0.026 A 
ATOM     32  C   UNL     1      -2.085   3.859  -1.375  0.00  0.00    +0.002 A 
ATOM     33  C   UNL     1      -3.299   3.457  -0.848  0.00  0.00    +0.003 A 
ATOM     34  C   UNL     1      -3.398   2.257  -0.168  0.00  0.00    +0.040 A 
ATOM     35  C   UNL     1      -2.283   1.455  -0.013  0.00  0.00    +0.144 A 
ATOM     36  F   UNL     1      -2.380   0.283   0.652  0.00  0.00    -0.204 F 
ENDBRANCH  28  30
ENDBRANCH  26  28
ENDBRANCH   4  26
TORSDOF 5
