REMARK  Name = ZINC40893842
REMARK  12 active torsions:
REMARK  status: ('A' for Active; 'I' for Inactive)
REMARK    1  A    between atoms: C_1  and  C_2
REMARK    2  A    between atoms: C_2  and  C_3
REMARK    3  A    between atoms: C_3  and  O_4
REMARK    4  A    between atoms: O_4  and  C_5
REMARK    5  A    between atoms: C_8  and  C_11
REMARK    6  A    between atoms: C_12  and  C_13
REMARK    7  A    between atoms: C_13  and  O_15
REMARK    8  A    between atoms: O_15  and  C_16
REMARK    9  A    between atoms: C_21  and  C_27
REMARK   10  A    between atoms: N_29  and  C_30
REMARK   11  A    between atoms: C_30  and  C_32
REMARK   12  A    between atoms: C_30  and  C_33
REMARK                            x       y       z     vdW  Elec       q    Type
REMARK                         _______ _______ _______ _____ _____    ______ ____
ROOT
ATOM      1  C   UNL     1       4.740  -8.466   7.700  0.00  0.00    +0.135 A 
ATOM      2  C   UNL     1       5.296  -7.746   8.758  0.00  0.00    +0.047 A 
ATOM      3  C   UNL     1       5.953  -8.391   9.763  0.00  0.00    +0.015 A 
ATOM      4  C   UNL     1       6.082  -9.789   9.731  0.00  0.00    +0.019 A 
ATOM      5  C   UNL     1       6.793 -10.468  10.750  0.00  0.00    +0.031 A 
ATOM      6  C   UNL     1       7.064 -11.820  10.570  0.00  0.00    +0.122 A 
ATOM      7  C   UNL     1       6.615 -12.438   9.309  0.00  0.00    +0.350 A 
ATOM      8  O   UNL     1       7.171 -13.422   8.858  0.00  0.00    -0.244 OA
ATOM      9  O   UNL     1       5.563 -11.874   8.672  0.00  0.00    -0.422 OA
ATOM     10  C   UNL     1       5.495 -10.521   8.679  0.00  0.00    +0.143 A 
ATOM     11  C   UNL     1       4.832  -9.848   7.665  0.00  0.00    +0.093 A 
ENDROOT
BRANCH   6  12
ATOM     12  C   UNL     1       7.770 -12.602  11.597  0.00  0.00    +0.251 C 
ATOM     13  O   UNL     1       8.130 -12.067  12.628  0.00  0.00    -0.270 OA
ATOM     14  N   UNL     1       8.019 -13.911  11.394  0.00  0.00    -0.305 N 
ATOM     15  H   UNL     1       7.732 -14.338  10.572  0.00  0.00    +0.150 HD
BRANCH  14  16
ATOM     16  C   UNL     1       8.722 -14.690  12.416  0.00  0.00    +0.100 C 
ATOM     17  C   UNL     1       7.718 -15.192  13.456  0.00  0.00    +0.033 C 
BRANCH  16  18
ATOM     18  C   UNL     1       9.406 -15.867  11.769  0.00  0.00    -0.027 A 
ATOM     19  C   UNL     1       8.770 -16.566  10.760  0.00  0.00    +0.005 A 
ATOM     20  C   UNL     1       9.397 -17.646  10.167  0.00  0.00    +0.000 A 
ATOM     21  C   UNL     1      10.660 -18.026  10.582  0.00  0.00    +0.000 A 
ATOM     22  C   UNL     1      11.296 -17.326  11.591  0.00  0.00    +0.000 A 
ATOM     23  C   UNL     1      10.670 -16.244  12.181  0.00  0.00    +0.005 A 
ENDBRANCH  16  18
ENDBRANCH  14  16
ENDBRANCH   6  12
BRANCH   1  24
ATOM     24  O   UNL     1       4.099  -7.807   6.701  0.00  0.00    -0.423 OA
BRANCH  24  25
ATOM     25  C   UNL     1       4.851  -7.184   5.770  0.00  0.00    +0.337 C 
ATOM     26  O   UNL     1       6.061  -7.146   5.890  0.00  0.00    -0.245 OA
BRANCH  25  28
ATOM     27  C   UNL     1       4.982  -5.948   3.719  0.00  0.00    +0.015 C 
ATOM     28  C   UNL     1       4.230  -6.572   4.652  0.00  0.00    +0.092 C 
BRANCH  27  32
ATOM     29  C   UNL     1       3.126  -4.121   0.372  0.00  0.00    +0.121 A 
ATOM     30  C   UNL     1       4.509  -4.075   0.508  0.00  0.00    +0.046 A 
ATOM     31  C   UNL     1       5.116  -4.667   1.592  0.00  0.00    +0.011 A 
ATOM     32  C   UNL     1       4.339  -5.314   2.560  0.00  0.00    -0.025 A 
ATOM     33  C   UNL     1       2.947  -5.357   2.419  0.00  0.00    +0.011 A 
ATOM     34  C   UNL     1       2.349  -4.758   1.333  0.00  0.00    +0.046 A 
BRANCH  29  35
ATOM     35  O   UNL     1       2.531  -3.536  -0.699  0.00  0.00    -0.492 OA
BRANCH  35  36
ATOM     36  C   UNL     1       3.388  -2.898  -1.648  0.00  0.00    +0.229 C 
BRANCH  36  38
ATOM     37  C   UNL     1       3.462  -1.619  -3.793  0.00  0.00    +0.007 C 
ATOM     38  C   UNL     1       2.545  -2.301  -2.776  0.00  0.00    +0.038 C 
ENDBRANCH  36  38
ENDBRANCH  35  36
ENDBRANCH  29  35
ENDBRANCH  27  32
ENDBRANCH  25  28
ENDBRANCH  24  25
ENDBRANCH   1  24
TORSDOF 10
