REMARK  Name = ZINC43286117
REMARK  5 active torsions:
REMARK  status: ('A' for Active; 'I' for Inactive)
REMARK    1  A    between atoms: C_1  and  C_2
REMARK    2  A    between atoms: C_2  and  C_4
REMARK    3  A    between atoms: C_2  and  N_24
REMARK    4  A    between atoms: C_4  and  C_6
REMARK    5  A    between atoms: C_4  and  N_12
REMARK                            x       y       z     vdW  Elec       q    Type
REMARK                         _______ _______ _______ _____ _____    ______ ____
ROOT
ATOM      1  C   UNL     1      -1.469  -0.424  -0.038  0.00  0.00    +0.079 C 
ENDROOT
BRANCH   1   2
ATOM      2  N   UNL     1      -2.174   0.155   1.113  0.00  0.00    -0.296 NA
ATOM      3  C   UNL     1      -2.116   1.622   1.083  0.00  0.00    +0.085 C 
ATOM      4  C   UNL     1      -2.736   2.187   2.363  0.00  0.00    +0.019 C 
ATOM      5  C   UNL     1      -4.186   1.712   2.473  0.00  0.00    -0.005 C 
ATOM      6  C   UNL     1      -4.802   2.231   3.772  0.00  0.00    +0.004 C 
ATOM      7  C   UNL     1      -4.011   1.693   4.966  0.00  0.00    +0.000 C 
ATOM      8  C   UNL     1      -4.055   0.164   4.956  0.00  0.00    +0.000 C 
ATOM      9  C   UNL     1      -3.430  -0.354   3.659  0.00  0.00    +0.005 C 
ATOM     10  C   UNL     1      -4.216   0.182   2.465  0.00  0.00    +0.006 C 
ATOM     11  C   UNL     1      -3.562  -0.322   1.174  0.00  0.00    +0.088 C 
ENDBRANCH   1   2
BRANCH   1  12
ATOM     12  C   UNL     1      -1.539  -1.928   0.035  0.00  0.00    +0.006 A 
ATOM     13  C   UNL     1      -1.724  -2.822  -0.967  0.00  0.00    +0.028 A 
ATOM     14  C   UNL     1      -1.754  -4.171  -0.663  0.00  0.00    +0.025 A 
ATOM     15  C   UNL     1      -1.598  -4.558   0.627  0.00  0.00    +0.060 A 
ATOM     16  S   UNL     1      -1.393  -2.993   1.460  0.00  0.00    -0.099 S 
ATOM     17 BR   UNL     1      -2.010  -5.456  -2.027  0.00  0.00    -0.050 Br
ENDBRANCH   1  12
BRANCH   1  19
ATOM     18  C   UNL     1       0.733  -0.590  -1.208  0.00  0.00    -0.012 C 
ATOM     19  C   UNL     1      -0.005   0.020  -0.014  0.00  0.00    -0.056 C 
BRANCH  19  20
ATOM     20  N   UNL     1       0.625  -0.433   1.234  0.00  0.00    +0.381 N 
ATOM     21  H   UNL     1       1.590  -0.140   1.249  0.00  0.00    -0.090 HD
ATOM     22  H   UNL     1       0.138  -0.031   2.021  0.00  0.00    -0.090 HD
ATOM     23  H   UNL     1       0.577  -1.440   1.288  0.00  0.00    -0.090 HD
ENDBRANCH  19  20
ENDBRANCH   1  19
TORSDOF 4
