REMARK  Name = ZINC00597147
REMARK  10 active torsions:
REMARK  status: ('A' for Active; 'I' for Inactive)
REMARK    1  A    between atoms: C_1  and  C_2
REMARK    2  A    between atoms: C_2  and  O_3
REMARK    3  A    between atoms: O_3  and  C_4
REMARK    4  A    between atoms: C_6  and  C_25
REMARK    5  A    between atoms: C_8  and  C_23
REMARK    6  A    between atoms: C_9  and  C_22
REMARK    7  A    between atoms: C_11  and  C_12
REMARK    8  A    between atoms: C_12  and  S_13
REMARK    9  A    between atoms: S_13  and  C_16
REMARK   10  A    between atoms: C_30  and  C_31
REMARK                            x       y       z     vdW  Elec       q    Type
REMARK                         _______ _______ _______ _____ _____    ______ ____
ROOT
ATOM      1  C   UNL     1       0.776  -1.799  -1.335  0.00  0.00    +0.338 C 
ATOM      2  C   UNL     1       1.404  -2.307  -2.437  0.00  0.00    +0.072 C 
ATOM      3  C   UNL     1       1.535  -3.804  -2.655  0.00  0.00    +0.100 C 
ATOM      4  C   UNL     1       2.256  -4.227  -3.922  0.00  0.00    +0.062 C 
ATOM      5  C   UNL     1       2.717  -3.244  -4.744  0.00  0.00    +0.053 C 
ATOM      6  N   UNL     1       2.557  -1.955  -4.473  0.00  0.00    -0.254 NA
ATOM      7  C   UNL     1       1.948  -1.471  -3.417  0.00  0.00    +0.074 C 
ATOM      8  C   UNL     1       3.437  -3.635  -6.009  0.00  0.00    +0.066 C 
ATOM      9  O   UNL     1       0.261  -2.633  -0.408  0.00  0.00    -0.245 OA
ENDROOT
BRANCH   3  10
ATOM     10  C   UNL     1       2.275  -4.388  -1.480  0.00  0.00    -0.023 A 
ATOM     11  C   UNL     1       3.555  -3.956  -1.185  0.00  0.00    +0.005 A 
ATOM     12  C   UNL     1       4.234  -4.491  -0.106  0.00  0.00    +0.000 A 
ATOM     13  C   UNL     1       3.633  -5.459   0.678  0.00  0.00    +0.001 A 
ATOM     14  C   UNL     1       2.353  -5.890   0.383  0.00  0.00    +0.012 A 
ATOM     15  C   UNL     1       1.673  -5.351  -0.693  0.00  0.00    +0.059 A 
BRANCH  15  16
ATOM     16  C   UNL     1       0.276  -5.818  -1.011  0.00  0.00    +0.418 C 
ATOM     17  F   UNL     1      -0.115  -6.788  -0.081  0.00  0.00    -0.166 F 
ATOM     18  F   UNL     1      -0.604  -4.732  -0.948  0.00  0.00    -0.166 F 
ATOM     19  F   UNL     1       0.248  -6.367  -2.297  0.00  0.00    -0.166 F 
ENDBRANCH  15  16
ENDBRANCH   3  10
BRANCH   4  20
ATOM     20  C   UNL     1       2.445  -5.610  -4.241  0.00  0.00    +0.098 C 
ATOM     21  N   UNL     1       2.595  -6.708  -4.494  0.00  0.00    -0.191 NA
ENDBRANCH   4  20
BRANCH   1  22
ATOM     22  O   UNL     1       0.671  -0.465  -1.174  0.00  0.00    -0.462 OA
BRANCH  22  24
ATOM     23  C   UNL     1      -0.019   1.526   0.010  0.00  0.00    +0.048 C 
ATOM     24  C   UNL     1       0.002  -0.004   0.002  0.00  0.00    +0.229 C 
ENDBRANCH  22  24
ENDBRANCH   1  22
BRANCH   7  25
ATOM     25  C   UNL     1       1.839   0.023  -3.252  0.00  0.00    +0.227 C 
BRANCH  25  26
ATOM     26  S   UNL     1       2.627   0.847  -4.663  0.00  0.00    +0.003 S 
ATOM     27  O   UNL     1       4.031   0.630  -4.633  0.00  0.00    -0.169 OA
ATOM     28  O   UNL     1       1.882   0.607  -5.848  0.00  0.00    -0.169 OA
BRANCH  26  29
ATOM     29  C   UNL     1       2.431   2.569  -4.349  0.00  0.00    +0.091 A 
ATOM     30  C   UNL     1       1.312   3.251  -4.803  0.00  0.00    +0.046 A 
ATOM     31  C   UNL     1       1.193   4.602  -4.538  0.00  0.00    +0.112 A 
ATOM     32  N   UNL     1       2.127   5.242  -3.862  0.00  0.00    -0.263 NA
ATOM     33  C   UNL     1       3.204   4.626  -3.415  0.00  0.00    +0.112 A 
ATOM     34  C   UNL     1       3.389   3.274  -3.636  0.00  0.00    +0.046 A 
ENDBRANCH  26  29
ENDBRANCH  25  26
ENDBRANCH   7  25
TORSDOF 8
