REMARK  Name = ZINC56769866
REMARK  7 active torsions:
REMARK  status: ('A' for Active; 'I' for Inactive)
REMARK    1  A    between atoms: C_1  and  C_2
REMARK    2  A    between atoms: C_2  and  C_4
REMARK    3  A    between atoms: C_2  and  N_12
REMARK    4  A    between atoms: C_4  and  C_5
REMARK    5  A    between atoms: C_8  and  O_11
REMARK    6  A    between atoms: N_15  and  C_16
REMARK    7  A    between atoms: C_16  and  C_17
REMARK                            x       y       z     vdW  Elec       q    Type
REMARK                         _______ _______ _______ _____ _____    ______ ____
ROOT
ATOM      1  N   UNL     1       0.720  -0.429   1.206  0.00  0.00    -0.297 N 
ATOM      2  C   UNL     1       0.055  -0.600   2.366  0.00  0.00    +0.300 C 
ATOM      3  O   UNL     1      -1.132  -0.346   2.429  0.00  0.00    -0.253 OA
ATOM      4  N   UNL     1       0.707  -1.051   3.456  0.00  0.00    -0.295 N 
ATOM      5  H   UNL     1       1.667  -0.631   1.155  0.00  0.00    +0.151 HD
ATOM      6  H   UNL     1       1.654  -1.253   3.405  0.00  0.00    +0.151 HD
ENDROOT
BRANCH   1   8
ATOM      7  C   UNL     1      -0.033   1.591   0.051  0.00  0.00    +0.028 C 
ATOM      8  C   UNL     1       0.011   0.062   0.021  0.00  0.00    +0.076 C 
BRANCH   8   9
ATOM      9  C   UNL     1       0.743  -0.403  -1.240  0.00  0.00    +0.057 C 
BRANCH   9  10
ATOM     10  C   UNL     1       0.681  -1.905  -1.332  0.00  0.00    -0.045 A 
ATOM     11  C   UNL     1       1.670  -2.675  -0.747  0.00  0.00    +0.007 A 
ATOM     12  C   UNL     1       1.615  -4.052  -0.831  0.00  0.00    +0.045 A 
ATOM     13  C   UNL     1       0.566  -4.664  -1.501  0.00  0.00    +0.117 A 
ATOM     14  C   UNL     1      -0.425  -3.890  -2.087  0.00  0.00    +0.045 A 
ATOM     15  C   UNL     1      -0.369  -2.513  -1.996  0.00  0.00    +0.007 A 
BRANCH  13  16
ATOM     16  O   UNL     1       0.510  -6.019  -1.585  0.00  0.00    -0.507 OA
ATOM     17  H   UNL     1       0.029  -6.439  -0.859  0.00  0.00    +0.292 HD
ENDBRANCH  13  16
ENDBRANCH   9  10
ENDBRANCH   8   9
ENDBRANCH   1   8
BRANCH   4  18
ATOM     18  C   UNL     1      -0.015  -1.237   4.717  0.00  0.00    +0.142 C 
BRANCH  18  19
ATOM     19  C   UNL     1       0.935  -1.746   5.770  0.00  0.00    -0.014 A 
ATOM     20  C   UNL     1       1.124  -3.111   5.943  0.00  0.00    +0.010 A 
ATOM     21  C   UNL     1       2.005  -3.537   6.920  0.00  0.00    +0.042 A 
ATOM     22  C   UNL     1       2.668  -2.589   7.693  0.00  0.00    +0.099 A 
ATOM     23  N   UNL     1       2.460  -1.296   7.497  0.00  0.00    -0.349 N 
ATOM     24  C   UNL     1       1.630  -0.861   6.568  0.00  0.00    +0.089 A 
ATOM     25  N   UNL     1       3.555  -3.002   8.679  0.00  0.00    -0.317 N 
ATOM     26  C   UNL     1       4.364  -2.023   9.418  0.00  0.00    +0.106 C 
ATOM     27  C   UNL     1       4.148  -2.237  10.919  0.00  0.00    +0.019 C 
ATOM     28  C   UNL     1       4.452  -3.696  11.271  0.00  0.00    +0.003 C 
ATOM     29  C   UNL     1       3.495  -4.616  10.509  0.00  0.00    +0.019 C 
ATOM     30  C   UNL     1       3.699  -4.428   9.007  0.00  0.00    +0.106 C 
ATOM     31  H   UNL     1       2.933  -0.652   8.048  0.00  0.00    +0.167 HD
ENDBRANCH  18  19
ENDBRANCH   4  18
TORSDOF 6
