REMARK  Name = ZINC06669360
REMARK  8 active torsions:
REMARK  status: ('A' for Active; 'I' for Inactive)
REMARK    1  A    between atoms: C_1  and  C_2
REMARK    2  A    between atoms: C_6  and  C_27
REMARK    3  A    between atoms: C_10  and  C_26
REMARK    4  A    between atoms: C_15  and  C_16
REMARK    5  A    between atoms: C_16  and  C_17
REMARK    6  A    between atoms: C_27  and  C_28
REMARK    7  A    between atoms: C_27  and  C_29
REMARK    8  A    between atoms: C_27  and  C_30
REMARK                            x       y       z     vdW  Elec       q    Type
REMARK                         _______ _______ _______ _____ _____    ______ ____
ROOT
ATOM      1  C   UNL     1      -2.117  -0.488  -1.180  0.00  0.00    +0.045 C 
ATOM      2  C   UNL     1      -1.728   0.844  -1.768  0.00  0.00    -0.029 A 
ATOM      3  C   UNL     1      -2.412   1.372  -2.952  0.00  0.00    +0.022 A 
ATOM      4  C   UNL     1      -3.439   0.652  -3.564  0.00  0.00    +0.023 A 
ATOM      5  C   UNL     1      -4.061   1.178  -4.687  0.00  0.00    +0.025 A 
ATOM      6  C   UNL     1      -5.146   0.717  -5.565  0.00  0.00    +0.003 A 
ATOM      7  C   UNL     1      -5.305   1.668  -6.493  0.00  0.00    +0.200 A 
ATOM      8  O   UNL     1      -4.435   2.673  -6.285  0.00  0.00    -0.462 OA
ATOM      9  C   UNL     1      -3.662   2.426  -5.208  0.00  0.00    +0.141 A 
ATOM     10  C   UNL     1      -2.639   3.135  -4.595  0.00  0.00    +0.035 A 
ATOM     11  C   UNL     1      -2.012   2.620  -3.474  0.00  0.00    +0.146 A 
ATOM     12  O   UNL     1      -1.014   3.307  -2.873  0.00  0.00    -0.422 OA
ATOM     13  C   UNL     1      -0.389   2.830  -1.786  0.00  0.00    +0.341 A 
ATOM     14  O   UNL     1       0.503   3.486  -1.280  0.00  0.00    -0.245 OA
ATOM     15  C   UNL     1      -0.739   1.589  -1.213  0.00  0.00    +0.049 A 
ATOM     16  C   UNL     1      -2.211   4.469  -5.150  0.00  0.00    +0.051 C 
ENDROOT
BRANCH   6  17
ATOM     17  C   UNL     1      -5.922  -0.570  -5.445  0.00  0.00    -0.009 C 
ATOM     18  C   UNL     1      -6.958  -0.647  -6.569  0.00  0.00    +0.015 C 
ATOM     19  C   UNL     1      -4.962  -1.756  -5.554  0.00  0.00    +0.015 C 
ATOM     20  C   UNL     1      -6.634  -0.611  -4.092  0.00  0.00    +0.015 C 
ENDBRANCH   6  17
BRANCH  15  21
ATOM     21  C   UNL     1      -0.011   1.088   0.008  0.00  0.00    +0.138 C 
BRANCH  21  22
ATOM     22  C   UNL     1      -0.717   1.573   1.248  0.00  0.00    +0.223 C 
ATOM     23  O   UNL     1      -1.714   2.257   1.150  0.00  0.00    -0.275 OA
ATOM     24  N   UNL     1      -0.242   1.246   2.466  0.00  0.00    -0.270 N 
ATOM     25  C   UNL     1      -0.831   1.780   3.611  0.00  0.00    +0.125 A 
ATOM     26  C   UNL     1      -0.271   1.524   4.857  0.00  0.00    +0.044 A 
ATOM     27  C   UNL     1      -0.866   2.060   5.985  0.00  0.00    +0.005 A 
ATOM     28  C   UNL     1      -2.006   2.837   5.827  0.00  0.00    +0.020 A 
ATOM     29  C   UNL     1      -2.508   3.050   4.559  0.00  0.00    +0.113 A 
ATOM     30  N   UNL     1      -1.915   2.531   3.501  0.00  0.00    -0.240 NA
ATOM     31  H   UNL     1       0.511   0.639   2.546  0.00  0.00    +0.156 HD
ENDBRANCH  21  22
ENDBRANCH  15  21
TORSDOF 3
