REMARK  Name = ZINC44864916
REMARK  5 active torsions:
REMARK  status: ('A' for Active; 'I' for Inactive)
REMARK    1  A    between atoms: C_1  and  C_2
REMARK    2  A    between atoms: C_2  and  C_3
REMARK    3  A    between atoms: C_3  and  C_5
REMARK    4  A    between atoms: C_3  and  C_9
REMARK    5  A    between atoms: N_6  and  O_7
REMARK                            x       y       z     vdW  Elec       q    Type
REMARK                         _______ _______ _______ _____ _____    ______ ____
ROOT
ATOM      1  C   UNL     1      -1.496  -1.948   0.100  0.00  0.00    +0.230 C 
ATOM      2  O   UNL     1      -1.655  -0.751  -0.015  0.00  0.00    -0.274 OA
ATOM      3  N   UNL     1      -0.869  -2.444   1.185  0.00  0.00    -0.271 N 
ATOM      4  C   UNL     1      -0.600  -3.884   1.300  0.00  0.00    +0.114 C 
ATOM      5  C   UNL     1      -0.972  -4.317   2.724  0.00  0.00    +0.024 C 
ATOM      6  C   UNL     1      -0.062  -3.591   3.714  0.00  0.00    +0.038 C 
ATOM      7  C   UNL     1      -0.072  -2.108   3.450  0.00  0.00    -0.026 A 
ATOM      8  C   UNL     1      -0.458  -1.593   2.221  0.00  0.00    +0.039 A 
ATOM      9  C   UNL     1      -0.446  -0.220   2.005  0.00  0.00    +0.024 A 
ATOM     10  C   UNL     1      -0.047   0.634   3.013  0.00  0.00    +0.002 A 
ATOM     11  C   UNL     1       0.340   0.122   4.238  0.00  0.00    +0.000 A 
ATOM     12  C   UNL     1       0.320  -1.245   4.459  0.00  0.00    +0.005 A 
ENDROOT
BRANCH   1  13
ATOM     13  C   UNL     1      -1.998  -2.881  -0.972  0.00  0.00    +0.141 C 
BRANCH  13  14
ATOM     14  C   UNL     1      -2.096  -2.138  -2.280  0.00  0.00    +0.144 C 
ATOM     15  N   UNL     1      -3.219  -1.613  -2.642  0.00  0.00    -0.076 NA
ATOM     16  N   UNL     1      -0.987  -2.019  -3.088  0.00  0.00    -0.343 N 
ATOM     17  H   UNL     1      -0.144  -2.413  -2.816  0.00  0.00    +0.144 HD
ATOM     18  H   UNL     1      -1.050  -1.541  -3.930  0.00  0.00    +0.144 HD
BRANCH  15  19
ATOM     19  O   UNL     1      -3.311  -0.915  -3.871  0.00  0.00    -0.408 OA
ATOM     20  H   UNL     1      -4.190  -0.558  -4.056  0.00  0.00    +0.328 HD
ENDBRANCH  15  19
ENDBRANCH  13  14
BRANCH  13  22
ATOM     21  C   UNL     1      -3.825  -4.470  -1.591  0.00  0.00    +0.005 C 
ATOM     22  C   UNL     1      -3.380  -3.409  -0.582  0.00  0.00    +0.017 C 
ENDBRANCH  13  22
ENDBRANCH   1  13
TORSDOF 4
