REMARK  Name = ZINC09616581
REMARK  10 active torsions:
REMARK  status: ('A' for Active; 'I' for Inactive)
REMARK    1  A    between atoms: C_1  and  C_2
REMARK    2  A    between atoms: C_7  and  N_8
REMARK    3  A    between atoms: C_9  and  C_11
REMARK    4  A    between atoms: C_11  and  N_12
REMARK    5  A    between atoms: N_21  and  C_24
REMARK    6  A    between atoms: C_24  and  C_25
REMARK    7  A    between atoms: C_25  and  C_26
REMARK    8  A    between atoms: C_26  and  C_27
REMARK    9  A    between atoms: N_29  and  C_30
REMARK   10  A    between atoms: C_30  and  C_31
REMARK                            x       y       z     vdW  Elec       q    Type
REMARK                         _______ _______ _______ _____ _____    ______ ____
ROOT
ATOM      1  N   UNL     1       1.599   7.817  -1.215  0.00  0.00    -0.284 N 
ATOM      2  C   UNL     1       1.467   8.576  -0.061  0.00  0.00    +0.059 A 
ATOM      3  C   UNL     1       1.206   9.937  -0.113  0.00  0.00    +0.027 A 
ATOM      4  C   UNL     1       1.081  10.656   1.059  0.00  0.00    +0.002 A 
ATOM      5  C   UNL     1       1.216  10.031   2.289  0.00  0.00    +0.001 A 
ATOM      6  C   UNL     1       1.476   8.678   2.361  0.00  0.00    +0.015 A 
ATOM      7  C   UNL     1       1.603   7.941   1.185  0.00  0.00    +0.063 A 
ATOM      8  C   UNL     1       1.882   6.494   1.204  0.00  0.00    +0.264 A 
ATOM      9  O   UNL     1       2.008   5.897   2.256  0.00  0.00    -0.267 OA
ATOM     10  N   UNL     1       1.992   5.848   0.023  0.00  0.00    -0.260 N 
ATOM     11  C   UNL     1       1.858   6.500  -1.142  0.00  0.00    +0.333 A 
ATOM     12  O   UNL     1       1.972   5.871  -2.177  0.00  0.00    -0.246 OA
ENDROOT
BRANCH   1  13
ATOM     13  C   UNL     1       1.461   8.458  -2.525  0.00  0.00    +0.222 C 
BRANCH  13  15
ATOM     14  N   UNL     1       2.925   9.572  -4.178  0.00  0.00    -0.284 N 
ATOM     15  C   UNL     1       2.808   8.946  -2.990  0.00  0.00    +0.237 C 
ATOM     16  O   UNL     1       3.788   8.775  -2.296  0.00  0.00    -0.274 OA
ATOM     17  H   UNL     1       2.159   9.638  -4.769  0.00  0.00    +0.155 HD
BRANCH  14  24
ATOM     18  C   UNL     1       3.445   9.904  -6.956  0.00  0.00    +0.045 C 
ATOM     19  C   UNL     1       4.446  10.307  -5.904  0.00  0.00    -0.029 A 
ATOM     20  C   UNL     1       5.658  10.854  -6.278  0.00  0.00    +0.006 A 
ATOM     21  C   UNL     1       6.578  11.224  -5.314  0.00  0.00    +0.020 A 
ATOM     22  C   UNL     1       6.288  11.046  -3.973  0.00  0.00    +0.043 A 
ATOM     23  C   UNL     1       5.075  10.504  -3.593  0.00  0.00    +0.043 A 
ATOM     24  C   UNL     1       4.152  10.127  -4.559  0.00  0.00    +0.038 A 
ATOM     25 CL   UNL     1       7.446  11.511  -2.766  0.00  0.00    -0.083 Cl
ENDBRANCH  14  24
ENDBRANCH  13  15
ENDBRANCH   1  13
BRANCH  10  26
ATOM     26  C   UNL     1       2.269   4.410   0.014  0.00  0.00    +0.130 C 
BRANCH  26  27
ATOM     27  C   UNL     1       0.949   3.636   0.028  0.00  0.00    +0.031 C 
BRANCH  27  28
ATOM     28  C   UNL     1       1.238   2.134   0.019  0.00  0.00    +0.097 C 
BRANCH  28  29
ATOM     29  C   UNL     1      -0.063   1.372   0.032  0.00  0.00    +0.213 C 
ATOM     30  O   UNL     1      -1.117   1.972   0.043  0.00  0.00    -0.276 OA
ATOM     31  N   UNL     1      -0.054   0.024   0.027  0.00  0.00    -0.308 N 
ATOM     32  H   UNL     1       0.789  -0.456   0.014  0.00  0.00    +0.149 HD
BRANCH  31  33
ATOM     33  C   UNL     1      -1.318  -0.716   0.040  0.00  0.00    +0.178 C 
BRANCH  33  34
ATOM     34  C   UNL     1      -1.034  -2.196   0.031  0.00  0.00    +0.122 A 
ATOM     35  C   UNL     1      -0.871  -2.973   1.117  0.00  0.00    +0.046 A 
ATOM     36  C   UNL     1      -0.624  -4.284   0.650  0.00  0.00    +0.041 A 
ATOM     37  C   UNL     1      -0.651  -4.230  -0.694  0.00  0.00    +0.195 A 
ATOM     38  O   UNL     1      -0.905  -2.964  -1.063  0.00  0.00    -0.466 OA
ENDBRANCH  33  34
ENDBRANCH  31  33
ENDBRANCH  28  29
ENDBRANCH  27  28
ENDBRANCH  26  27
ENDBRANCH  10  26
TORSDOF 9
