REMARK  Name = ZINC31044061
REMARK  11 active torsions:
REMARK  status: ('A' for Active; 'I' for Inactive)
REMARK    1  A    between atoms: C_1  and  C_2
REMARK    2  A    between atoms: C_5  and  C_9
REMARK    3  A    between atoms: C_6  and  C_8
REMARK    4  A    between atoms: C_9  and  C_11
REMARK    5  A    between atoms: C_9  and  N_14
REMARK    6  A    between atoms: C_11  and  C_12
REMARK    7  A    between atoms: C_11  and  C_13
REMARK    8  A    between atoms: C_15  and  C_17
REMARK    9  A    between atoms: N_22  and  C_24
REMARK   10  A    between atoms: C_24  and  C_25
REMARK   11  A    between atoms: C_27  and  C_30
REMARK                            x       y       z     vdW  Elec       q    Type
REMARK                         _______ _______ _______ _____ _____    ______ ____
ROOT
ATOM      1  C   UNL     1      -6.270   1.982   5.809  0.00  0.00    +0.058 C 
ATOM      2  C   UNL     1      -7.074   3.013   5.011  0.00  0.00    +0.009 C 
ATOM      3  C   UNL     1      -8.552   2.613   5.018  0.00  0.00    -0.018 C 
ATOM      4  C   UNL     1      -9.042   2.512   6.464  0.00  0.00    -0.078 C 
ATOM      5  N   UNL     1      -8.242   1.513   7.185  0.00  0.00    +0.386 N 
ATOM      6  C   UNL     1      -6.827   1.900   7.233  0.00  0.00    -0.065 C 
ATOM      7  H   UNL     1      -8.312   0.565   6.631  0.00  0.00    -0.081 HD
ENDROOT
BRANCH   1   9
ATOM      8  N   UNL     1      -4.124   2.543   4.715  0.00  0.00    -0.308 N 
ATOM      9  C   UNL     1      -4.823   2.401   5.858  0.00  0.00    +0.215 C 
ATOM     10  O   UNL     1      -4.288   2.609   6.926  0.00  0.00    -0.276 OA
ATOM     11  H   UNL     1      -4.610   2.355   3.746  0.00  0.00    +0.149 HD
BRANCH   8  12
ATOM     12  C   UNL     1      -2.717   2.950   4.762  0.00  0.00    +0.106 C 
BRANCH  12  17
ATOM     13  C   UNL     1      -0.013   1.086   0.008  0.00  0.00    +0.044 C 
ATOM     14  C   UNL     1      -0.718   1.572   1.248  0.00  0.00    -0.050 A 
ATOM     15  C   UNL     1      -2.083   1.789   1.226  0.00  0.00    +0.004 A 
ATOM     16  C   UNL     1      -2.731   2.230   2.365  0.00  0.00    +0.006 A 
ATOM     17  C   UNL     1      -2.012   2.464   3.522  0.00  0.00    -0.024 A 
ATOM     18  C   UNL     1      -0.646   2.252   3.542  0.00  0.00    -0.045 A 
ATOM     19  C   UNL     1       0.001   1.806   2.405  0.00  0.00    +0.007 A 
ATOM     20  C   UNL     1       0.137   2.507   4.804  0.00  0.00    +0.044 C 
ENDBRANCH  12  17
BRANCH  12  21
ATOM     21  C   UNL     1      -2.630   4.476   4.834  0.00  0.00    +0.008 C 
ATOM     22  C   UNL     1      -3.346   4.969   6.093  0.00  0.00    +0.009 C 
ATOM     23  C   UNL     1      -1.161   4.900   4.884  0.00  0.00    +0.009 C 
ENDBRANCH  12  21
ENDBRANCH   8  12
ENDBRANCH   1   9
BRANCH   5  24
ATOM     24  C   UNL     1      -8.773   1.290   8.536  0.00  0.00    +0.022 C 
BRANCH  24  25
ATOM     25  C   UNL     1     -10.138   0.657   8.441  0.00  0.00    +0.211 A 
ATOM     26  N   UNL     1     -10.399  -0.626   8.403  0.00  0.00    -0.193 NA
ATOM     27  C   UNL     1     -11.746  -0.720   8.322  0.00  0.00    +0.202 A 
ATOM     28  N   UNL     1     -12.217   0.500   8.307  0.00  0.00    -0.056 NA
ATOM     29  O   UNL     1     -11.308   1.299   8.375  0.00  0.00    -0.340 OA
BRANCH  27  30
ATOM     30  C   UNL     1     -12.539  -1.972   8.257  0.00  0.00    +0.023 A 
ATOM     31  C   UNL     1     -11.897  -3.209   8.277  0.00  0.00    +0.013 A 
ATOM     32  C   UNL     1     -12.639  -4.370   8.222  0.00  0.00    +0.016 A 
ATOM     33  C   UNL     1     -14.019  -4.309   8.135  0.00  0.00    +0.018 A 
ATOM     34  C   UNL     1     -14.662  -3.083   8.109  0.00  0.00    +0.016 A 
ATOM     35  C   UNL     1     -13.929  -1.916   8.169  0.00  0.00    +0.013 A 
ATOM     36 BR   UNL     1     -15.030  -5.905   8.052  0.00  0.00    -0.050 Br
ENDBRANCH  27  30
ENDBRANCH  24  25
ENDBRANCH   5  24
TORSDOF 7
