REMARK  Name = ZINC11970459
REMARK  6 active torsions:
REMARK  status: ('A' for Active; 'I' for Inactive)
REMARK    1  A    between atoms: C_2  and  C_3
REMARK    2  A    between atoms: C_3  and  N_4
REMARK    3  A    between atoms: C_13  and  S_14
REMARK    4  A    between atoms: S_14  and  C_15
REMARK    5  A    between atoms: C_15  and  C_16
REMARK    6  A    between atoms: N_18  and  C_19
REMARK                            x       y       z     vdW  Elec       q    Type
REMARK                         _______ _______ _______ _____ _____    ______ ____
ROOT
ATOM      1  N   UNL     1      -0.091   1.206   4.053  0.00  0.00    -0.283 N 
ATOM      2  C   UNL     1       0.678   0.686   5.027  0.00  0.00    +0.263 A 
ATOM      3  O   UNL     1       0.407   0.882   6.199  0.00  0.00    -0.267 OA
ATOM      4  C   UNL     1       1.821  -0.097   4.667  0.00  0.00    +0.076 A 
ATOM      5  C   UNL     1       2.788  -0.749   5.551  0.00  0.00    -0.023 A 
ATOM      6  C   UNL     1       3.788  -1.436   4.964  0.00  0.00    -0.004 A 
ATOM      7  S   UNL     1       3.507  -1.260   3.223  0.00  0.00    -0.073 S 
ATOM      8  C   UNL     1       2.041  -0.261   3.289  0.00  0.00    +0.117 A 
ATOM      9  N   UNL     1       1.240   0.276   2.377  0.00  0.00    -0.216 NA
ATOM     10  C   UNL     1       0.194   0.993   2.735  0.00  0.00    +0.173 A 
ATOM     11  C   UNL     1       4.895  -2.185   5.641  0.00  0.00    +0.043 C 
ATOM     12  C   UNL     1       4.944  -1.752   7.113  0.00  0.00    +0.005 C 
ATOM     13  C   UNL     1       3.523  -1.791   7.684  0.00  0.00    +0.005 C 
ATOM     14  C   UNL     1       2.687  -0.666   7.072  0.00  0.00    +0.037 C 
ENDROOT
BRANCH   1  15
ATOM     15  C   UNL     1      -1.260   2.013   4.414  0.00  0.00    +0.154 C 
BRANCH  15  17
ATOM     16  C   UNL     1      -3.160   1.125   5.663  0.00  0.00    +0.005 C 
ATOM     17  C   UNL     1      -2.464   1.118   4.553  0.00  0.00    -0.013 C 
ENDBRANCH  15  17
ENDBRANCH   1  15
BRANCH  10  18
ATOM     18  S   UNL     1      -0.848   1.690   1.497  0.00  0.00    -0.078 S 
BRANCH  18  19
ATOM     19  C   UNL     1      -0.003   1.101   0.008  0.00  0.00    +0.173 C 
BRANCH  19  20
ATOM     20  C   UNL     1      -0.738   1.590  -1.213  0.00  0.00    +0.228 C 
ATOM     21  O   UNL     1      -1.735   2.271  -1.089  0.00  0.00    -0.275 OA
ATOM     22  N   UNL     1      -0.288   1.272  -2.443  0.00  0.00    -0.284 N 
ATOM     23  H   UNL     1       0.544   0.784  -2.544  0.00  0.00    +0.155 HD
BRANCH  22  24
ATOM     24  C   UNL     1      -1.023   1.647  -3.576  0.00  0.00    +0.056 A 
ATOM     25  C   UNL     1      -1.723   2.846  -3.585  0.00  0.00    +0.074 A 
ATOM     26  C   UNL     1      -2.448   3.216  -4.705  0.00  0.00    +0.168 A 
ATOM     27  C   UNL     1      -2.474   2.384  -5.822  0.00  0.00    +0.168 A 
ATOM     28  C   UNL     1      -1.774   1.188  -5.810  0.00  0.00    +0.071 A 
ATOM     29  C   UNL     1      -1.045   0.822  -4.694  0.00  0.00    +0.066 A 
ATOM     30 CL   UNL     1      -0.163  -0.673  -4.685  0.00  0.00    -0.082 Cl
ATOM     31  O   UNL     1      -3.251   2.967  -6.782  0.00  0.00    -0.453 OA
ATOM     32  C   UNL     1      -4.029   3.964  -6.094  0.00  0.00    +0.466 C 
ATOM     33  O   UNL     1      -3.208   4.319  -4.966  0.00  0.00    -0.453 OA
ENDBRANCH  22  24
ENDBRANCH  19  20
ENDBRANCH  18  19
ENDBRANCH  10  18
TORSDOF 6
