REMARK  Name = ZINC08453491
REMARK  4 active torsions:
REMARK  status: ('A' for Active; 'I' for Inactive)
REMARK    1  A    between atoms: C_4  and  C_7
REMARK    2  A    between atoms: C_13  and  C_14
REMARK    3  A    between atoms: N_16  and  C_23
REMARK    4  A    between atoms: C_23  and  C_24
REMARK                            x       y       z     vdW  Elec       q    Type
REMARK                         _______ _______ _______ _____ _____    ______ ____
ROOT
ATOM      1  C   UNL     1      -3.537   9.966  -1.042  0.00  0.00    +0.001 A 
ATOM      2  C   UNL     1      -4.269   8.833  -0.738  0.00  0.00    +0.095 A 
ATOM      3  N   UNL     1      -5.481   8.909  -1.321  0.00  0.00    -0.342 N 
ATOM      4  C   UNL     1      -5.608  10.085  -2.033  0.00  0.00    +0.050 A 
ATOM      5  C   UNL     1      -4.410  10.802  -1.890  0.00  0.00    +0.007 A 
ATOM      6  C   UNL     1      -4.259  12.041  -2.505  0.00  0.00    +0.010 A 
ATOM      7  C   UNL     1      -5.294  12.563  -3.252  0.00  0.00    +0.001 A 
ATOM      8  C   UNL     1      -6.480  11.858  -3.391  0.00  0.00    +0.002 A 
ATOM      9  C   UNL     1      -6.639  10.626  -2.794  0.00  0.00    +0.026 A 
ENDROOT
BRANCH   1  16
ATOM     10  C   UNL     1      -2.229   6.804   4.196  0.00  0.00    +0.130 C 
ATOM     11  N   UNL     1      -2.857   7.562   3.330  0.00  0.00    -0.164 NA
ATOM     12  N   UNL     1      -2.175   8.489   2.570  0.00  0.00    -0.152 N 
ATOM     13  C   UNL     1      -2.762   9.405   1.672  0.00  0.00    +0.153 C 
ATOM     14  N   UNL     1      -4.021   9.755   1.725  0.00  0.00    -0.283 NA
ATOM     15  C   UNL     1      -1.812   9.935   0.657  0.00  0.00    +0.081 C 
ATOM     16  C   UNL     1      -2.221  10.265  -0.622  0.00  0.00    +0.026 C 
ATOM     17  C   UNL     1      -0.403  10.089   1.089  0.00  0.00    +0.273 C 
ATOM     18  O   UNL     1       0.329  10.914   0.566  0.00  0.00    -0.268 OA
ATOM     19  N   UNL     1       0.045   9.291   2.079  0.00  0.00    -0.152 NA
ATOM     20  C   UNL     1      -0.805   8.530   2.722  0.00  0.00    +0.181 C 
ATOM     21  S   UNL     1      -0.531   7.323   3.991  0.00  0.00    -0.033 S 
ATOM     22  H   UNL     1      -4.582   9.439   2.451  0.00  0.00    +0.188 HD
BRANCH  10  26
ATOM     23  C   UNL     1      -3.820   3.855   6.807  0.00  0.00    +0.000 A 
ATOM     24  C   UNL     1      -4.673   4.623   6.035  0.00  0.00    +0.001 A 
ATOM     25  C   UNL     1      -4.162   5.587   5.189  0.00  0.00    +0.010 A 
ATOM     26  C   UNL     1      -2.783   5.777   5.106  0.00  0.00    +0.009 A 
ATOM     27  C   UNL     1      -1.928   4.996   5.883  0.00  0.00    +0.010 A 
ATOM     28  C   UNL     1      -2.451   4.040   6.729  0.00  0.00    +0.001 A 
ENDBRANCH  10  26
ENDBRANCH   1  16
BRANCH   3  29
ATOM     29  C   UNL     1      -6.522   7.884  -1.213  0.00  0.00    +0.157 C 
BRANCH  29  30
ATOM     30  C   UNL     1      -6.481   6.996  -2.430  0.00  0.00    -0.020 A 
ATOM     31  C   UNL     1      -7.316   7.233  -3.479  0.00  0.00    +0.006 A 
ATOM     32  C   UNL     1      -7.291   6.424  -4.612  0.00  0.00    +0.001 A 
ATOM     33  C   UNL     1      -6.432   5.372  -4.705  0.00  0.00    +0.008 A 
ATOM     34  C   UNL     1      -5.555   5.096  -3.642  0.00  0.00    -0.018 A 
ATOM     35  C   UNL     1      -5.576   5.923  -2.491  0.00  0.00    -0.013 A 
ATOM     36  C   UNL     1      -4.694   5.650  -1.431  0.00  0.00    +0.009 A 
ATOM     37  C   UNL     1      -3.831   4.602  -1.525  0.00  0.00    +0.001 A 
ATOM     38  C   UNL     1      -3.807   3.792  -2.659  0.00  0.00    +0.001 A 
ATOM     39  C   UNL     1      -4.653   4.019  -3.701  0.00  0.00    +0.008 A 
ENDBRANCH  29  30
ENDBRANCH   3  29
TORSDOF 4
