REMARK  Name = ZINC23445203
REMARK  11 active torsions:
REMARK  status: ('A' for Active; 'I' for Inactive)
REMARK    1  A    between atoms: C_1  and  C_2
REMARK    2  A    between atoms: C_2  and  N_3
REMARK    3  A    between atoms: N_3  and  C_4
REMARK    4  A    between atoms: C_4  and  C_5
REMARK    5  A    between atoms: C_6  and  O_8
REMARK    6  A    between atoms: O_8  and  C_9
REMARK    7  A    between atoms: C_14  and  N_15
REMARK    8  A    between atoms: C_16  and  C_18
REMARK    9  A    between atoms: N_24  and  C_25
REMARK   10  A    between atoms: C_25  and  C_26
REMARK   11  A    between atoms: C_30  and  C_32
REMARK                            x       y       z     vdW  Elec       q    Type
REMARK                         _______ _______ _______ _____ _____    ______ ____
ROOT
ATOM      1  C   UNL     1      -3.093   6.717  -3.933  0.00  0.00    +0.155 A 
ATOM      2  C   UNL     1      -3.157   6.342  -2.595  0.00  0.00    +0.050 A 
ATOM      3  C   UNL     1      -2.077   5.750  -1.978  0.00  0.00    +0.030 A 
ATOM      4  C   UNL     1      -0.904   5.521  -2.692  0.00  0.00    +0.051 A 
ATOM      5  C   UNL     1      -0.831   5.897  -4.044  0.00  0.00    +0.025 A 
ATOM      6  C   UNL     1      -1.935   6.498  -4.663  0.00  0.00    +0.086 A 
ATOM      7  C   UNL     1       0.512   5.526  -4.497  0.00  0.00    +0.029 A 
ATOM      8  C   UNL     1       1.144   4.980  -3.446  0.00  0.00    +0.087 A 
ATOM      9  N   UNL     1       0.312   4.963  -2.359  0.00  0.00    -0.342 N 
ENDROOT
BRANCH   6  10
ATOM     10  N   UNL     1      -1.868   6.876  -6.010  0.00  0.00    -0.279 N 
ATOM     11  C   UNL     1      -2.944   6.722  -6.807  0.00  0.00    +0.269 C 
ATOM     12  O   UNL     1      -3.963   6.237  -6.362  0.00  0.00    -0.271 OA
ATOM     13  H   UNL     1      -0.938   7.299  -6.417  0.00  0.00    +0.155 HD
BRANCH  11  14
ATOM     14  C   UNL     1      -2.881   7.152  -8.249  0.00  0.00    +0.267 C 
ATOM     15 CL   UNL     1      -4.464   6.819  -9.046  0.00  0.00    -0.074 Cl
ATOM     16 CL   UNL     1      -2.525   8.918  -8.335  0.00  0.00    -0.074 Cl
ATOM     17 CL   UNL     1      -1.578   6.235  -9.094  0.00  0.00    -0.074 Cl
ENDBRANCH  11  14
ENDBRANCH   6  10
BRANCH   1  18
ATOM     18  O   UNL     1      -4.169   7.300  -4.526  0.00  0.00    -0.409 OA
BRANCH  18  20
ATOM     19  N   UNL     1      -5.218   9.287  -5.158  0.00  0.00    -0.268 N 
ATOM     20  C   UNL     1      -4.202   8.646  -4.546  0.00  0.00    +0.408 C 
ATOM     21  O   UNL     1      -3.315   9.283  -4.012  0.00  0.00    -0.226 OA
BRANCH  19  23
ATOM     22  C   UNL     1      -7.403   8.251  -4.789  0.00  0.00    +0.024 C 
ATOM     23  C   UNL     1      -6.287   8.519  -5.801  0.00  0.00    +0.108 C 
ENDBRANCH  19  23
BRANCH  19  24
ATOM     24  C   UNL     1      -5.253  10.751  -5.179  0.00  0.00    +0.108 C 
ATOM     25  C   UNL     1      -4.521  11.261  -6.422  0.00  0.00    +0.024 C 
ENDBRANCH  19  24
ENDBRANCH  18  20
ENDBRANCH   1  18
BRANCH   9  26
ATOM     26  C   UNL     1       0.663   4.436  -1.038  0.00  0.00    +0.157 C 
BRANCH  26  27
ATOM     27  C   UNL     1       0.190   3.010  -0.923  0.00  0.00    -0.028 A 
ATOM     28  C   UNL     1       1.022   1.973  -1.302  0.00  0.00    +0.005 A 
ATOM     29  C   UNL     1       0.588   0.665  -1.197  0.00  0.00    +0.001 A 
ATOM     30  C   UNL     1      -0.678   0.394  -0.712  0.00  0.00    +0.003 A 
ATOM     31  C   UNL     1      -1.512   1.431  -0.337  0.00  0.00    -0.050 A 
ATOM     32  C   UNL     1      -1.076   2.739  -0.439  0.00  0.00    +0.008 A 
ATOM     33  C   UNL     1      -2.894   1.135   0.185  0.00  0.00    +0.044 C 
ENDBRANCH  26  27
ENDBRANCH   9  26
TORSDOF 8
