REMARK  Name = ZINC34830391
REMARK  6 active torsions:
REMARK  status: ('A' for Active; 'I' for Inactive)
REMARK    1  A    between atoms: C_1  and  C_2
REMARK    2  A    between atoms: C_7  and  C_8
REMARK    3  A    between atoms: N_17  and  C_18
REMARK    4  A    between atoms: C_18  and  C_20
REMARK    5  A    between atoms: C_18  and  C_21
REMARK    6  A    between atoms: C_30  and  C_32
REMARK                            x       y       z     vdW  Elec       q    Type
REMARK                         _______ _______ _______ _____ _____    ______ ____
ROOT
ATOM      1  C   UNL     1       1.979  -1.802   3.797  0.00  0.00    +0.018 C 
ATOM      2  C   UNL     1       2.333  -3.081   4.559  0.00  0.00    -0.004 C 
ENDROOT
BRANCH   1   3
ATOM      3  C   UNL     1       1.933  -2.094   2.319  0.00  0.00    +0.202 C 
ATOM      4  O   UNL     1       0.875  -2.347   1.783  0.00  0.00    -0.277 OA
ATOM      5  N   UNL     1       3.068  -2.075   1.593  0.00  0.00    -0.301 N 
ATOM      6  C   UNL     1       3.049  -2.231   0.180  0.00  0.00    +0.109 C 
ATOM      7  C   UNL     1       3.011  -3.716  -0.310  0.00  0.00    +0.038 C 
ATOM      8  C   UNL     1       3.923  -4.546   0.651  0.00  0.00    +0.109 C 
ATOM      9  N   UNL     1       5.103  -3.875   1.074  0.00  0.00    -0.300 N 
ATOM     10  C   UNL     1       5.052  -3.182   2.387  0.00  0.00    +0.126 C 
ATOM     11  C   UNL     1       4.395  -1.883   2.233  0.00  0.00    +0.126 C 
ATOM     12  C   UNL     1       6.218  -3.869   0.318  0.00  0.00    +0.219 C 
ATOM     13  O   UNL     1       6.194  -4.335  -0.802  0.00  0.00    -0.275 OA
BRANCH  12  14
ATOM     14  C   UNL     1       7.496  -3.285   0.863  0.00  0.00    +0.075 C 
ATOM     15  C   UNL     1       7.329  -1.775   1.046  0.00  0.00    +0.013 C 
ATOM     16  C   UNL     1       8.626  -1.182   1.600  0.00  0.00    +0.001 C 
ATOM     17  C   UNL     1       9.770  -1.454   0.621  0.00  0.00    +0.000 C 
ATOM     18  C   UNL     1       9.937  -2.964   0.438  0.00  0.00    +0.001 C 
ATOM     19  C   UNL     1       8.640  -3.557  -0.116  0.00  0.00    +0.013 C 
ENDBRANCH  12  14
ENDBRANCH   1   3
BRANCH   1  28
ATOM     20  C   UNL     1       0.773  -0.828   5.621  0.00  0.00    -0.005 C 
ATOM     21  C   UNL     1      -0.613  -0.421   6.109  0.00  0.00    -0.047 A 
ATOM     22  C   UNL     1      -0.841   0.426   7.191  0.00  0.00    +0.010 A 
ATOM     23  C   UNL     1      -2.108   0.736   7.553  0.00  0.00    +0.045 A 
ATOM     24  S   UNL     1      -3.068  -0.177   6.353  0.00  0.00    -0.101 S 
ATOM     25  C   UNL     1      -1.717  -0.899   5.468  0.00  0.00    -0.010 A 
ATOM     26  C   UNL     1      -1.730  -1.821   4.292  0.00  0.00    +0.024 C 
ATOM     27  C   UNL     1      -0.315  -2.406   4.147  0.00  0.00    -0.071 C 
ATOM     28  N   UNL     1       0.666  -1.315   4.241  0.00  0.00    +0.395 N 
ATOM     29  H   UNL     1       0.375  -0.557   3.643  0.00  0.00    -0.079 HD
BRANCH  20  36
ATOM     30  C   UNL     1       2.247  -0.233   8.034  0.00  0.00    +0.044 C 
ATOM     31  C   UNL     1       2.400   0.648   6.821  0.00  0.00    -0.049 A 
ATOM     32  C   UNL     1       3.250   1.737   6.861  0.00  0.00    +0.003 A 
ATOM     33  C   UNL     1       3.391   2.545   5.748  0.00  0.00    +0.000 A 
ATOM     34  C   UNL     1       2.682   2.263   4.595  0.00  0.00    +0.000 A 
ATOM     35  C   UNL     1       1.833   1.174   4.555  0.00  0.00    +0.002 A 
ATOM     36  C   UNL     1       1.695   0.363   5.666  0.00  0.00    -0.054 A 
ENDBRANCH  20  36
ENDBRANCH   1  28
TORSDOF 4
