REMARK  Name = ZINC38907187
REMARK  5 active torsions:
REMARK  status: ('A' for Active; 'I' for Inactive)
REMARK    1  A    between atoms: N_10  and  C_13
REMARK    2  A    between atoms: C_13  and  C_14
REMARK    3  A    between atoms: C_17  and  N_20
REMARK    4  A    between atoms: N_20  and  S_21
REMARK    5  A    between atoms: S_21  and  C_24
REMARK                            x       y       z     vdW  Elec       q    Type
REMARK                         _______ _______ _______ _____ _____    ______ ____
ROOT
ATOM      1  C   UNL     1       0.108  -6.738  -1.565  0.00  0.00    -0.033 A 
ATOM      2  C   UNL     1       0.432  -7.787  -0.724  0.00  0.00    +0.007 A 
ATOM      3  C   UNL     1      -0.540  -8.686  -0.332  0.00  0.00    +0.027 A 
ATOM      4  C   UNL     1      -1.845  -8.536  -0.783  0.00  0.00    +0.074 A 
ATOM      5  C   UNL     1      -2.168  -7.481  -1.628  0.00  0.00    +0.027 A 
ATOM      6  C   UNL     1      -1.192  -6.582  -2.011  0.00  0.00    +0.007 A 
ENDROOT
BRANCH   1   7
ATOM      7  C   UNL     1       1.171  -5.759  -1.990  0.00  0.00    +0.119 C 
BRANCH   7  17
ATOM      8  C   UNL     1      -0.017   1.379  -0.013  0.00  0.00    +0.005 A 
ATOM      9  C   UNL     1       1.195   2.058   0.002  0.00  0.00    +0.018 A 
ATOM     10  C   UNL     1       2.373   1.339   0.009  0.00  0.00    +0.084 A 
ATOM     11  N   UNL     1       2.361   0.020   0.001  0.00  0.00    -0.350 N 
ATOM     12  C   UNL     1       1.227  -0.664  -0.014  0.00  0.00    +0.099 A 
ATOM     13  C   UNL     1       0.002  -0.004  -0.021  0.00  0.00    +0.042 A 
ATOM     14  N   UNL     1       1.260  -2.054  -0.022  0.00  0.00    -0.314 N 
ATOM     15  C   UNL     1       2.535  -2.777  -0.142  0.00  0.00    +0.122 C 
ATOM     16  C   UNL     1       2.407  -3.805  -1.271  0.00  0.00    +0.103 C 
ATOM     17  N   UNL     1       1.232  -4.653  -1.026  0.00  0.00    -0.295 NA
ATOM     18  C   UNL     1      -0.007  -3.865  -1.049  0.00  0.00    +0.103 C 
ATOM     19  C   UNL     1       0.023  -2.839   0.095  0.00  0.00    +0.122 C 
ATOM     20  H   UNL     1       3.203  -0.461   0.006  0.00  0.00    +0.166 HD
ENDBRANCH   7  17
ENDBRANCH   1   7
BRANCH   4  21
ATOM     21  N   UNL     1      -2.831  -9.444  -0.390  0.00  0.00    -0.097 NA
BRANCH  21  22
ATOM     22  S   UNL     1      -4.386  -9.263  -0.928  0.00  0.00    +0.098 S 
ATOM     23  O   UNL     1      -4.878  -8.059  -0.355  0.00  0.00    -0.148 OA
ATOM     24  O   UNL     1      -4.358  -9.482  -2.332  0.00  0.00    -0.148 OA
BRANCH  22  25
ATOM     25  C   UNL     1      -5.335 -10.575  -0.233  0.00  0.00    +0.149 A 
ATOM     26  C   UNL     1      -6.018 -10.607   0.936  0.00  0.00    +0.038 A 
ATOM     27  C   UNL     1      -6.700 -11.759   1.284  0.00  0.00    +0.030 A 
ATOM     28  C   UNL     1      -6.664 -12.823   0.442  0.00  0.00    +0.080 A 
ATOM     29  S   UNL     1      -5.651 -12.204  -0.891  0.00  0.00    -0.057 S 
ATOM     30 CL   UNL     1      -7.414 -14.379   0.614  0.00  0.00    -0.076 Cl
ENDBRANCH  22  25
ENDBRANCH  21  22
ENDBRANCH   4  21
TORSDOF 5
