REMARK  Name = ZINC63746567
REMARK  7 active torsions:
REMARK  status: ('A' for Active; 'I' for Inactive)
REMARK    1  A    between atoms: C_1  and  C_2
REMARK    2  A    between atoms: C_2  and  C_3
REMARK    3  A    between atoms: C_6  and  N_9
REMARK    4  A    between atoms: N_12  and  C_13
REMARK    5  A    between atoms: C_15  and  C_37
REMARK    6  A    between atoms: C_18  and  C_31
REMARK    7  A    between atoms: C_19  and  C_23
REMARK                            x       y       z     vdW  Elec       q    Type
REMARK                         _______ _______ _______ _____ _____    ______ ____
ROOT
ATOM      1  C   UNL     1       5.347  -2.304  -6.202  0.00  0.00    +0.059 A 
ATOM      2  C   UNL     1       5.801  -1.986  -4.960  0.00  0.00    +0.028 A 
ATOM      3  C   UNL     1       7.133  -2.189  -4.588  0.00  0.00    -0.048 A 
ATOM      4  C   UNL     1       8.051  -2.712  -5.434  0.00  0.00    +0.013 A 
ATOM      5  C   UNL     1       7.683  -3.079  -6.752  0.00  0.00    +0.006 A 
ATOM      6  C   UNL     1       8.395  -3.623  -7.806  0.00  0.00    -0.000 C 
ATOM      7  C   UNL     1       7.402  -3.769  -8.938  0.00  0.00    +0.198 C 
ATOM      8  N   UNL     1       6.123  -3.270  -8.421  0.00  0.00    -0.368 N 
ATOM      9  C   UNL     1       6.284  -2.884  -7.178  0.00  0.00    +0.065 A 
ATOM     10  C   UNL     1       7.563  -1.812  -3.194  0.00  0.00    +0.044 C 
ATOM     11  H   UNL     1       5.291  -3.235  -8.918  0.00  0.00    +0.161 HD
ENDROOT
BRANCH   7  12
ATOM     12  C   UNL     1       7.274  -5.218  -9.333  0.00  0.00    +0.243 C 
ATOM     13  O   UNL     1       6.433  -5.917  -8.808  0.00  0.00    -0.273 OA
ATOM     14  N   UNL     1       8.093  -5.736 -10.269  0.00  0.00    -0.295 N 
ATOM     15  C   UNL     1       9.201  -4.945 -10.828  0.00  0.00    +0.136 C 
ATOM     16  C   UNL     1      10.483  -5.780 -10.742  0.00  0.00    +0.179 C 
ATOM     17  O   UNL     1      10.252  -7.059 -11.338  0.00  0.00    -0.377 OA
ATOM     18  C   UNL     1       9.252  -7.840 -10.679  0.00  0.00    +0.179 C 
ATOM     19  C   UNL     1       7.910  -7.112 -10.758  0.00  0.00    +0.136 C 
ENDBRANCH   7  12
BRANCH   1  23
ATOM     20  N   UNL     1       1.747  -2.124  -5.969  0.00  0.00    -0.269 N 
ATOM     21  C   UNL     1       3.043  -2.236  -5.617  0.00  0.00    +0.308 C 
ATOM     22  O   UNL     1       3.341  -2.470  -4.461  0.00  0.00    -0.252 OA
ATOM     23  N   UNL     1       4.009  -2.089  -6.545  0.00  0.00    -0.267 N 
ATOM     24  H   UNL     1       1.506  -2.001  -6.900  0.00  0.00    +0.156 HD
ATOM     25  H   UNL     1       3.775  -1.834  -7.452  0.00  0.00    +0.156 HD
BRANCH  20  29
ATOM     26  C   UNL     1      -1.226  -2.300  -3.056  0.00  0.00    -0.048 A 
ATOM     27  C   UNL     1       0.030  -1.821  -2.732  0.00  0.00    +0.005 A 
ATOM     28  C   UNL     1       1.017  -1.761  -3.695  0.00  0.00    +0.023 A 
ATOM     29  C   UNL     1       0.749  -2.183  -4.990  0.00  0.00    +0.035 A 
ATOM     30  C   UNL     1      -0.513  -2.665  -5.312  0.00  0.00    +0.023 A 
ATOM     31  C   UNL     1      -1.495  -2.727  -4.343  0.00  0.00    +0.005 A 
BRANCH  26  33
ATOM     32  C   UNL     1      -2.241  -3.718  -1.292  0.00  0.00    +0.009 C 
ATOM     33  C   UNL     1      -2.302  -2.364  -2.002  0.00  0.00    +0.032 C 
ENDBRANCH  26  33
ENDBRANCH  20  29
ENDBRANCH   1  23
BRANCH   6  34
ATOM     34  C   UNL     1       9.814  -3.983  -7.823  0.00  0.00    -0.019 A 
ATOM     35  C   UNL     1      10.716  -3.259  -8.616  0.00  0.00    +0.008 A 
ATOM     36  C   UNL     1      12.050  -3.604  -8.625  0.00  0.00    +0.001 A 
ATOM     37  C   UNL     1      12.500  -4.664  -7.856  0.00  0.00    +0.000 A 
ATOM     38  C   UNL     1      11.617  -5.385  -7.070  0.00  0.00    +0.001 A 
ATOM     39  C   UNL     1      10.281  -5.051  -7.043  0.00  0.00    +0.008 A 
ENDBRANCH   6  34
TORSDOF 5
