REMARK  Name = ZINC59829937
REMARK  15 active torsions:
REMARK  status: ('A' for Active; 'I' for Inactive)
REMARK    1  A    between atoms: C_1  and  C_2
REMARK    2  A    between atoms: C_3  and  C_11
REMARK    3  A    between atoms: C_4  and  C_10
REMARK    4  A    between atoms: N_5  and  C_7
REMARK    5  A    between atoms: C_7  and  C_8
REMARK    6  A    between atoms: N_12  and  N_13
REMARK    7  A    between atoms: C_17  and  S_20
REMARK    8  A    between atoms: N_18  and  N_19
REMARK    9  A    between atoms: S_20  and  C_21
REMARK   10  A    between atoms: C_21  and  C_22
REMARK   11  A    between atoms: N_24  and  C_25
REMARK   12  A    between atoms: C_27  and  O_33
REMARK   13  A    between atoms: C_30  and  O_31
REMARK   14  A    between atoms: O_31  and  C_32
REMARK   15  A    between atoms: O_33  and  C_34
REMARK                            x       y       z     vdW  Elec       q    Type
REMARK                         _______ _______ _______ _____ _____    ______ ____
ROOT
ATOM      1  N   UNL     1      -0.106   1.331  -4.154  0.00  0.00    -0.204 N 
ATOM      2  C   UNL     1      -0.116   2.689  -4.441  0.00  0.00    +0.254 A 
ATOM      3  N   UNL     1      -0.116   3.662  -3.563  0.00  0.00    -0.109 NA
ATOM      4  N   UNL     1      -0.127   4.876  -4.263  0.00  0.00    -0.119 NA
ATOM      5  C   UNL     1      -0.133   4.604  -5.546  0.00  0.00    +0.210 A 
ATOM      6  N   UNL     1      -0.120   3.246  -5.690  0.00  0.00    -0.211 N 
ATOM      7  H   UNL     1      -0.102   0.683  -4.875  0.00  0.00    +0.177 HD
ENDROOT
BRANCH   6   8
ATOM      8  N   UNL     1      -0.116   2.564  -6.873  0.00  0.00    -0.294 N 
ATOM      9  H   UNL     1      -1.057   2.377  -7.186  0.00  0.00    +0.163 HD
ATOM     10  H   UNL     1       0.406   3.064  -7.577  0.00  0.00    +0.163 HD
ENDBRANCH   6   8
BRANCH   1  12
ATOM     11  C   UNL     1      -0.094  -0.372  -2.553  0.00  0.00    +0.141 C 
ATOM     12  N   UNL     1      -0.103   0.898  -2.822  0.00  0.00    -0.187 NA
BRANCH  11  15
ATOM     13  C   UNL     1      -0.106   1.499   0.007  0.00  0.00    +0.068 C 
ATOM     14  C   UNL     1      -0.096  -0.008  -0.002  0.00  0.00    +0.069 A 
ATOM     15  C   UNL     1      -0.090  -0.829  -1.149  0.00  0.00    +0.038 A 
ATOM     16  C   UNL     1      -0.081  -2.137  -0.716  0.00  0.00    +0.045 A 
ATOM     17  N   UNL     1      -0.080  -2.115   0.632  0.00  0.00    -0.264 N 
ATOM     18  N   UNL     1      -0.085  -0.780   1.051  0.00  0.00    -0.175 NA
ATOM     19  C   UNL     1      -0.073  -3.366  -1.589  0.00  0.00    +0.066 C 
BRANCH  17  20
ATOM     20  C   UNL     1      -0.072  -3.289   1.509  0.00  0.00    +0.170 C 
BRANCH  20  21
ATOM     21  C   UNL     1       1.352  -3.682   1.809  0.00  0.00    -0.012 C 
ATOM     22  C   UNL     1       1.754  -3.789   3.051  0.00  0.00    +0.006 C 
ENDBRANCH  20  21
ENDBRANCH  17  20
ENDBRANCH  11  15
ENDBRANCH   1  12
BRANCH   5  23
ATOM     23  S   UNL     1      -0.148   5.784  -6.854  0.00  0.00    -0.075 S 
BRANCH  23  24
ATOM     24  C   UNL     1      -0.151   7.385  -6.001  0.00  0.00    +0.173 C 
BRANCH  24  25
ATOM     25  C   UNL     1      -0.164   8.497  -7.019  0.00  0.00    +0.228 C 
ATOM     26  O   UNL     1      -0.170   8.234  -8.203  0.00  0.00    -0.275 OA
ATOM     27  N   UNL     1      -0.169   9.782  -6.613  0.00  0.00    -0.282 N 
ATOM     28  H   UNL     1      -0.230   9.992  -5.668  0.00  0.00    +0.155 HD
BRANCH  27  29
ATOM     29  C   UNL     1      -0.086  10.815  -7.557  0.00  0.00    +0.079 A 
ATOM     30  C   UNL     1      -0.688  10.671  -8.798  0.00  0.00    +0.072 A 
ATOM     31  C   UNL     1      -0.605  11.695  -9.729  0.00  0.00    +0.122 A 
ATOM     32  C   UNL     1       0.080  12.861  -9.421  0.00  0.00    +0.049 A 
ATOM     33  C   UNL     1       0.681  13.006  -8.184  0.00  0.00    +0.051 A 
ATOM     34  C   UNL     1       0.596  11.989  -7.248  0.00  0.00    +0.141 A 
BRANCH  34  35
ATOM     35  O   UNL     1       1.183  12.135  -6.029  0.00  0.00    -0.493 OA
ATOM     36  C   UNL     1       1.865  13.365  -5.781  0.00  0.00    +0.277 C 
ENDBRANCH  34  35
BRANCH  31  37
ATOM     37  O   UNL     1      -1.194  11.555 -10.947  0.00  0.00    -0.495 OA
ATOM     38  C   UNL     1      -1.069  12.649 -11.857  0.00  0.00    +0.277 C 
ENDBRANCH  31  37
ENDBRANCH  27  29
ENDBRANCH  24  25
ENDBRANCH  23  24
ENDBRANCH   5  23
TORSDOF 11
