REMARK  Name = ZINC04397805
REMARK  9 active torsions:
REMARK  status: ('A' for Active; 'I' for Inactive)
REMARK    1  A    between atoms: C_1  and  C_2
REMARK    2  A    between atoms: C_2  and  S_3
REMARK    3  A    between atoms: S_3  and  N_6
REMARK    4  A    between atoms: C_11  and  C_12
REMARK    5  A    between atoms: C_11  and  N_62
REMARK    6  A    between atoms: C_24  and  C_28
REMARK    7  A    between atoms: C_28  and  C_29
REMARK    8  A    between atoms: C_28  and  C_30
REMARK    9  A    between atoms: C_28  and  C_31
REMARK                            x       y       z     vdW  Elec       q    Type
REMARK                         _______ _______ _______ _____ _____    ______ ____
ROOT
ATOM      1  C   UNL     1      -1.954   5.013  -2.131  0.00  0.00    +0.094 A 
ATOM      2  N   UNL     1      -2.597   5.680  -3.123  0.00  0.00    -0.312 N 
ATOM      3  H   UNL     1      -2.739   5.231  -4.005  0.00  0.00    +0.170 HD
ATOM      4  C   UNL     1      -3.050   6.936  -2.943  0.00  0.00    +0.260 A 
ATOM      5  O   UNL     1      -3.629   7.520  -3.842  0.00  0.00    -0.267 OA
ATOM      6  C   UNL     1      -2.832   7.576  -1.679  0.00  0.00    +0.075 A 
ATOM      7  C   UNL     1      -3.226   8.921  -1.263  0.00  0.00    -0.023 A 
ATOM      8  C   UNL     1      -2.901   9.293  -0.006  0.00  0.00    -0.004 A 
ATOM      9  S   UNL     1      -2.063   7.892   0.685  0.00  0.00    -0.073 S 
ATOM     10  C   UNL     1      -2.153   6.809  -0.719  0.00  0.00    +0.116 A 
ATOM     11  N   UNL     1      -1.740   5.570  -0.969  0.00  0.00    -0.229 NA
ATOM     12  C   UNL     1      -3.189  10.606   0.655  0.00  0.00    +0.046 C 
ATOM     13  C   UNL     1      -4.243  11.348  -0.180  0.00  0.00    -0.000 C 
ATOM     14  C   UNL     1      -3.824  11.301  -1.653  0.00  0.00    +0.009 C 
ATOM     15  C   UNL     1      -3.970   9.877  -2.190  0.00  0.00    +0.037 C 
ENDROOT
BRANCH  13  16
ATOM     16  C   UNL     1      -4.332  12.803   0.282  0.00  0.00    -0.035 C 
ATOM     17  C   UNL     1      -2.972  13.480   0.102  0.00  0.00    +0.011 C 
ATOM     18  C   UNL     1      -5.383  13.540  -0.552  0.00  0.00    +0.011 C 
ATOM     19  C   UNL     1      -4.732  12.846   1.759  0.00  0.00    +0.011 C 
ENDBRANCH  13  16
BRANCH   1  20
ATOM     20  C   UNL     1      -1.472   3.606  -2.377  0.00  0.00    -0.003 C 
BRANCH  20  26
ATOM     21  N   UNL     1       1.443   2.088   0.238  0.00  0.00    -0.185 NA
ATOM     22  C   UNL     1       1.273   3.548   0.198  0.00  0.00    +0.090 C 
ATOM     23  C   UNL     1       0.565   3.925  -1.107  0.00  0.00    -0.061 C 
ATOM     24  C   UNL     1      -0.404   1.712  -1.313  0.00  0.00    -0.061 C 
ATOM     25  C   UNL     1       0.265   1.244  -0.016  0.00  0.00    +0.090 C 
ATOM     26  N   UNL     1      -0.696   3.157  -1.203  0.00  0.00    +0.386 N 
ATOM     27  H   UNL     1      -1.250   3.321  -0.354  0.00  0.00    -0.081 HD
BRANCH  21  28
ATOM     28  S   UNL     1       2.922   1.412   0.553  0.00  0.00    +0.031 S 
ATOM     29  O   UNL     1       2.877   0.136  -0.070  0.00  0.00    -0.158 OA
ATOM     30  O   UNL     1       3.864   2.390   0.134  0.00  0.00    -0.158 OA
BRANCH  28  32
ATOM     31  C   UNL     1       4.310   0.604   2.767  0.00  0.00    +0.029 C 
ATOM     32  C   UNL     1       2.974   1.226   2.357  0.00  0.00    +0.182 C 
ENDBRANCH  28  32
ENDBRANCH  21  28
ENDBRANCH  20  26
ENDBRANCH   1  20
TORSDOF 5
