REMARK  Name = ZINC06657927
REMARK  7 active torsions:
REMARK  status: ('A' for Active; 'I' for Inactive)
REMARK    1  A    between atoms: C_1  and  C_2
REMARK    2  A    between atoms: C_3  and  C_26
REMARK    3  A    between atoms: C_5  and  S_8
REMARK    4  A    between atoms: S_8  and  C_9
REMARK    5  A    between atoms: C_9  and  C_10
REMARK    6  A    between atoms: C_23  and  C_25
REMARK    7  A    between atoms: C_26  and  C_27
REMARK                            x       y       z     vdW  Elec       q    Type
REMARK                         _______ _______ _______ _____ _____    ______ ____
ROOT
ATOM      1  C   UNL     1       2.857  -2.008   1.588  0.00  0.00    +0.173 C 
ENDROOT
BRANCH   1   2
ATOM      2  C   UNL     1       1.822  -1.517   0.609  0.00  0.00    +0.230 C 
ATOM      3  O   UNL     1       1.717  -2.045  -0.478  0.00  0.00    -0.274 OA
ATOM      4  N   UNL     1       1.013  -0.492   0.942  0.00  0.00    -0.266 N 
ATOM      5  C   UNL     1       1.122   0.128   2.193  0.00  0.00    +0.058 A 
ATOM      6  C   UNL     1       0.690  -0.517   3.341  0.00  0.00    +0.025 A 
ATOM      7  C   UNL     1       0.780   0.120   4.564  0.00  0.00    +0.002 A 
ATOM      8  C   UNL     1       1.300   1.399   4.648  0.00  0.00    +0.002 A 
ATOM      9  C   UNL     1       1.742   2.047   3.509  0.00  0.00    +0.025 A 
ATOM     10  C   UNL     1       1.666   1.410   2.281  0.00  0.00    +0.055 A 
ATOM     11  N   UNL     1       2.144   2.027   1.119  0.00  0.00    -0.284 N 
ATOM     12  C   UNL     1       1.388   2.063  -0.000  0.00  0.00    +0.219 C 
ATOM     13  O   UNL     1       1.845   2.532  -1.021  0.00  0.00    -0.275 OA
ATOM     14  C   UNL     1      -0.019   1.526   0.010  0.00  0.00    +0.118 C 
ATOM     15  C   UNL     1       0.002  -0.004   0.002  0.00  0.00    +0.087 C 
ATOM     16  C   UNL     1      -1.373  -0.533   0.414  0.00  0.00    +0.029 C 
ATOM     17  H   UNL     1       3.026   2.432   1.118  0.00  0.00    +0.155 HD
ENDBRANCH   1   2
BRANCH   1  18
ATOM     18  S   UNL     1       3.779  -3.382   0.854  0.00  0.00    -0.079 S 
BRANCH  18  23
ATOM     19  C   UNL     1       7.602  -5.554   3.852  0.00  0.00    +0.065 C 
ATOM     20  C   UNL     1       6.475  -4.668   3.389  0.00  0.00    +0.037 A 
ATOM     21  C   UNL     1       5.902  -3.672   4.087  0.00  0.00    +0.067 A 
ATOM     22  N   UNL     1       4.941  -3.121   3.327  0.00  0.00    -0.226 NA
ATOM     23  C   UNL     1       4.886  -3.748   2.175  0.00  0.00    +0.167 A 
ATOM     24  N   UNL     1       5.835  -4.723   2.171  0.00  0.00    -0.337 N 
ATOM     25  H   UNL     1       6.031  -5.360   1.425  0.00  0.00    +0.168 HD
BRANCH  21  26
ATOM     26  C   UNL     1       6.279  -3.243   5.482  0.00  0.00    +0.092 C 
BRANCH  26  27
ATOM     27  C   UNL     1       7.346  -2.181   5.410  0.00  0.00    -0.042 A 
ATOM     28  C   UNL     1       8.681  -2.542   5.415  0.00  0.00    +0.004 A 
ATOM     29  C   UNL     1       9.660  -1.569   5.343  0.00  0.00    +0.000 A 
ATOM     30  C   UNL     1       9.305  -0.234   5.277  0.00  0.00    +0.000 A 
ATOM     31  C   UNL     1       7.970   0.126   5.278  0.00  0.00    +0.000 A 
ATOM     32  C   UNL     1       6.991  -0.847   5.343  0.00  0.00    +0.004 A 
ENDBRANCH  26  27
ENDBRANCH  21  26
ENDBRANCH  18  23
ENDBRANCH   1  18
TORSDOF 5
