REMARK  Name = ZINC06162626
REMARK  12 active torsions:
REMARK  status: ('A' for Active; 'I' for Inactive)
REMARK    1  A    between atoms: C_1  and  O_2
REMARK    2  A    between atoms: O_2  and  C_3
REMARK    3  A    between atoms: C_6  and  O_9
REMARK    4  A    between atoms: O_9  and  C_10
REMARK    5  A    between atoms: C_16  and  O_25
REMARK    6  A    between atoms: C_20  and  C_21
REMARK    7  A    between atoms: O_25  and  C_26
REMARK    8  A    between atoms: C_26  and  C_28
REMARK    9  A    between atoms: C_30  and  O_36
REMARK   10  A    between atoms: C_32  and  O_34
REMARK   11  A    between atoms: O_34  and  C_35
REMARK   12  A    between atoms: O_36  and  C_37
REMARK                            x       y       z     vdW  Elec       q    Type
REMARK                         _______ _______ _______ _____ _____    ______ ____
ROOT
ATOM      1  C   UNL     1      -1.304   3.421   0.092  0.00  0.00    +0.222 A 
ATOM      2  C   UNL     1      -1.193   4.128  -1.139  0.00  0.00    +0.235 A 
ATOM      3  O   UNL     1      -1.135   3.540  -2.206  0.00  0.00    -0.283 OA
ATOM      4  C   UNL     1      -1.152   5.598  -1.070  0.00  0.00    +0.068 A 
ATOM      5  C   UNL     1      -1.045   6.378  -2.223  0.00  0.00    +0.019 A 
ATOM      6  C   UNL     1      -1.009   7.739  -2.119  0.00  0.00    +0.047 A 
ATOM      7  C   UNL     1      -1.080   8.353  -0.870  0.00  0.00    +0.135 A 
ATOM      8  C   UNL     1      -1.186   7.594   0.283  0.00  0.00    +0.093 A 
ATOM      9  C   UNL     1      -1.224   6.209   0.195  0.00  0.00    +0.143 A 
ATOM     10  O   UNL     1      -1.328   5.446   1.301  0.00  0.00    -0.447 OA
ATOM     11  C   UNL     1      -1.371   4.108   1.250  0.00  0.00    +0.254 A 
ENDROOT
BRANCH  11  12
ATOM     12  C   UNL     1      -1.495   3.339   2.540  0.00  0.00    +0.454 C 
ATOM     13  F   UNL     1      -0.219   3.059   3.040  0.00  0.00    -0.163 F 
ATOM     14  F   UNL     1      -2.204   4.104   3.472  0.00  0.00    -0.163 F 
ATOM     15  F   UNL     1      -2.177   2.140   2.305  0.00  0.00    -0.163 F 
ENDBRANCH  11  12
BRANCH   1  16
ATOM     16  O   UNL     1      -1.348   2.060   0.100  0.00  0.00    -0.448 OA
BRANCH  16  20
ATOM     17  C   UNL     1       2.225   0.009   0.360  0.00  0.00    +0.120 A 
ATOM     18  C   UNL     1       1.028  -0.689   0.285  0.00  0.00    +0.049 A 
ATOM     19  C   UNL     1      -0.167  -0.003   0.200  0.00  0.00    +0.050 A 
ATOM     20  C   UNL     1      -0.171   1.385   0.189  0.00  0.00    +0.129 A 
ATOM     21  C   UNL     1       1.026   2.082   0.264  0.00  0.00    +0.050 A 
ATOM     22  C   UNL     1       2.221   1.396   0.349  0.00  0.00    +0.049 A 
BRANCH  17  24
ATOM     23  C   UNL     1       4.595   0.115   0.518  0.00  0.00    +0.277 C 
ATOM     24  O   UNL     1       3.402  -0.667   0.445  0.00  0.00    -0.495 OA
ENDBRANCH  17  24
ENDBRANCH  16  20
ENDBRANCH   1  16
BRANCH   7  25
ATOM     25  O   UNL     1      -1.043   9.707  -0.782  0.00  0.00    -0.422 OA
BRANCH  25  26
ATOM     26  C   UNL     1       0.060  10.256  -0.236  0.00  0.00    +0.345 C 
ATOM     27  O   UNL     1       1.007   9.553   0.056  0.00  0.00    -0.245 OA
BRANCH  26  28
ATOM     28  C   UNL     1       0.117  11.711   0.009  0.00  0.00    +0.066 A 
ATOM     29  C   UNL     1      -0.968  12.522  -0.330  0.00  0.00    +0.060 A 
ATOM     30  C   UNL     1      -0.912  13.885  -0.094  0.00  0.00    +0.124 A 
ATOM     31  C   UNL     1       0.225  14.448   0.469  0.00  0.00    +0.091 A 
ATOM     32  C   UNL     1       1.308  13.647   0.803  0.00  0.00    +0.124 A 
ATOM     33  C   UNL     1       1.258  12.282   0.576  0.00  0.00    +0.060 A 
BRANCH  32  34
ATOM     34  O   UNL     1       2.418  14.203   1.355  0.00  0.00    -0.495 OA
ATOM     35  C   UNL     1       2.401  15.617   1.561  0.00  0.00    +0.277 C 
ENDBRANCH  32  34
BRANCH  30  36
ATOM     36  O   UNL     1      -1.970  14.674  -0.419  0.00  0.00    -0.495 OA
ATOM     37  C   UNL     1      -1.842  16.073  -0.153  0.00  0.00    +0.277 C 
ENDBRANCH  30  36
ENDBRANCH  26  28
ENDBRANCH  25  26
ENDBRANCH   7  25
TORSDOF 9
