REMARK  Name = ZINC09311978
REMARK  12 active torsions:
REMARK  status: ('A' for Active; 'I' for Inactive)
REMARK    1  A    between atoms: C_1  and  C_2
REMARK    2  A    between atoms: C_2  and  N_65
REMARK    3  A    between atoms: C_3  and  C_4
REMARK    4  A    between atoms: C_3  and  N_65
REMARK    5  A    between atoms: C_5  and  C_6
REMARK    6  A    between atoms: C_5  and  N_65
REMARK    7  A    between atoms: C_6  and  C_7
REMARK    8  A    between atoms: C_7  and  N_8
REMARK    9  A    between atoms: C_9  and  C_29
REMARK   10  A    between atoms: C_12  and  C_13
REMARK   11  A    between atoms: C_12  and  O_24
REMARK   12  A    between atoms: C_20  and  C_23
REMARK                            x       y       z     vdW  Elec       q    Type
REMARK                         _______ _______ _______ _____ _____    ______ ____
ROOT
ATOM      1  N   UNL     1      -2.034   0.839   1.216  0.00  0.00    -0.284 N 
ATOM      2  C   UNL     1      -2.853  -0.220   1.814  0.00  0.00    +0.144 C 
ATOM      3  C   UNL     1      -3.584   0.405   2.980  0.00  0.00    +0.071 C 
ATOM      4  C   UNL     1      -4.471  -0.221   3.835  0.00  0.00    +0.133 C 
ATOM      5  C   UNL     1      -3.183   1.748   3.018  0.00  0.00    +0.249 C 
ATOM      6  O   UNL     1      -3.557   2.583   3.822  0.00  0.00    -0.282 OA
ATOM      7  C   UNL     1      -2.216   1.975   1.910  0.00  0.00    +0.288 C 
ATOM      8  O   UNL     1      -1.673   3.034   1.666  0.00  0.00    -0.266 OA
ENDROOT
BRANCH   4   9
ATOM      9  C   UNL     1      -4.989   0.496   5.010  0.00  0.00    +0.017 A 
ATOM     10  C   UNL     1      -6.367   0.548   5.255  0.00  0.00    +0.015 A 
ATOM     11  C   UNL     1      -6.850   1.221   6.351  0.00  0.00    +0.046 A 
ATOM     12  C   UNL     1      -5.973   1.859   7.231  0.00  0.00    +0.124 A 
ATOM     13  C   UNL     1      -4.603   1.798   6.989  0.00  0.00    -0.002 A 
ATOM     14  C   UNL     1      -4.109   1.128   5.898  0.00  0.00    +0.019 A 
ATOM     15  C   UNL     1      -3.920   2.552   8.113  0.00  0.00    +0.083 C 
ATOM     16  C   UNL     1      -5.055   2.666   9.158  0.00  0.00    +0.175 C 
ATOM     17  O   UNL     1      -6.241   2.584   8.350  0.00  0.00    -0.488 OA
ATOM     18  C   UNL     1      -4.995   1.504  10.152  0.00  0.00    +0.052 C 
ENDBRANCH   4   9
BRANCH   2  19
ATOM     19  C   UNL     1      -1.972  -1.342   2.299  0.00  0.00    -0.022 A 
ATOM     20  C   UNL     1      -0.765  -1.058   2.912  0.00  0.00    +0.007 A 
ATOM     21  C   UNL     1       0.041  -2.087   3.360  0.00  0.00    +0.015 A 
ATOM     22  C   UNL     1      -0.354  -3.402   3.186  0.00  0.00    +0.018 A 
ATOM     23  C   UNL     1      -1.559  -3.685   2.568  0.00  0.00    +0.015 A 
ATOM     24  C   UNL     1      -2.367  -2.655   2.125  0.00  0.00    +0.007 A 
ATOM     25 BR   UNL     1       0.752  -4.810   3.794  0.00  0.00    -0.050 Br
ENDBRANCH   2  19
BRANCH   4  26
ATOM     26  O   UNL     1      -4.861  -1.491   3.593  0.00  0.00    -0.506 OA
ATOM     27  H   UNL     1      -5.498  -1.785   4.305  0.00  0.00    +0.292 HD
ENDBRANCH   4  26
BRANCH   1  28
ATOM     28  C   UNL     1      -1.155   0.682   0.055  0.00  0.00    +0.107 C 
BRANCH  28  29
ATOM     29  C   UNL     1      -1.942   0.978  -1.224  0.00  0.00    +0.000 C 
BRANCH  29  30
ATOM     30  C   UNL     1      -1.024   0.814  -2.436  0.00  0.00    -0.077 C 
BRANCH  30  31
ATOM     31  N   UNL     1      -1.803   1.082  -3.664  0.00  0.00    +0.379 N 
ATOM     32  H   UNL     1      -2.656   0.511  -3.649  0.00  0.00    -0.082 HD
BRANCH  31  34
ATOM     33  C   UNL     1      -0.935   3.395  -3.755  0.00  0.00    -0.017 C 
ATOM     34  C   UNL     1      -2.182   2.510  -3.719  0.00  0.00    -0.082 C 
ENDBRANCH  31  34
BRANCH  31  35
ATOM     35  C   UNL     1      -1.006   0.725  -4.856  0.00  0.00    -0.082 C 
ATOM     36  C   UNL     1      -1.928   0.706  -6.077  0.00  0.00    -0.017 C 
ENDBRANCH  31  35
ENDBRANCH  30  31
ENDBRANCH  29  30
ENDBRANCH  28  29
ENDBRANCH   1  28
TORSDOF 9
