REMARK  Name = ZINC35450707
REMARK  12 active torsions:
REMARK  status: ('A' for Active; 'I' for Inactive)
REMARK    1  A    between atoms: C_1  and  C_2
REMARK    2  A    between atoms: C_2  and  C_3
REMARK    3  A    between atoms: C_2  and  C_4
REMARK    4  A    between atoms: C_4  and  C_5
REMARK    5  A    between atoms: C_5  and  S_6
REMARK    6  A    between atoms: S_6  and  C_7
REMARK    7  A    between atoms: C_14  and  C_26
REMARK    8  A    between atoms: C_20  and  C_24
REMARK    9  A    between atoms: C_20  and  C_25
REMARK   10  A    between atoms: C_29  and  C_32
REMARK   11  A    between atoms: C_32  and  O_34
REMARK   12  A    between atoms: O_34  and  C_35
REMARK                            x       y       z     vdW  Elec       q    Type
REMARK                         _______ _______ _______ _____ _____    ______ ____
ROOT
ATOM      1  C   UNL     1      -4.502  -0.221  -2.813  0.00  0.00    +0.171 A 
ATOM      2  N   UNL     1      -3.741   0.469  -3.638  0.00  0.00    -0.208 NA
ATOM      3  C   UNL     1      -4.209   0.895  -4.816  0.00  0.00    +0.135 A 
ATOM      4  C   UNL     1      -5.512   0.607  -5.185  0.00  0.00    +0.069 A 
ATOM      5  C   UNL     1      -6.316  -0.125  -4.303  0.00  0.00    +0.258 A 
ATOM      6  O   UNL     1      -7.471  -0.395  -4.594  0.00  0.00    -0.267 OA
ATOM      7  N   UNL     1      -5.790  -0.531  -3.129  0.00  0.00    -0.302 N 
ATOM      8  C   UNL     1      -6.055   1.064  -6.506  0.00  0.00    +0.092 C 
ATOM      9  C   UNL     1      -5.210   2.163  -7.096  0.00  0.00    +0.024 C 
ATOM     10  C   UNL     1      -3.952   2.389  -6.662  0.00  0.00    +0.017 C 
ATOM     11  N   UNL     1      -3.403   1.623  -5.669  0.00  0.00    -0.302 N 
ATOM     12  C   UNL     1      -3.112   3.495  -7.253  0.00  0.00    +0.058 C 
ATOM     13  C   UNL     1      -3.500   3.708  -8.718  0.00  0.00    -0.023 C 
ATOM     14  C   UNL     1      -4.992   4.050  -8.779  0.00  0.00    +0.086 C 
ATOM     15  C   UNL     1      -5.774   2.948  -8.118  0.00  0.00    +0.162 C 
ATOM     16  O   UNL     1      -6.915   2.730  -8.475  0.00  0.00    -0.292 OA
ATOM     17  C   UNL     1      -2.683   4.861  -9.305  0.00  0.00    +0.011 C 
ATOM     18  C   UNL     1      -3.232   2.428  -9.512  0.00  0.00    +0.011 C 
ATOM     19  H   UNL     1      -2.439   1.592  -5.563  0.00  0.00    +0.153 HD
ATOM     20  H   UNL     1      -6.331  -1.041  -2.506  0.00  0.00    +0.171 HD
ENDROOT
BRANCH   8  21
ATOM     21  C   UNL     1      -6.080  -0.103  -7.459  0.00  0.00    -0.035 A 
ATOM     22  C   UNL     1      -4.904  -0.759  -7.776  0.00  0.00    +0.005 A 
ATOM     23  C   UNL     1      -4.920  -1.828  -8.648  0.00  0.00    +0.015 A 
ATOM     24  C   UNL     1      -6.126  -2.248  -9.211  0.00  0.00    +0.059 A 
ATOM     25  C   UNL     1      -7.310  -1.582  -8.886  0.00  0.00    +0.015 A 
ATOM     26  C   UNL     1      -7.281  -0.518  -8.008  0.00  0.00    +0.005 A 
BRANCH  24  27
ATOM     27  C   UNL     1      -6.151  -3.391 -10.145  0.00  0.00    +0.339 C 
ATOM     28  O   UNL     1      -5.120  -3.969 -10.426  0.00  0.00    -0.245 OA
BRANCH  27  29
ATOM     29  O   UNL     1      -7.317  -3.794 -10.686  0.00  0.00    -0.464 OA
ATOM     30  C   UNL     1      -7.267  -4.907 -11.582  0.00  0.00    +0.280 C 
ENDBRANCH  27  29
ENDBRANCH  24  27
ENDBRANCH   8  21
BRANCH   1  31
ATOM     31  S   UNL     1      -3.837  -0.759  -1.273  0.00  0.00    -0.088 S 
BRANCH  31  32
ATOM     32  C   UNL     1      -2.135  -0.131  -1.286  0.00  0.00    +0.077 C 
BRANCH  32  33
ATOM     33  C   UNL     1      -1.433  -0.534   0.013  0.00  0.00    +0.014 C 
BRANCH  33  35
ATOM     34  C   UNL     1      -0.019   1.526   0.010  0.00  0.00    +0.007 C 
ATOM     35  C   UNL     1       0.002  -0.004   0.002  0.00  0.00    -0.016 C 
ATOM     36  C   UNL     1       0.742  -0.511   1.242  0.00  0.00    +0.007 C 
ENDBRANCH  33  35
ENDBRANCH  32  33
ENDBRANCH  31  32
ENDBRANCH   1  31
TORSDOF 7
