REMARK  Name = ZINC08670440
REMARK  9 active torsions:
REMARK  status: ('A' for Active; 'I' for Inactive)
REMARK    1  A    between atoms: C_1  and  C_2
REMARK    2  A    between atoms: C_5  and  S_8
REMARK    3  A    between atoms: S_8  and  N_11
REMARK    4  A    between atoms: N_11  and  C_12
REMARK    5  A    between atoms: C_12  and  C_14
REMARK    6  A    between atoms: C_12  and  C_15
REMARK    7  A    between atoms: C_15  and  C_17
REMARK    8  A    between atoms: C_15  and  N_60
REMARK    9  A    between atoms: N_24  and  C_27
REMARK                            x       y       z     vdW  Elec       q    Type
REMARK                         _______ _______ _______ _____ _____    ______ ____
ROOT
ATOM      1  C   UNL     1       0.918   5.160   0.020  0.00  0.00    -0.012 C 
ENDROOT
BRANCH   1   7
ATOM      2  C   UNL     1       2.641   6.631  -0.836  0.00  0.00    -0.059 C 
ATOM      3  C   UNL     1       3.886   6.689  -1.724  0.00  0.00    +0.086 C 
ATOM      4  N   UNL     1       3.522   6.319  -3.099  0.00  0.00    -0.333 N 
ATOM      5  C   UNL     1       2.953   4.965  -3.144  0.00  0.00    +0.086 C 
ATOM      6  C   UNL     1       1.708   4.907  -2.256  0.00  0.00    -0.059 C 
ATOM      7  N   UNL     1       2.093   5.259  -0.873  0.00  0.00    +0.388 N 
ATOM      8  H   UNL     1       2.813   4.603  -0.549  0.00  0.00    -0.081 HD
BRANCH   4   9
ATOM      9  C   UNL     1       4.620   6.430  -3.955  0.00  0.00    +0.030 A 
ATOM     10  C   UNL     1       5.035   5.333  -4.699  0.00  0.00    +0.023 A 
ATOM     11  C   UNL     1       6.118   5.447  -5.549  0.00  0.00    +0.002 A 
ATOM     12  C   UNL     1       6.796   6.649  -5.650  0.00  0.00    +0.000 A 
ATOM     13  C   UNL     1       6.388   7.741  -4.906  0.00  0.00    +0.002 A 
ATOM     14  C   UNL     1       5.302   7.635  -4.059  0.00  0.00    +0.023 A 
ENDBRANCH   4   9
ENDBRANCH   1   7
BRANCH   1  15
ATOM     15  C   UNL     1       0.421   3.738   0.017  0.00  0.00    -0.022 A 
ATOM     16  C   UNL     1      -0.855   3.279   0.027  0.00  0.00    +0.009 A 
ATOM     17  C   UNL     1      -1.077   1.915   0.017  0.00  0.00    +0.008 A 
ATOM     18  C   UNL     1      -0.013   1.076   0.008  0.00  0.00    +0.045 A 
ATOM     19  S   UNL     1       1.359   2.219   0.001  0.00  0.00    -0.103 S 
ENDBRANCH   1  15
BRANCH   1  20
ATOM     20  C   UNL     1       1.336   5.552   1.438  0.00  0.00    +0.065 C 
ATOM     21  C   UNL     1       2.534   4.704   1.870  0.00  0.00    +0.024 C 
BRANCH  20  22
ATOM     22  N   UNL     1       0.218   5.323   2.357  0.00  0.00    -0.188 NA
ATOM     23  H   UNL     1      -0.380   4.572   2.216  0.00  0.00    +0.148 HD
BRANCH  22  24
ATOM     24  S   UNL     1      -0.023   6.344   3.639  0.00  0.00    +0.059 S 
ATOM     25  O   UNL     1      -1.183   5.879   4.316  0.00  0.00    -0.153 OA
ATOM     26  O   UNL     1       1.233   6.485   4.288  0.00  0.00    -0.153 OA
BRANCH  24  31
ATOM     27  C   UNL     1      -1.409  11.759   1.368  0.00  0.00    +0.044 C 
ATOM     28  C   UNL     1      -1.062  10.407   1.935  0.00  0.00    -0.050 A 
ATOM     29  C   UNL     1      -2.065   9.495   2.208  0.00  0.00    +0.005 A 
ATOM     30  C   UNL     1      -1.748   8.254   2.728  0.00  0.00    +0.029 A 
ATOM     31  C   UNL     1      -0.428   7.925   2.975  0.00  0.00    +0.105 A 
ATOM     32  C   UNL     1       0.574   8.839   2.707  0.00  0.00    +0.029 A 
ATOM     33  C   UNL     1       0.257  10.078   2.182  0.00  0.00    +0.005 A 
ENDBRANCH  24  31
ENDBRANCH  22  24
ENDBRANCH  20  22
ENDBRANCH   1  20
TORSDOF 7
