REMARK  Name = ZINC10497109
REMARK  6 active torsions:
REMARK  status: ('A' for Active; 'I' for Inactive)
REMARK    1  A    between atoms: C_1  and  C_2
REMARK    2  A    between atoms: C_9  and  C_11
REMARK    3  A    between atoms: C_11  and  S_12
REMARK    4  A    between atoms: S_12  and  C_13
REMARK    5  A    between atoms: N_25  and  C_26
REMARK    6  A    between atoms: C_26  and  C_27
REMARK                            x       y       z     vdW  Elec       q    Type
REMARK                         _______ _______ _______ _____ _____    ______ ____
ROOT
ATOM      1  C   UNL     1      -4.678   4.108  -1.130  0.00  0.00    +0.173 A 
ATOM      2  N   UNL     1      -5.698   4.742  -0.586  0.00  0.00    -0.216 NA
ATOM      3  C   UNL     1      -5.501   5.680   0.333  0.00  0.00    +0.117 A 
ATOM      4  C   UNL     1      -4.218   6.037   0.772  0.00  0.00    +0.076 A 
ATOM      5  C   UNL     1      -4.157   7.095   1.795  0.00  0.00    -0.023 A 
ATOM      6  C   UNL     1      -5.326   7.609   2.207  0.00  0.00    -0.004 A 
ATOM      7  S   UNL     1      -6.566   6.739   1.277  0.00  0.00    -0.073 S 
ATOM      8  C   UNL     1      -5.141   8.675   3.254  0.00  0.00    +0.043 C 
ATOM      9  C   UNL     1      -3.698   8.468   3.766  0.00  0.00    +0.010 C 
ATOM     10  C   UNL     1      -3.027   7.801   2.550  0.00  0.00    +0.037 C 
ATOM     11  C   UNL     1      -3.130   5.331   0.170  0.00  0.00    +0.263 A 
ATOM     12  O   UNL     1      -1.980   5.575   0.491  0.00  0.00    -0.267 OA
ATOM     13  N   UNL     1      -3.396   4.391  -0.757  0.00  0.00    -0.285 N 
ENDROOT
BRANCH   1  14
ATOM     14  S   UNL     1      -4.974   2.873  -2.352  0.00  0.00    -0.078 S 
BRANCH  14  15
ATOM     15  C   UNL     1      -6.782   2.936  -2.430  0.00  0.00    +0.173 C 
BRANCH  15  23
ATOM     16  C   UNL     1     -10.761  -0.998  -5.016  0.00  0.00    +0.009 C 
ATOM     17  C   UNL     1     -10.134  -0.068  -3.976  0.00  0.00    +0.003 C 
ATOM     18  C   UNL     1     -11.224   0.804  -3.348  0.00  0.00    +0.006 C 
ATOM     19  C   UNL     1     -10.603   1.712  -2.283  0.00  0.00    +0.019 C 
ATOM     20  C   UNL     1      -9.569   2.630  -2.941  0.00  0.00    +0.108 C 
ATOM     21  N   UNL     1      -8.598   1.803  -3.670  0.00  0.00    -0.301 N 
ATOM     22  C   UNL     1      -9.094   0.834  -4.657  0.00  0.00    +0.111 C 
ATOM     23  C   UNL     1      -7.276   1.934  -3.441  0.00  0.00    +0.226 C 
ATOM     24  O   UNL     1      -6.484   1.245  -4.049  0.00  0.00    -0.275 OA
ENDBRANCH  15  23
ENDBRANCH  14  15
ENDBRANCH   1  14
BRANCH  13  25
ATOM     25  C   UNL     1      -2.289   3.662  -1.380  0.00  0.00    +0.159 C 
BRANCH  25  26
ATOM     26  C   UNL     1      -1.978   2.408  -0.561  0.00  0.00    +0.138 C 
ATOM     27  C   UNL     1      -0.811   1.623  -1.201  0.00  0.00    +0.035 C 
ATOM     28  C   UNL     1      -0.013   1.086   0.008  0.00  0.00    +0.031 C 
ATOM     29  C   UNL     1      -0.788   1.610   1.237  0.00  0.00    +0.160 C 
ATOM     30  O   UNL     1      -1.501   2.772   0.753  0.00  0.00    -0.375 OA
ENDBRANCH  25  26
ENDBRANCH  13  25
TORSDOF 5
