REMARK  Name = ZINC08770654
REMARK  7 active torsions:
REMARK  status: ('A' for Active; 'I' for Inactive)
REMARK    1  A    between atoms: C_4  and  C_7
REMARK    2  A    between atoms: C_8  and  C_18
REMARK    3  A    between atoms: N_11  and  C_12
REMARK    4  A    between atoms: C_18  and  N_20
REMARK    5  A    between atoms: C_22  and  C_35
REMARK    6  A    between atoms: N_24  and  C_26
REMARK    7  A    between atoms: C_29  and  C_32
REMARK                            x       y       z     vdW  Elec       q    Type
REMARK                         _______ _______ _______ _____ _____    ______ ____
ROOT
ATOM      1  N   UNL     1       0.456   5.304   4.748  0.00  0.00    -0.164 NA
ATOM      2  C   UNL     1       0.480   3.979   4.574  0.00  0.00    +0.144 A 
ATOM      3  C   UNL     1       0.099   3.202   3.439  0.00  0.00    +0.178 A 
ATOM      4  N   UNL     1       0.230   1.916   3.565  0.00  0.00    -0.152 NA
ATOM      5  N   UNL     1       0.686   1.385   4.647  0.00  0.00    -0.199 N 
ATOM      6  S   UNL     1       0.984   2.726   5.666  0.00  0.00    +0.032 S 
ENDROOT
BRANCH   3   7
ATOM      7  C   UNL     1      -0.416   3.820   2.205  0.00  0.00    +0.269 C 
ATOM      8  O   UNL     1      -1.088   4.831   2.265  0.00  0.00    -0.268 OA
ATOM      9  N   UNL     1      -0.141   3.264   1.008  0.00  0.00    -0.296 N 
ATOM     10  C   UNL     1       0.770   2.116   0.908  0.00  0.00    +0.108 C 
ATOM     11  C   UNL     1       1.866   2.444  -0.111  0.00  0.00    +0.019 C 
ATOM     12  C   UNL     1       1.220   2.852  -1.437  0.00  0.00    +0.003 C 
ATOM     13  C   UNL     1       0.365   4.104  -1.226  0.00  0.00    +0.019 C 
ATOM     14  C   UNL     1      -0.748   3.794  -0.221  0.00  0.00    +0.108 C 
ENDBRANCH   3   7
BRANCH   5  15
ATOM     15  C   UNL     1       0.885   0.033   4.924  0.00  0.00    +0.073 A 
ATOM     16  C   UNL     1       0.576  -0.925   3.964  0.00  0.00    +0.029 A 
ATOM     17  C   UNL     1       0.776  -2.261   4.233  0.00  0.00    +0.015 A 
ATOM     18  C   UNL     1       1.278  -2.654   5.476  0.00  0.00    +0.037 A 
ATOM     19  C   UNL     1       1.582  -1.690   6.441  0.00  0.00    +0.015 A 
ATOM     20  C   UNL     1       1.386  -0.355   6.163  0.00  0.00    +0.029 A 
BRANCH  18  21
ATOM     21  C   UNL     1       1.487  -4.086   5.771  0.00  0.00    +0.242 C 
ATOM     22  O   UNL     1       1.923  -4.427   6.853  0.00  0.00    -0.270 OA
ATOM     23  N   UNL     1       1.193  -5.015   4.840  0.00  0.00    -0.325 N 
ATOM     24  H   UNL     1       0.845  -4.744   3.976  0.00  0.00    +0.145 HD
ATOM     25  H   UNL     1       1.331  -5.956   5.033  0.00  0.00    +0.145 HD
ENDBRANCH  18  21
ENDBRANCH   5  15
BRANCH   1  26
ATOM     26  C   UNL     1       0.862   5.833   5.905  0.00  0.00    +0.291 C 
ATOM     27  O   UNL     1       1.256   5.106   6.803  0.00  0.00    -0.266 OA
BRANCH  26  29
ATOM     28  C   UNL     1       1.222   7.974   7.246  0.00  0.00    +0.107 A 
ATOM     29  C   UNL     1       0.835   7.296   6.097  0.00  0.00    +0.177 A 
ATOM     30  N   UNL     1       0.426   8.201   5.195  0.00  0.00    -0.124 NA
ATOM     31  N   UNL     1       0.530   9.388   5.681  0.00  0.00    -0.059 NA
ATOM     32  N   UNL     1       1.035   9.303   6.986  0.00  0.00    -0.212 N 
BRANCH  28  36
ATOM     33  C   UNL     1       2.697   6.262  10.841  0.00  0.00    +0.000 A 
ATOM     34  C   UNL     1       1.592   5.710  10.219  0.00  0.00    +0.001 A 
ATOM     35  C   UNL     1       1.107   6.262   9.051  0.00  0.00    +0.010 A 
ATOM     36  C   UNL     1       1.735   7.379   8.497  0.00  0.00    +0.003 A 
ATOM     37  C   UNL     1       2.854   7.927   9.127  0.00  0.00    +0.010 A 
ATOM     38  C   UNL     1       3.325   7.369  10.298  0.00  0.00    +0.001 A 
ENDBRANCH  28  36
BRANCH  32  39
ATOM     39  C   UNL     1       1.294  10.371   7.855  0.00  0.00    +0.068 A 
ATOM     40  C   UNL     1       1.083  10.225   9.219  0.00  0.00    +0.028 A 
ATOM     41  C   UNL     1       1.344  11.278  10.074  0.00  0.00    +0.002 A 
ATOM     42  C   UNL     1       1.805  12.480   9.571  0.00  0.00    +0.000 A 
ATOM     43  C   UNL     1       2.011  12.631   8.212  0.00  0.00    +0.002 A 
ATOM     44  C   UNL     1       1.758  11.580   7.353  0.00  0.00    +0.028 A 
ENDBRANCH  32  39
ENDBRANCH  26  29
ENDBRANCH   1  26
TORSDOF 7
