REMARK  Name = ZINC36303107
REMARK  16 active torsions:
REMARK  status: ('A' for Active; 'I' for Inactive)
REMARK    1  A    between atoms: C_1  and  C_2
REMARK    2  A    between atoms: C_2  and  C_3
REMARK    3  A    between atoms: C_4  and  C_22
REMARK    4  A    between atoms: C_5  and  O_14
REMARK    5  A    between atoms: N_6  and  C_8
REMARK    6  A    between atoms: O_14  and  C_15
REMARK    7  A    between atoms: C_22  and  N_23
REMARK    8  A    between atoms: N_23  and  C_24
REMARK    9  A    between atoms: N_23  and  C_28
REMARK   10  A    between atoms: C_24  and  C_25
REMARK   11  A    between atoms: C_25  and  O_26
REMARK   12  A    between atoms: O_26  and  C_27
REMARK   13  A    between atoms: C_28  and  C_29
REMARK   14  A    between atoms: C_29  and  C_31
REMARK   15  A    between atoms: C_29  and  O_38
REMARK   16  A    between atoms: C_31  and  C_32
REMARK                            x       y       z     vdW  Elec       q    Type
REMARK                         _______ _______ _______ _____ _____    ______ ____
ROOT
ATOM      1  C   UNL     1      -1.181   0.168  -0.578  0.00  0.00    +0.068 A 
ATOM      2  C   UNL     1      -1.413  -0.105   0.774  0.00  0.00    +0.021 A 
ATOM      3  C   UNL     1      -2.705  -0.509   0.903  0.00  0.00    +0.225 A 
ATOM      4  N   UNL     1      -3.265  -0.488  -0.336  0.00  0.00    -0.200 N 
ATOM      5  N   UNL     1      -2.288  -0.055  -1.241  0.00  0.00    -0.168 NA
ENDROOT
BRANCH   4   6
ATOM      6  C   UNL     1      -4.587  -0.834  -0.651  0.00  0.00    +0.069 A 
ATOM      7  C   UNL     1      -5.181  -1.934  -0.046  0.00  0.00    +0.028 A 
ATOM      8  C   UNL     1      -6.483  -2.272  -0.358  0.00  0.00    +0.002 A 
ATOM      9  C   UNL     1      -7.195  -1.516  -1.272  0.00  0.00    +0.000 A 
ATOM     10  C   UNL     1      -6.606  -0.421  -1.876  0.00  0.00    +0.002 A 
ATOM     11  C   UNL     1      -5.306  -0.074  -1.564  0.00  0.00    +0.028 A 
ENDBRANCH   4   6
BRANCH   1  13
ATOM     12  C   UNL     1       0.147   2.175  -1.174  0.00  0.00    +0.010 C 
ATOM     13  C   UNL     1       0.119   0.646  -1.170  0.00  0.00    +0.054 C 
ENDBRANCH   1  13
BRANCH   3  14
ATOM     14  O   UNL     1      -3.322  -0.868   2.057  0.00  0.00    -0.435 OA
BRANCH  14  15
ATOM     15  C   UNL     1      -3.169  -2.147   2.492  0.00  0.00    +0.165 A 
ATOM     16  C   UNL     1      -2.317  -3.012   1.821  0.00  0.00    +0.049 A 
ATOM     17  C   UNL     1      -2.163  -4.311   2.264  0.00  0.00    +0.004 A 
ATOM     18  C   UNL     1      -2.858  -4.751   3.376  0.00  0.00    +0.003 A 
ATOM     19  C   UNL     1      -3.708  -3.893   4.048  0.00  0.00    +0.042 A 
ATOM     20  C   UNL     1      -3.862  -2.589   3.612  0.00  0.00    +0.165 A 
ATOM     21  F   UNL     1      -4.689  -1.749   4.271  0.00  0.00    -0.202 F 
ENDBRANCH  14  15
ENDBRANCH   3  14
BRANCH   2  22
ATOM     22  C   UNL     1      -0.408   0.025   1.889  0.00  0.00    -0.036 C 
BRANCH  22  23
ATOM     23  N   UNL     1      -0.405   1.407   2.387  0.00  0.00    +0.386 N 
ATOM     24  H   UNL     1      -0.253   2.041   1.617  0.00  0.00    -0.081 HD
BRANCH  23  25
ATOM     25  C   UNL     1       0.670   1.569   3.375  0.00  0.00    -0.050 C 
BRANCH  25  26
ATOM     26  C   UNL     1       2.025   1.377   2.690  0.00  0.00    +0.141 C 
BRANCH  26  27
ATOM     27  O   UNL     1       2.208   2.393   1.702  0.00  0.00    -0.385 OA
ATOM     28  C   UNL     1       3.449   2.304   1.000  0.00  0.00    +0.193 C 
ENDBRANCH  26  27
ENDBRANCH  25  26
ENDBRANCH  23  25
BRANCH  23  29
ATOM     29  C   UNL     1      -1.698   1.703   3.018  0.00  0.00    -0.046 C 
BRANCH  29  30
ATOM     30  C   UNL     1      -1.741   3.177   3.425  0.00  0.00    +0.102 C 
BRANCH  30  31
ATOM     31  O   UNL     1      -1.694   3.996   2.254  0.00  0.00    -0.393 OA
ATOM     32  H   UNL     1      -2.428   3.848   1.641  0.00  0.00    +0.210 HD
ENDBRANCH  30  31
BRANCH  30  33
ATOM     33  C   UNL     1      -3.035   3.457   4.192  0.00  0.00    +0.064 C 
BRANCH  33  34
ATOM     34  C   UNL     1      -3.021   4.877   4.698  0.00  0.00    -0.045 A 
ATOM     35  C   UNL     1      -2.489   5.162   5.941  0.00  0.00    +0.004 A 
ATOM     36  C   UNL     1      -2.476   6.464   6.406  0.00  0.00    +0.000 A 
ATOM     37  C   UNL     1      -2.997   7.480   5.627  0.00  0.00    +0.000 A 
ATOM     38  C   UNL     1      -3.529   7.195   4.383  0.00  0.00    +0.000 A 
ATOM     39  C   UNL     1      -3.537   5.894   3.917  0.00  0.00    +0.004 A 
ENDBRANCH  33  34
ENDBRANCH  30  33
ENDBRANCH  29  30
ENDBRANCH  23  29
ENDBRANCH  22  23
ENDBRANCH   2  22
TORSDOF 14
