REMARK  Name = ZINC09356937
REMARK  3 active torsions:
REMARK  status: ('A' for Active; 'I' for Inactive)
REMARK    1  A    between atoms: C_1  and  C_2
REMARK    2  A    between atoms: N_23  and  C_26
REMARK    3  A    between atoms: C_29  and  N_32
REMARK                            x       y       z     vdW  Elec       q    Type
REMARK                         _______ _______ _______ _____ _____    ______ ____
ROOT
ATOM      1  C   UNL     1      -0.131   7.710  -4.134  0.00  0.00    +0.047 C 
ATOM      2  C   UNL     1      -0.958   7.144  -3.008  0.00  0.00    -0.011 A 
ATOM      3  C   UNL     1      -1.826   7.963  -2.312  0.00  0.00    +0.046 A 
ATOM      4  C   UNL     1      -2.588   7.452  -1.277  0.00  0.00    +0.020 A 
ATOM      5  C   UNL     1      -2.481   6.114  -0.938  0.00  0.00    +0.006 A 
ATOM      6  C   UNL     1      -1.617   5.296  -1.629  0.00  0.00    -0.027 A 
ATOM      7  C   UNL     1      -0.844   5.798  -2.673  0.00  0.00    +0.040 A 
ATOM      8  N   UNL     1      -0.052   4.785  -3.217  0.00  0.00    -0.286 N 
ATOM      9  C   UNL     1      -0.241   3.604  -2.599  0.00  0.00    +0.212 C 
ATOM     10  O   UNL     1       0.308   2.554  -2.859  0.00  0.00    -0.277 OA
ATOM     11  C   UNL     1      -1.266   3.838  -1.522  0.00  0.00    +0.053 C 
ATOM     12  C   UNL     1      -0.707   3.498  -0.136  0.00  0.00    +0.089 C 
ATOM     13  C   UNL     1      -1.253   2.079   0.183  0.00  0.00    +0.074 C 
ATOM     14  C   UNL     1      -2.087   1.689  -1.063  0.00  0.00    -0.054 C 
ATOM     15  C   UNL     1      -3.580   3.505  -0.903  0.00  0.00    -0.076 C 
ATOM     16  C   UNL     1      -4.408   2.264  -0.516  0.00  0.00    -0.020 C 
ATOM     17  C   UNL     1      -3.425   1.080  -0.604  0.00  0.00    -0.016 C 
ATOM     18  C   UNL     1      -0.003   1.230   0.247  0.00  0.00    +0.228 C 
ATOM     19  O   UNL     1       0.025   0.041   0.478  0.00  0.00    -0.275 OA
ATOM     20  N   UNL     1       1.067   1.996   0.003  0.00  0.00    -0.210 N 
ATOM     21  C   UNL     1       0.787   3.284  -0.226  0.00  0.00    +0.229 C 
ATOM     22  O   UNL     1       1.605   4.147  -0.468  0.00  0.00    -0.275 OA
ATOM     23 CL   UNL     1      -1.960   9.640  -2.738  0.00  0.00    -0.083 Cl
ATOM     24  H   UNL     1       0.563   4.917  -3.956  0.00  0.00    +0.155 HD
ATOM     25  N   UNL     1      -2.438   2.959  -1.656  0.00  0.00    +0.395 N 
ATOM     26  H   UNL     1      -2.687   2.846  -2.646  0.00  0.00    -0.079 HD
ENDROOT
BRANCH  20  27
ATOM     27  C   UNL     1       2.374   1.490  -0.013  0.00  0.00    +0.044 A 
ATOM     28  C   UNL     1       2.762   0.597  -1.004  0.00  0.00    +0.026 A 
ATOM     29  C   UNL     1       4.052   0.104  -1.020  0.00  0.00    +0.034 A 
ATOM     30  C   UNL     1       4.954   0.490  -0.045  0.00  0.00    +0.126 A 
ATOM     31  C   UNL     1       4.569   1.375   0.946  0.00  0.00    +0.034 A 
ATOM     32  C   UNL     1       3.281   1.875   0.964  0.00  0.00    +0.026 A 
BRANCH  30  33
ATOM     33  N   UNL     1       6.334  -0.045  -0.061  0.00  0.00    +0.056 N 
ATOM     34  O   UNL     1       7.129   0.294   0.797  0.00  0.00    -0.126 OA
ATOM     35  O   UNL     1       6.674  -0.825  -0.933  0.00  0.00    -0.126 OA
ENDBRANCH  30  33
ENDBRANCH  20  27
TORSDOF 2
