REMARK  Name = ZINC39330575
REMARK  5 active torsions:
REMARK  status: ('A' for Active; 'I' for Inactive)
REMARK    1  A    between atoms: C_1  and  C_2
REMARK    2  A    between atoms: C_8  and  C_11
REMARK    3  A    between atoms: C_11  and  C_12
REMARK    4  A    between atoms: C_12  and  N_13
REMARK    5  A    between atoms: C_14  and  C_25
REMARK                            x       y       z     vdW  Elec       q    Type
REMARK                         _______ _______ _______ _____ _____    ______ ____
ROOT
ATOM      1  C   UNL     1       1.384   1.162  -5.906  0.00  0.00    +0.114 C 
ENDROOT
BRANCH   1   2
ATOM      2  N   UNL     1       2.745   1.103  -6.445  0.00  0.00    -0.279 N 
ATOM      3  C   UNL     1       2.971   1.392  -7.861  0.00  0.00    +0.158 C 
ATOM      4  N   UNL     1       4.279   2.029  -8.049  0.00  0.00    -0.325 N 
ATOM      5  C   UNL     1       5.375   1.524  -7.358  0.00  0.00    +0.041 A 
ATOM      6  C   UNL     1       6.662   1.625  -7.859  0.00  0.00    +0.024 A 
ATOM      7  C   UNL     1       7.721   1.118  -7.131  0.00  0.00    +0.002 A 
ATOM      8  C   UNL     1       7.506   0.510  -5.904  0.00  0.00    +0.001 A 
ATOM      9  C   UNL     1       6.229   0.397  -5.393  0.00  0.00    +0.015 A 
ATOM     10  C   UNL     1       5.152   0.900  -6.119  0.00  0.00    +0.058 A 
ATOM     11  C   UNL     1       3.768   0.788  -5.626  0.00  0.00    +0.250 C 
ATOM     12  O   UNL     1       3.551   0.410  -4.490  0.00  0.00    -0.270 OA
ATOM     13  C   UNL     1       2.929   0.086  -8.658  0.00  0.00    +0.049 C 
ATOM     14  H   UNL     1       4.378   2.789  -8.644  0.00  0.00    +0.148 HD
ENDBRANCH   1   2
BRANCH   1  15
ATOM     15  C   UNL     1       1.093   2.580  -5.410  0.00  0.00    +0.056 C 
BRANCH  15  23
ATOM     16  C   UNL     1      -0.013   1.086   0.008  0.00  0.00    +0.044 C 
ATOM     17  C   UNL     1      -0.742   1.585  -1.213  0.00  0.00    -0.050 A 
ATOM     18  C   UNL     1      -2.112   1.796  -1.158  0.00  0.00    +0.005 A 
ATOM     19  C   UNL     1      -2.798   2.251  -2.263  0.00  0.00    +0.026 A 
ATOM     20  C   UNL     1      -2.112   2.504  -3.446  0.00  0.00    +0.047 A 
ATOM     21  N   UNL     1      -2.498   2.952  -4.689  0.00  0.00    -0.360 N 
ATOM     22  C   UNL     1      -1.411   3.028  -5.516  0.00  0.00    +0.087 A 
ATOM     23  C   UNL     1      -0.307   2.641  -4.856  0.00  0.00    -0.021 A 
ATOM     24  C   UNL     1      -0.722   2.289  -3.496  0.00  0.00    +0.003 A 
ATOM     25  C   UNL     1      -0.047   1.832  -2.363  0.00  0.00    +0.013 A 
ATOM     26  H   UNL     1      -3.407   3.180  -4.942  0.00  0.00    +0.165 HD
ENDBRANCH  15  23
ENDBRANCH   1  15
TORSDOF 3
