REMARK  Name = ZINC35665974
REMARK  14 active torsions:
REMARK  status: ('A' for Active; 'I' for Inactive)
REMARK    1  A    between atoms: C_1  and  C_2
REMARK    2  A    between atoms: C_2  and  N_3
REMARK    3  A    between atoms: N_6  and  C_7
REMARK    4  A    between atoms: N_6  and  C_12
REMARK    5  A    between atoms: C_7  and  C_8
REMARK    6  A    between atoms: C_8  and  N_9
REMARK    7  A    between atoms: N_9  and  C_10
REMARK    8  A    between atoms: N_9  and  C_11
REMARK    9  A    between atoms: C_12  and  C_13
REMARK   10  A    between atoms: C_16  and  S_25
REMARK   11  A    between atoms: N_17  and  C_18
REMARK   12  A    between atoms: C_18  and  C_19
REMARK   13  A    between atoms: S_25  and  C_28
REMARK   14  A    between atoms: C_28  and  C_29
REMARK                            x       y       z     vdW  Elec       q    Type
REMARK                         _______ _______ _______ _____ _____    ______ ____
ROOT
ATOM      1  C   UNL     1      -3.849  -0.996  -1.571  0.00  0.00    +0.057 A 
ATOM      2  C   UNL     1      -4.819  -1.235  -2.474  0.00  0.00    +0.137 A 
ATOM      3  N   UNL     1      -4.767  -0.270  -3.404  0.00  0.00    -0.220 NA
ATOM      4  C   UNL     1      -3.803   0.558  -3.111  0.00  0.00    +0.252 A 
ATOM      5  N   UNL     1      -3.208   0.145  -1.972  0.00  0.00    -0.309 N 
ENDROOT
BRANCH   4   6
ATOM      6  S   UNL     1      -3.354   1.983  -4.046  0.00  0.00    +0.034 S 
ATOM      7  O   UNL     1      -1.980   2.192  -3.752  0.00  0.00    -0.166 OA
ATOM      8  O   UNL     1      -3.777   1.696  -5.372  0.00  0.00    -0.166 OA
BRANCH   6   9
ATOM      9  C   UNL     1      -4.352   3.329  -3.350  0.00  0.00    +0.210 C 
BRANCH   9  10
ATOM     10  C   UNL     1      -4.047   4.611  -4.082  0.00  0.00    -0.026 A 
ATOM     11  C   UNL     1      -3.032   5.436  -3.635  0.00  0.00    +0.008 A 
ATOM     12  C   UNL     1      -2.750   6.611  -4.306  0.00  0.00    +0.038 A 
ATOM     13  C   UNL     1      -3.486   6.962  -5.425  0.00  0.00    +0.123 A 
ATOM     14  C   UNL     1      -4.502   6.135  -5.872  0.00  0.00    +0.038 A 
ATOM     15  C   UNL     1      -4.779   4.957  -5.203  0.00  0.00    +0.008 A 
ATOM     16  F   UNL     1      -3.212   8.111  -6.081  0.00  0.00    -0.205 F 
ENDBRANCH   9  10
ENDBRANCH   6   9
ENDBRANCH   4   6
BRANCH   1  17
ATOM     17  C   UNL     1      -3.534  -1.822  -0.350  0.00  0.00    +0.164 C 
BRANCH  17  21
ATOM     18  N   UNL     1      -6.040  -2.748   0.336  0.00  0.00    -0.299 N 
ATOM     19  C   UNL     1      -5.473  -1.815   1.126  0.00  0.00    +0.302 C 
ATOM     20  O   UNL     1      -6.043  -1.444   2.134  0.00  0.00    -0.253 OA
ATOM     21  N   UNL     1      -4.273  -1.294   0.800  0.00  0.00    -0.282 N 
ATOM     22  H   UNL     1      -5.554  -3.097  -0.427  0.00  0.00    +0.150 HD
BRANCH  18  24
ATOM     23  C   UNL     1      -7.746  -4.367  -0.335  0.00  0.00    +0.024 C 
ATOM     24  C   UNL     1      -7.390  -3.234   0.631  0.00  0.00    +0.102 C 
ENDBRANCH  18  24
BRANCH  21  25
ATOM     25  C   UNL     1      -3.708  -0.201   1.595  0.00  0.00    +0.091 C 
BRANCH  25  26
ATOM     26  C   UNL     1      -2.746  -0.773   2.637  0.00  0.00    -0.060 C 
BRANCH  26  27
ATOM     27  N   UNL     1      -2.179   0.323   3.435  0.00  0.00    +0.377 N 
ATOM     28  C   UNL     1      -3.248   0.970   4.207  0.00  0.00    -0.097 C 
ATOM     29  C   UNL     1      -1.167  -0.213   4.354  0.00  0.00    -0.097 C 
ATOM     30  H   UNL     1      -1.751   0.999   2.820  0.00  0.00    -0.083 HD
ENDBRANCH  26  27
ENDBRANCH  25  26
ENDBRANCH  21  25
ENDBRANCH  17  21
ENDBRANCH   1  17
BRANCH   5  31
ATOM     31  C   UNL     1      -2.084   0.795  -1.292  0.00  0.00    +0.156 C 
BRANCH  31  32
ATOM     32  C   UNL     1      -0.776   0.118  -1.708  0.00  0.00    +0.138 C 
ATOM     33  C   UNL     1       0.405   0.743  -0.935  0.00  0.00    +0.035 C 
ATOM     34  C   UNL     1       1.516   0.798  -2.020  0.00  0.00    +0.031 C 
ATOM     35  C   UNL     1       0.673   1.077  -3.290  0.00  0.00    +0.160 C 
ATOM     36  O   UNL     1      -0.542   0.330  -3.106  0.00  0.00    -0.375 OA
ENDBRANCH  31  32
ENDBRANCH   5  31
TORSDOF 11
