REMARK  Name = ZINC54548527
REMARK  15 active torsions:
REMARK  status: ('A' for Active; 'I' for Inactive)
REMARK    1  A    between atoms: C_1  and  C_2
REMARK    2  A    between atoms: C_2  and  O_3
REMARK    3  A    between atoms: O_3  and  C_4
REMARK    4  A    between atoms: C_4  and  C_5
REMARK    5  A    between atoms: C_5  and  C_6
REMARK    6  A    between atoms: C_6  and  N_7
REMARK    7  A    between atoms: C_8  and  C_10
REMARK    8  A    between atoms: N_13  and  C_16
REMARK    9  A    between atoms: C_16  and  C_17
REMARK   10  A    between atoms: C_19  and  C_25
REMARK   11  A    between atoms: C_21  and  O_24
REMARK   12  A    between atoms: C_22  and  O_23
REMARK   13  A    between atoms: C_25  and  C_26
REMARK   14  A    between atoms: C_25  and  C_27
REMARK   15  A    between atoms: C_25  and  C_28
REMARK                            x       y       z     vdW  Elec       q    Type
REMARK                         _______ _______ _______ _____ _____    ______ ____
ROOT
ATOM      1  C   UNL     1       3.170  -5.820  -5.499  0.00  0.00    +0.071 C 
ATOM      2  C   UNL     1       4.589  -5.244  -5.470  0.00  0.00    -0.006 C 
ATOM      3  C   UNL     1       5.341  -5.692  -6.725  0.00  0.00    -0.078 C 
ATOM      4  N   UNL     1       5.407  -7.157  -6.763  0.00  0.00    +0.382 N 
ATOM      5  C   UNL     1       4.053  -7.715  -6.864  0.00  0.00    -0.078 C 
ATOM      6  C   UNL     1       3.251  -7.345  -5.614  0.00  0.00    -0.006 C 
ATOM      7  H   UNL     1       5.847  -7.495  -5.921  0.00  0.00    -0.081 HD
ENDROOT
BRANCH   1   9
ATOM      8  N   UNL     1       2.259  -4.151  -3.917  0.00  0.00    -0.315 N 
ATOM      9  C   UNL     1       2.449  -5.448  -4.229  0.00  0.00    +0.216 C 
ATOM     10  O   UNL     1       2.039  -6.316  -3.488  0.00  0.00    -0.276 OA
ATOM     11  H   UNL     1       2.587  -3.456  -4.510  0.00  0.00    +0.149 HD
BRANCH   8  12
ATOM     12  C   UNL     1       1.558  -3.789  -2.683  0.00  0.00    +0.106 C 
BRANCH  12  13
ATOM     13  C   UNL     1       1.478  -2.265  -2.569  0.00  0.00    +0.047 C 
BRANCH  13  14
ATOM     14  C   UNL     1       0.746  -1.888  -1.280  0.00  0.00    +0.161 C 
BRANCH  14  15
ATOM     15  O   UNL     1       0.671  -0.465  -1.174  0.00  0.00    -0.380 OA
BRANCH  15  17
ATOM     16  C   UNL     1      -0.019   1.526   0.010  0.00  0.00    +0.034 C 
ATOM     17  C   UNL     1       0.002  -0.004   0.002  0.00  0.00    +0.156 C 
ENDBRANCH  15  17
ENDBRANCH  14  15
ENDBRANCH  13  14
ENDBRANCH  12  13
ENDBRANCH   8  12
ENDBRANCH   1   9
BRANCH   4  18
ATOM     18  C   UNL     1       6.197  -7.580  -7.928  0.00  0.00    -0.039 C 
BRANCH  18  19
ATOM     19  C   UNL     1       6.369  -9.077  -7.901  0.00  0.00    -0.019 A 
ATOM     20  C   UNL     1       5.644  -9.872  -8.770  0.00  0.00    +0.009 A 
ATOM     21  C   UNL     1       5.800 -11.245  -8.748  0.00  0.00    -0.038 A 
ATOM     22  C   UNL     1       6.681 -11.830  -7.857  0.00  0.00    +0.053 A 
ATOM     23  C   UNL     1       7.410 -11.039  -6.984  0.00  0.00    +0.159 A 
ATOM     24  C   UNL     1       7.258  -9.656  -7.011  0.00  0.00    +0.160 A 
BRANCH  21  25
ATOM     25  C   UNL     1       5.008 -12.107  -9.697  0.00  0.00    -0.013 C 
ATOM     26  C   UNL     1       5.342 -11.719 -11.139  0.00  0.00    +0.015 C 
ATOM     27  C   UNL     1       5.364 -13.577  -9.470  0.00  0.00    +0.015 C 
ATOM     28  C   UNL     1       3.513 -11.899  -9.447  0.00  0.00    +0.015 C 
ENDBRANCH  21  25
BRANCH  24  29
ATOM     29  O   UNL     1       7.976  -8.875  -6.159  0.00  0.00    -0.503 OA
ATOM     30  H   UNL     1       7.539  -8.713  -5.312  0.00  0.00    +0.292 HD
ENDBRANCH  24  29
BRANCH  23  31
ATOM     31  O   UNL     1       8.277 -11.613  -6.107  0.00  0.00    -0.503 OA
ATOM     32  H   UNL     1       9.175 -11.715  -6.452  0.00  0.00    +0.292 HD
ENDBRANCH  23  31
ENDBRANCH  18  19
ENDBRANCH   4  18
TORSDOF 11
