REMARK  Name = ZINC13363960
REMARK  9 active torsions:
REMARK  status: ('A' for Active; 'I' for Inactive)
REMARK    1  A    between atoms: C_1  and  C_2
REMARK    2  A    between atoms: C_5  and  C_30
REMARK    3  A    between atoms: C_6  and  C_8
REMARK    4  A    between atoms: C_8  and  N_64
REMARK    5  A    between atoms: C_11  and  C_14
REMARK    6  A    between atoms: C_14  and  N_15
REMARK    7  A    between atoms: N_18  and  C_19
REMARK    8  A    between atoms: C_19  and  C_20
REMARK    9  A    between atoms: C_20  and  C_21
REMARK                            x       y       z     vdW  Elec       q    Type
REMARK                         _______ _______ _______ _____ _____    ______ ____
ROOT
ATOM      1  C   UNL     1      10.709  -2.025   0.989  0.00  0.00    +0.109 C 
ENDROOT
BRANCH   1   4
ATOM      2  C   UNL     1      14.479  -2.576   1.541  0.00  0.00    -0.078 C 
ATOM      3  C   UNL     1      13.138  -2.585   0.802  0.00  0.00    -0.014 C 
ATOM      4  C   UNL     1      12.040  -2.076   1.741  0.00  0.00    +0.003 C 
ATOM      5  C   UNL     1      12.407  -0.671   2.227  0.00  0.00    -0.014 C 
ATOM      6  C   UNL     1      13.769  -0.717   2.925  0.00  0.00    -0.078 C 
ATOM      7  N   UNL     1      14.785  -1.192   1.962  0.00  0.00    +0.382 N 
ATOM      8  H   UNL     1      14.772  -0.582   1.136  0.00  0.00    -0.081 HD
BRANCH   7   9
ATOM      9  C   UNL     1      16.127  -1.137   2.577  0.00  0.00    -0.043 C 
BRANCH   9  15
ATOM     10  C   UNL     1      16.990   2.967   5.307  0.00  0.00    +0.044 C 
ATOM     11  C   UNL     1      16.972   2.267   3.972  0.00  0.00    -0.050 A 
ATOM     12  C   UNL     1      17.353   2.947   2.830  0.00  0.00    +0.003 A 
ATOM     13  C   UNL     1      17.336   2.305   1.606  0.00  0.00    +0.004 A 
ATOM     14  C   UNL     1      16.945   0.981   1.525  0.00  0.00    -0.049 A 
ATOM     15  C   UNL     1      16.559   0.304   2.666  0.00  0.00    -0.061 A 
ATOM     16  C   UNL     1      16.576   0.946   3.890  0.00  0.00    +0.005 A 
ATOM     17  C   UNL     1      16.933   0.280   0.192  0.00  0.00    +0.044 C 
ENDBRANCH   9  15
ENDBRANCH   7   9
ENDBRANCH   1   4
BRANCH   1  18
ATOM     18  N   UNL     1       9.638  -1.652   1.917  0.00  0.00    -0.299 N 
ATOM     19  C   UNL     1       8.370  -1.545   1.475  0.00  0.00    +0.300 C 
ATOM     20  O   UNL     1       8.114  -1.757   0.305  0.00  0.00    -0.253 OA
ATOM     21  N   UNL     1       7.385  -1.202   2.329  0.00  0.00    -0.299 N 
ATOM     22  H   UNL     1       9.842  -1.483   2.850  0.00  0.00    +0.150 HD
ATOM     23  H   UNL     1       7.589  -1.033   3.262  0.00  0.00    +0.150 HD
BRANCH  21  24
ATOM     24  C   UNL     1       6.006  -1.085   1.847  0.00  0.00    +0.110 C 
BRANCH  24  25
ATOM     25  C   UNL     1       5.093  -0.687   3.009  0.00  0.00    +0.054 C 
BRANCH  25  26
ATOM     26  C   UNL     1       3.674  -0.567   2.514  0.00  0.00    -0.042 A 
ATOM     27  C   UNL     1       2.840  -1.669   2.538  0.00  0.00    +0.007 A 
ATOM     28  C   UNL     1       1.538  -1.564   2.085  0.00  0.00    +0.050 A 
ATOM     29  C   UNL     1       1.067  -0.353   1.605  0.00  0.00    +0.166 A 
ATOM     30  C   UNL     1       1.907   0.757   1.581  0.00  0.00    +0.166 A 
ATOM     31  C   UNL     1       3.211   0.645   2.037  0.00  0.00    +0.053 A 
ATOM     32  O   UNL     1       1.215   1.817   1.071  0.00  0.00    -0.453 OA
ATOM     33  C   UNL     1      -0.174   1.450   1.163  0.00  0.00    +0.466 C 
ATOM     34  O   UNL     1      -0.152   0.012   1.109  0.00  0.00    -0.453 OA
ENDBRANCH  25  26
ENDBRANCH  24  25
ENDBRANCH  21  24
ENDBRANCH   1  18
TORSDOF 7
