REMARK  Name = ZINC16196048
REMARK  7 active torsions:
REMARK  status: ('A' for Active; 'I' for Inactive)
REMARK    1  A    between atoms: C_1  and  O_2
REMARK    2  A    between atoms: O_2  and  C_3
REMARK    3  A    between atoms: C_5  and  C_10
REMARK    4  A    between atoms: C_8  and  O_9
REMARK    5  A    between atoms: C_11  and  N_19
REMARK    6  A    between atoms: C_20  and  C_21
REMARK    7  A    between atoms: C_24  and  C_26
REMARK                            x       y       z     vdW  Elec       q    Type
REMARK                         _______ _______ _______ _____ _____    ______ ____
ROOT
ATOM      1  C   UNL     1       2.457   0.307   4.193  0.00  0.00    +0.091 A 
ATOM      2  C   UNL     1       3.719   0.102   4.751  0.00  0.00    +0.163 A 
ATOM      3  N   UNL     1       3.882   1.074   5.713  0.00  0.00    -0.286 N 
ATOM      4  C   UNL     1       4.908   1.358   6.568  0.00  0.00    +0.094 A 
ATOM      5  C   UNL     1       4.817   2.390   7.434  0.00  0.00    +0.018 A 
ATOM      6  C   UNL     1       3.661   3.187   7.465  0.00  0.00    +0.005 A 
ATOM      7  C   UNL     1       2.630   2.915   6.618  0.00  0.00    +0.045 A 
ATOM      8  C   UNL     1       2.739   1.834   5.720  0.00  0.00    +0.117 A 
ATOM      9  N   UNL     1       1.905   1.363   4.802  0.00  0.00    -0.338 N 
ATOM     10  H   UNL     1       1.028   1.727   4.603  0.00  0.00    +0.167 HD
ENDROOT
BRANCH   1  13
ATOM     11  C   UNL     1       0.626  -0.619   1.042  0.00  0.00    +0.162 A 
ATOM     12  C   UNL     1       1.201   0.137   2.048  0.00  0.00    +0.059 A 
ATOM     13  C   UNL     1       1.840  -0.497   3.114  0.00  0.00    +0.006 A 
ATOM     14  C   UNL     1       1.898  -1.891   3.160  0.00  0.00    +0.014 A 
ATOM     15  C   UNL     1       1.323  -2.639   2.154  0.00  0.00    +0.050 A 
ATOM     16  C   UNL     1       0.682  -2.009   1.097  0.00  0.00    +0.158 A 
BRANCH  11  18
ATOM     17  C   UNL     1      -0.017   1.425   0.010  0.00  0.00    +0.277 C 
ATOM     18  O   UNL     1       0.002  -0.004   0.002  0.00  0.00    -0.491 OA
ENDBRANCH  11  18
BRANCH  16  19
ATOM     19  O   UNL     1       0.112  -2.751   0.111  0.00  0.00    -0.503 OA
ATOM     20  H   UNL     1       0.708  -2.953  -0.624  0.00  0.00    +0.292 HD
ENDBRANCH  16  19
ENDBRANCH   1  13
BRANCH   2  21
ATOM     21  N   UNL     1       4.604  -0.858   4.416  0.00  0.00    -0.232 NA
ATOM     22  C   UNL     1       4.578  -2.018   5.030  0.00  0.00    +0.159 C 
BRANCH  22  23
ATOM     23  C   UNL     1       5.506  -3.025   4.678  0.00  0.00    +0.147 A 
ATOM     24  C   UNL     1       5.586  -4.286   5.237  0.00  0.00    +0.051 A 
ATOM     25  C   UNL     1       6.639  -4.946   4.594  0.00  0.00    +0.050 A 
ATOM     26  C   UNL     1       7.159  -4.077   3.678  0.00  0.00    +0.138 A 
ATOM     27  O   UNL     1       6.465  -2.924   3.733  0.00  0.00    -0.454 OA
BRANCH  26  28
ATOM     28  C   UNL     1       8.290  -4.356   2.773  0.00  0.00    +0.053 A 
ATOM     29  C   UNL     1       9.479  -4.888   3.280  0.00  0.00    +0.017 A 
ATOM     30  C   UNL     1      10.533  -5.147   2.430  0.00  0.00    +0.039 A 
ATOM     31  C   UNL     1      10.416  -4.883   1.074  0.00  0.00    +0.126 A 
ATOM     32  C   UNL     1       9.241  -4.355   0.563  0.00  0.00    +0.077 A 
ATOM     33  C   UNL     1       8.176  -4.096   1.403  0.00  0.00    +0.137 A 
ATOM     34  F   UNL     1       7.028  -3.587   0.904  0.00  0.00    -0.205 F 
ATOM     35  F   UNL     1      11.453  -5.140   0.247  0.00  0.00    -0.205 F 
ENDBRANCH  26  28
ENDBRANCH  22  23
ENDBRANCH   2  21
TORSDOF 6
