REMARK  Name = ZINC11969249
REMARK  5 active torsions:
REMARK  status: ('A' for Active; 'I' for Inactive)
REMARK    1  A    between atoms: C_5  and  C_7
REMARK    2  A    between atoms: C_7  and  C_8
REMARK    3  A    between atoms: C_8  and  C_15
REMARK    4  A    between atoms: C_20  and  C_21
REMARK    5  A    between atoms: C_20  and  N_57
REMARK                            x       y       z     vdW  Elec       q    Type
REMARK                         _______ _______ _______ _____ _____    ______ ____
ROOT
ATOM      1  C   UNL     1      -1.654  -2.535   7.695  0.00  0.00    +0.119 C 
ATOM      2  C   UNL     1      -1.173  -2.597   9.131  0.00  0.00    +0.245 C 
ATOM      3  O   UNL     1      -0.029  -2.710   9.515  0.00  0.00    -0.273 OA
ATOM      4  N   UNL     1      -2.281  -2.498   9.891  0.00  0.00    -0.238 N 
ATOM      5  C   UNL     1      -3.384  -2.384   9.143  0.00  0.00    +0.307 C 
ATOM      6  O   UNL     1      -4.505  -2.280   9.603  0.00  0.00    -0.252 OA
ATOM      7  N   UNL     1      -3.115  -2.396   7.825  0.00  0.00    -0.284 N 
ATOM      8  H   UNL     1      -2.279  -2.507  10.861  0.00  0.00    +0.159 HD
ATOM      9  H   UNL     1      -3.757  -2.326   7.101  0.00  0.00    +0.151 HD
ENDROOT
BRANCH   1  10
ATOM     10  C   UNL     1      -1.059  -1.321   6.979  0.00  0.00    +0.018 C 
ATOM     11  C   UNL     1      -1.474  -0.042   7.710  0.00  0.00    -0.013 C 
ATOM     12  C   UNL     1      -0.926   1.172   6.956  0.00  0.00    -0.078 C 
ATOM     13  C   UNL     1      -1.028  -0.019   4.848  0.00  0.00    -0.078 C 
ATOM     14  C   UNL     1      -1.580  -1.268   5.540  0.00  0.00    -0.013 C 
ATOM     15  N   UNL     1      -1.483   1.178   5.587  0.00  0.00    +0.382 N 
ATOM     16  H   UNL     1      -2.508   1.164   5.645  0.00  0.00    -0.081 HD
BRANCH  15  17
ATOM     17  C   UNL     1      -1.060   2.401   4.875  0.00  0.00    -0.043 C 
BRANCH  17  18
ATOM     18  C   UNL     1      -1.402   2.266   3.414  0.00  0.00    -0.063 A 
ATOM     19  C   UNL     1      -2.640   2.673   2.951  0.00  0.00    +0.005 A 
ATOM     20  C   UNL     1      -2.960   2.548   1.615  0.00  0.00    +0.046 A 
ATOM     21  C   UNL     1      -2.038   2.010   0.720  0.00  0.00    +0.124 A 
ATOM     22  C   UNL     1      -0.795   1.611   1.196  0.00  0.00    -0.002 A 
ATOM     23  C   UNL     1      -0.480   1.733   2.531  0.00  0.00    +0.009 A 
ATOM     24  C   UNL     1      -0.013   1.086   0.008  0.00  0.00    +0.080 C 
ATOM     25  C   UNL     1      -0.834   1.634  -1.183  0.00  0.00    +0.234 C 
ATOM     26  O   UNL     1      -2.147   1.791  -0.619  0.00  0.00    -0.491 OA
ENDBRANCH  17  18
ENDBRANCH  15  17
ENDBRANCH   1  10
BRANCH   1  27
ATOM     27  C   UNL     1      -1.297  -3.825   6.952  0.00  0.00    +0.073 C 
BRANCH  27  32
ATOM     28  C   UNL     1      -1.974  -6.815   9.155  0.00  0.00    +0.000 A 
ATOM     29  C   UNL     1      -3.274  -7.130   8.804  0.00  0.00    +0.003 A 
ATOM     30  C   UNL     1      -3.935  -6.376   7.854  0.00  0.00    +0.038 A 
ATOM     31  C   UNL     1      -3.296  -5.304   7.253  0.00  0.00    +0.127 A 
ATOM     32  C   UNL     1      -1.995  -4.990   7.605  0.00  0.00    -0.010 A 
ATOM     33  C   UNL     1      -1.333  -5.749   8.552  0.00  0.00    +0.006 A 
ATOM     34  F   UNL     1      -3.942  -4.566   6.323  0.00  0.00    -0.205 F 
ENDBRANCH  27  32
ENDBRANCH   1  27
TORSDOF 5
