REMARK  Name = ZINC41584263
REMARK  13 active torsions:
REMARK  status: ('A' for Active; 'I' for Inactive)
REMARK    1  A    between atoms: C_1  and  C_2
REMARK    2  A    between atoms: C_2  and  C_3
REMARK    3  A    between atoms: C_3  and  C_4
REMARK    4  A    between atoms: C_4  and  N_5
REMARK    5  A    between atoms: N_5  and  C_6
REMARK    6  A    between atoms: N_5  and  C_10
REMARK    7  A    between atoms: C_6  and  C_7
REMARK    8  A    between atoms: C_7  and  C_8
REMARK    9  A    between atoms: C_8  and  C_9
REMARK   10  A    between atoms: C_10  and  C_11
REMARK   11  A    between atoms: C_12  and  O_30
REMARK   12  A    between atoms: C_18  and  C_29
REMARK   13  A    between atoms: C_19  and  C_22
REMARK                            x       y       z     vdW  Elec       q    Type
REMARK                         _______ _______ _______ _____ _____    ______ ____
ROOT
ATOM      1  C   UNL     1      -4.548  -4.902  -0.058  0.00  0.00    +0.020 A 
ATOM      2  C   UNL     1      -5.359  -4.902   1.065  0.00  0.00    +0.122 A 
ATOM      3  C   UNL     1      -6.733  -5.101   0.948  0.00  0.00    +0.046 A 
ATOM      4  C   UNL     1      -7.299  -5.296  -0.280  0.00  0.00    +0.019 A 
ATOM      5  C   UNL     1      -6.495  -5.296  -1.419  0.00  0.00    +0.065 A 
ATOM      6  C   UNL     1      -5.107  -5.097  -1.314  0.00  0.00    +0.144 A 
ATOM      7  O   UNL     1      -4.332  -5.108  -2.416  0.00  0.00    -0.459 OA
ATOM      8  C   UNL     1      -4.850  -4.997  -3.640  0.00  0.00    +0.114 A 
ATOM      9  C   UNL     1      -6.173  -5.173  -3.898  0.00  0.00    +0.067 A 
ATOM     10  C   UNL     1      -7.066  -5.495  -2.765  0.00  0.00    +0.200 A 
ATOM     11  O   UNL     1      -8.208  -5.887  -2.932  0.00  0.00    -0.286 OA
ATOM     12  C   UNL     1      -3.930  -4.661  -4.786  0.00  0.00    +0.087 C 
ENDROOT
BRANCH   9  13
ATOM     13  C   UNL     1      -6.702  -5.057  -5.278  0.00  0.00    -0.011 A 
ATOM     14  C   UNL     1      -6.699  -3.823  -5.927  0.00  0.00    +0.010 A 
ATOM     15  C   UNL     1      -7.192  -3.721  -7.212  0.00  0.00    +0.020 A 
ATOM     16  C   UNL     1      -7.691  -4.840  -7.856  0.00  0.00    +0.041 A 
ATOM     17  C   UNL     1      -7.697  -6.067  -7.215  0.00  0.00    +0.020 A 
ATOM     18  C   UNL     1      -7.200  -6.182  -5.933  0.00  0.00    +0.010 A 
ATOM     19 CL   UNL     1      -8.310  -4.704  -9.472  0.00  0.00    -0.084 Cl
ENDBRANCH   9  13
BRANCH   2  20
ATOM     20  O   UNL     1      -4.811  -4.706   2.291  0.00  0.00    -0.506 OA
ATOM     21  H   UNL     1      -4.770  -3.778   2.559  0.00  0.00    +0.292 HD
ENDBRANCH   2  20
BRANCH   1  22
ATOM     22  C   UNL     1      -3.063  -4.686   0.084  0.00  0.00    -0.036 C 
BRANCH  22  23
ATOM     23  N   UNL     1      -2.747  -3.275  -0.178  0.00  0.00    +0.383 N 
ATOM     24  H   UNL     1      -3.095  -3.016  -1.089  0.00  0.00    -0.081 HD
BRANCH  23  25
ATOM     25  C   UNL     1      -3.380  -2.433   0.845  0.00  0.00    -0.078 C 
BRANCH  25  26
ATOM     26  C   UNL     1      -3.155  -0.959   0.503  0.00  0.00    -0.019 C 
BRANCH  26  28
ATOM     27  C   UNL     1      -3.589   1.392   1.228  0.00  0.00    +0.004 C 
ATOM     28  C   UNL     1      -3.814  -0.082   1.570  0.00  0.00    -0.005 C 
ENDBRANCH  26  28
ENDBRANCH  25  26
ENDBRANCH  23  25
BRANCH  23  29
ATOM     29  C   UNL     1      -1.291  -3.085  -0.138  0.00  0.00    -0.078 C 
BRANCH  29  30
ATOM     30  C   UNL     1      -0.643  -3.853  -1.292  0.00  0.00    -0.019 C 
BRANCH  30  31
ATOM     31  C   UNL     1       0.876  -3.687  -1.227  0.00  0.00    -0.005 C 
ATOM     32  C   UNL     1       1.530  -4.550  -2.307  0.00  0.00    +0.004 C 
ENDBRANCH  30  31
ENDBRANCH  29  30
ENDBRANCH  23  29
ENDBRANCH  22  23
ENDBRANCH   1  22
TORSDOF 10
