REMARK  Name = ZINC22807559
REMARK  12 active torsions:
REMARK  status: ('A' for Active; 'I' for Inactive)
REMARK    1  A    between atoms: C_1  and  C_2
REMARK    2  A    between atoms: C_2  and  O_3
REMARK    3  A    between atoms: O_3  and  C_4
REMARK    4  A    between atoms: C_4  and  C_6
REMARK    5  A    between atoms: C_10  and  N_11
REMARK    6  A    between atoms: C_12  and  C_14
REMARK    7  A    between atoms: C_14  and  N_15
REMARK    8  A    between atoms: N_18  and  C_21
REMARK    9  A    between atoms: C_21  and  C_23
REMARK   10  A    between atoms: C_21  and  C_24
REMARK   11  A    between atoms: N_26  and  C_27
REMARK   12  A    between atoms: C_31  and  C_35
REMARK                            x       y       z     vdW  Elec       q    Type
REMARK                         _______ _______ _______ _____ _____    ______ ____
ROOT
ATOM      1  N   UNL     1       3.537   4.516  -2.775  0.00  0.00    -0.278 N 
ATOM      2  C   UNL     1       3.112   5.308  -3.780  0.00  0.00    +0.232 C 
ATOM      3  O   UNL     1       2.784   6.453  -3.552  0.00  0.00    -0.274 OA
ATOM      4  H   UNL     1       3.833   3.477  -2.982  0.00  0.00    +0.155 HD
ENDROOT
BRANCH   1   9
ATOM      5  C   UNL     1       4.005   4.356  -0.326  0.00  0.00    +0.091 A 
ATOM      6  C   UNL     1       3.971   5.108   0.917  0.00  0.00    -0.021 A 
ATOM      7  C   UNL     1       3.550   6.386   0.806  0.00  0.00    -0.004 A 
ATOM      8  S   UNL     1       3.189   6.596  -0.914  0.00  0.00    -0.077 S 
ATOM      9  C   UNL     1       3.599   5.011  -1.482  0.00  0.00    +0.086 A 
ATOM     10  C   UNL     1       3.417   7.392   1.907  0.00  0.00    +0.046 C 
ATOM     11  C   UNL     1       4.178   6.873   3.133  0.00  0.00    -0.009 C 
ATOM     12  C   UNL     1       3.796   5.410   3.375  0.00  0.00    +0.008 C 
ATOM     13  C   UNL     1       4.378   4.530   2.268  0.00  0.00    +0.037 C 
ATOM     14  C   UNL     1       3.810   7.709   4.360  0.00  0.00    +0.008 C 
BRANCH   5  15
ATOM     15  C   UNL     1       4.446   2.960  -0.359  0.00  0.00    +0.342 C 
ATOM     16  O   UNL     1       5.619   2.697  -0.541  0.00  0.00    -0.245 OA
BRANCH  15  17
ATOM     17  O   UNL     1       3.550   1.966  -0.186  0.00  0.00    -0.461 OA
BRANCH  17  19
ATOM     18  C   UNL     1       2.904  -0.375  -0.017  0.00  0.00    +0.048 C 
ATOM     19  C   UNL     1       4.058   0.607  -0.231  0.00  0.00    +0.229 C 
ENDBRANCH  17  19
ENDBRANCH  15  17
ENDBRANCH   5  15
ENDBRANCH   1   9
BRANCH   2  20
ATOM     20  C   UNL     1       3.044   4.770  -5.186  0.00  0.00    +0.180 C 
BRANCH  20  21
ATOM     21  N   UNL     1       2.554   5.820  -6.089  0.00  0.00    -0.298 NA
ATOM     22  C   UNL     1       1.159   6.168  -5.783  0.00  0.00    +0.066 C 
ATOM     23  C   UNL     1       0.713   7.318  -6.691  0.00  0.00    -0.062 C 
ATOM     24  N   UNL     1       0.856   6.913  -8.096  0.00  0.00    +0.389 N 
ATOM     25  C   UNL     1       2.251   6.564  -8.401  0.00  0.00    -0.062 C 
ATOM     26  C   UNL     1       2.697   5.415  -7.494  0.00  0.00    +0.066 C 
ATOM     27  H   UNL     1       0.239   6.016  -8.256  0.00  0.00    -0.081 HD
BRANCH  24  28
ATOM     28  C   UNL     1       0.366   7.963  -8.999  0.00  0.00    +0.016 C 
ATOM     29  C   UNL     1      -1.056   8.359  -8.596  0.00  0.00    -0.004 C 
BRANCH  28  30
ATOM     30  C   UNL     1       0.362   7.446 -10.415  0.00  0.00    +0.199 C 
ATOM     31  O   UNL     1       0.242   6.258 -10.626  0.00  0.00    -0.278 OA
ATOM     32  N   UNL     1       0.492   8.305 -11.445  0.00  0.00    -0.314 N 
ATOM     33  H   UNL     1       0.601   9.382 -11.253  0.00  0.00    +0.149 HD
BRANCH  32  34
ATOM     34  C   UNL     1       0.488   7.803 -12.822  0.00  0.00    +0.073 C 
ATOM     35  C   UNL     1       1.529   8.375 -13.786  0.00  0.00    +0.024 C 
ATOM     36  C   UNL     1       0.057   8.771 -13.925  0.00  0.00    +0.024 C 
ENDBRANCH  32  34
ENDBRANCH  28  30
ENDBRANCH  24  28
ENDBRANCH  20  21
ENDBRANCH   2  20
TORSDOF 9
