REMARK  Name = ZINC39703816
REMARK  11 active torsions:
REMARK  status: ('A' for Active; 'I' for Inactive)
REMARK    1  A    between atoms: C_1  and  C_2
REMARK    2  A    between atoms: C_2  and  O_3
REMARK    3  A    between atoms: O_3  and  C_4
REMARK    4  A    between atoms: C_4  and  C_6
REMARK    5  A    between atoms: C_8  and  N_16
REMARK    6  A    between atoms: C_17  and  C_19
REMARK    7  A    between atoms: C_19  and  S_20
REMARK    8  A    between atoms: S_20  and  C_21
REMARK    9  A    between atoms: C_25  and  C_28
REMARK   10  A    between atoms: C_28  and  C_29
REMARK   11  A    between atoms: C_29  and  C_30
REMARK                            x       y       z     vdW  Elec       q    Type
REMARK                         _______ _______ _______ _____ _____    ______ ____
ROOT
ATOM      1  N   UNL     1      -2.692  -1.677   2.383  0.00  0.00    -0.301 N 
ATOM      2  C   UNL     1      -2.834  -0.557   3.120  0.00  0.00    +0.224 C 
ATOM      3  O   UNL     1      -3.733   0.219   2.876  0.00  0.00    -0.275 OA
ATOM      4  H   UNL     1      -1.972  -2.297   2.578  0.00  0.00    +0.150 HD
ENDROOT
BRANCH   1   6
ATOM      5  C   UNL     1      -2.881  -2.427   0.017  0.00  0.00    +0.155 C 
ATOM      6  C   UNL     1      -3.624  -1.956   1.288  0.00  0.00    +0.153 C 
ATOM      7  S   UNL     1      -4.613  -3.474   1.610  0.00  0.00    -0.106 S 
ATOM      8  C   UNL     1      -3.599  -4.638   0.718  0.00  0.00    -0.013 C 
ATOM      9  C   UNL     1      -2.771  -3.939  -0.035  0.00  0.00    -0.044 C 
ATOM     10  C   UNL     1      -1.873  -4.912  -0.808  0.00  0.00    +0.033 C 
ATOM     11  C   UNL     1      -1.999  -6.260  -0.073  0.00  0.00    +0.009 C 
ATOM     12  C   UNL     1      -3.396  -6.127   0.564  0.00  0.00    +0.042 C 
BRANCH   5  13
ATOM     13  C   UNL     1      -1.496  -1.832   0.006  0.00  0.00    +0.317 C 
ATOM     14  O   UNL     1      -0.528  -2.555  -0.007  0.00  0.00    -0.250 OA
BRANCH  13  15
ATOM     15  O   UNL     1      -1.339  -0.499   0.012  0.00  0.00    -0.464 OA
BRANCH  15  17
ATOM     16  C   UNL     1      -0.019   1.526   0.010  0.00  0.00    +0.048 C 
ATOM     17  C   UNL     1       0.002  -0.004   0.002  0.00  0.00    +0.229 C 
ENDBRANCH  15  17
ENDBRANCH  13  15
ENDBRANCH   5  13
ENDBRANCH   1   6
BRANCH   2  18
ATOM     18  C   UNL     1      -1.875  -0.270   4.246  0.00  0.00    +0.173 C 
BRANCH  18  19
ATOM     19  S   UNL     1      -2.327   1.298   5.040  0.00  0.00    -0.075 S 
BRANCH  19  20
ATOM     20  C   UNL     1      -1.129   1.490   6.317  0.00  0.00    +0.213 A 
ATOM     21  N   UNL     1      -1.174   2.558   7.105  0.00  0.00    -0.180 NA
ATOM     22  C   UNL     1      -0.268   2.697   8.067  0.00  0.00    +0.296 A 
ATOM     23  O   UNL     1      -0.290   3.776   8.886  0.00  0.00    -0.264 OA
ATOM     24  C   UNL     1       0.706   1.710   8.217  0.00  0.00    +0.130 A 
ATOM     25  N   UNL     1       0.701   0.670   7.404  0.00  0.00    -0.146 NA
ATOM     26  N   UNL     1      -0.194   0.562   6.485  0.00  0.00    -0.122 NA
BRANCH  24  27
ATOM     27  C   UNL     1       1.753   1.829   9.295  0.00  0.00    +0.074 C 
BRANCH  27  28
ATOM     28  C   UNL     1       1.246   1.159  10.574  0.00  0.00    +0.131 C 
BRANCH  28  29
ATOM     29  C   UNL     1       2.292   1.279  11.652  0.00  0.00    +0.356 C 
ATOM     30  O   UNL     1       3.346   1.847  11.419  0.00  0.00    -0.246 OA
ATOM     31  O   UNL     1       2.086   0.807  12.757  0.00  0.00    -0.246 OA
ENDBRANCH  28  29
ENDBRANCH  27  28
ENDBRANCH  24  27
ENDBRANCH  19  20
ENDBRANCH  18  19
ENDBRANCH   2  18
TORSDOF 10
