REMARK  Name = ZINC63731873
REMARK  9 active torsions:
REMARK  status: ('A' for Active; 'I' for Inactive)
REMARK    1  A    between atoms: C_1  and  C_2
REMARK    2  A    between atoms: C_5  and  N_8
REMARK    3  A    between atoms: C_9  and  C_11
REMARK    4  A    between atoms: C_11  and  S_12
REMARK    5  A    between atoms: S_12  and  C_13
REMARK    6  A    between atoms: C_18  and  C_21
REMARK    7  A    between atoms: N_24  and  C_25
REMARK    8  A    between atoms: C_28  and  O_31
REMARK    9  A    between atoms: O_31  and  C_32
REMARK                            x       y       z     vdW  Elec       q    Type
REMARK                         _______ _______ _______ _____ _____    ______ ____
ROOT
ATOM      1  C   UNL     1       0.525  -8.982   2.562  0.00  0.00    +0.260 C 
ATOM      2  N   UNL     1      -0.587  -9.479   1.744  0.00  0.00    -0.230 NA
ATOM      3  C   UNL     1      -0.533  -9.400   0.454  0.00  0.00    +0.185 C 
ATOM      4  C   UNL     1       0.706  -8.912  -0.244  0.00  0.00    +0.083 C 
ATOM      5  C   UNL     1       0.416  -8.950  -1.548  0.00  0.00    +0.075 C 
ATOM      6  N   UNL     1      -0.839  -9.428  -1.685  0.00  0.00    -0.152 NA
ATOM      7  N   UNL     1      -1.391  -9.703  -0.552  0.00  0.00    -0.129 NA
ATOM      8  C   UNL     1       1.331  -8.530  -2.670  0.00  0.00    +0.068 C 
ATOM      9  C   UNL     1       1.891  -8.545   0.558  0.00  0.00    +0.133 C 
ATOM     10  N   UNL     1       2.888  -7.833   0.108  0.00  0.00    -0.285 NA
ATOM     11  N   UNL     1       1.812  -9.054   1.864  0.00  0.00    -0.253 N 
ATOM     12  H   UNL     1       3.638  -7.627   0.688  0.00  0.00    +0.188 HD
ENDROOT
BRANCH  11  13
ATOM     13  C   UNL     1       2.935  -9.614   2.484  0.00  0.00    +0.038 A 
ATOM     14  C   UNL     1       2.873 -10.001   3.817  0.00  0.00    +0.027 A 
ATOM     15  C   UNL     1       3.982 -10.554   4.427  0.00  0.00    +0.047 A 
ATOM     16  C   UNL     1       5.157 -10.723   3.710  0.00  0.00    +0.120 A 
ATOM     17  C   UNL     1       5.220 -10.337   2.379  0.00  0.00    +0.047 A 
ATOM     18  C   UNL     1       4.111  -9.789   1.765  0.00  0.00    +0.027 A 
BRANCH  16  19
ATOM     19  O   UNL     1       6.248 -11.268   4.312  0.00  0.00    -0.495 OA
ATOM     20  C   UNL     1       7.425 -11.412   3.514  0.00  0.00    +0.277 C 
ENDBRANCH  16  19
ENDBRANCH  11  13
BRANCH   1  21
ATOM     21  S   UNL     1       0.196  -7.256   3.010  0.00  0.00    -0.106 S 
BRANCH  21  22
ATOM     22  C   UNL     1       0.124  -6.394   1.416  0.00  0.00    +0.168 C 
BRANCH  22  24
ATOM     23  N   UNL     1      -0.243  -4.088   0.600  0.00  0.00    -0.285 N 
ATOM     24  C   UNL     1      -0.147  -4.930   1.648  0.00  0.00    +0.227 C 
ATOM     25  O   UNL     1      -0.278  -4.509   2.778  0.00  0.00    -0.275 OA
ATOM     26  H   UNL     1      -0.214  -4.435  -0.305  0.00  0.00    +0.155 HD
BRANCH  23  31
ATOM     27  C   UNL     1      -0.817   1.487   1.482  0.00  0.00    +0.044 C 
ATOM     28  C   UNL     1      -0.664   0.006   1.248  0.00  0.00    -0.050 A 
ATOM     29  C   UNL     1       0.084  -0.758   2.125  0.00  0.00    +0.005 A 
ATOM     30  C   UNL     1       0.225  -2.115   1.913  0.00  0.00    +0.023 A 
ATOM     31  C   UNL     1      -0.385  -2.713   0.818  0.00  0.00    +0.033 A 
ATOM     32  C   UNL     1      -1.136  -1.943  -0.061  0.00  0.00    +0.023 A 
ATOM     33  C   UNL     1      -1.278  -0.587   0.160  0.00  0.00    +0.005 A 
ENDBRANCH  23  31
ENDBRANCH  22  24
ENDBRANCH  21  22
ENDBRANCH   1  21
TORSDOF 6
