REMARK  Name = ZINC04615113
REMARK  4 active torsions:
REMARK  status: ('A' for Active; 'I' for Inactive)
REMARK    1  A    between atoms: C_1  and  O_2
REMARK    2  A    between atoms: O_2  and  C_3
REMARK    3  A    between atoms: C_7  and  N_9
REMARK    4  A    between atoms: C_11  and  C_24
REMARK                            x       y       z     vdW  Elec       q    Type
REMARK                         _______ _______ _______ _____ _____    ______ ____
ROOT
ATOM      1  N   UNL     1      -2.185  -2.402  -1.171  0.00  0.00    -0.212 NA
ATOM      2  C   UNL     1      -1.151  -1.943  -0.496  0.00  0.00    +0.233 A 
ATOM      3  C   UNL     1       0.052  -2.771  -0.284  0.00  0.00    +0.099 A 
ATOM      4  C   UNL     1       1.253  -2.100  -0.073  0.00  0.00    +0.030 A 
ATOM      5  C   UNL     1       1.231  -0.690  -0.046  0.00  0.00    +0.026 A 
ATOM      6  C   UNL     1       2.477   0.079  -0.049  0.00  0.00    -0.007 A 
ATOM      7  C   UNL     1       3.725  -0.548  -0.055  0.00  0.00    +0.009 A 
ATOM      8  C   UNL     1       4.862   0.208  -0.060  0.00  0.00    +0.001 A 
ATOM      9  C   UNL     1       4.793   1.598  -0.061  0.00  0.00    +0.001 A 
ATOM     10  C   UNL     1       3.591   2.241  -0.056  0.00  0.00    +0.008 A 
ATOM     11  C   UNL     1       2.403   1.493  -0.049  0.00  0.00    -0.017 A 
ATOM     12  C   UNL     1       1.143   2.123  -0.042  0.00  0.00    +0.012 A 
ATOM     13  C   UNL     1      -0.004   1.397  -0.027  0.00  0.00    +0.047 A 
ATOM     14  C   UNL     1       0.011  -0.000  -0.022  0.00  0.00    +0.138 A 
ATOM     15  O   UNL     1      -1.154  -0.691   0.029  0.00  0.00    -0.437 OA
ENDROOT
BRANCH   1  20
ATOM     16  C   UNL     1      -4.696  -0.072  -2.445  0.00  0.00    +0.122 A 
ATOM     17  C   UNL     1      -5.648  -0.149  -1.437  0.00  0.00    +0.046 A 
ATOM     18  C   UNL     1      -5.444  -0.975  -0.346  0.00  0.00    +0.006 A 
ATOM     19  C   UNL     1      -4.295  -1.733  -0.255  0.00  0.00    +0.028 A 
ATOM     20  C   UNL     1      -3.328  -1.658  -1.260  0.00  0.00    +0.071 A 
ATOM     21  C   UNL     1      -3.536  -0.823  -2.361  0.00  0.00    +0.073 A 
BRANCH  16  23
ATOM     22  C   UNL     1      -6.121   1.487  -3.535  0.00  0.00    +0.277 C 
ATOM     23  O   UNL     1      -4.902   0.741  -3.513  0.00  0.00    -0.495 OA
ENDBRANCH  16  23
ENDBRANCH   1  20
BRANCH   3  24
ATOM     24  C   UNL     1      -0.015  -4.240  -0.296  0.00  0.00    +0.247 C 
ATOM     25  O   UNL     1       0.993  -4.897  -0.118  0.00  0.00    -0.270 OA
ATOM     26  N   UNL     1      -1.194  -4.859  -0.503  0.00  0.00    -0.325 N 
ATOM     27  H   UNL     1      -1.999  -4.336  -0.644  0.00  0.00    +0.145 HD
ATOM     28  H   UNL     1      -1.239  -5.828  -0.511  0.00  0.00    +0.145 HD
ENDBRANCH   3  24
TORSDOF 3
