REMARK  Name = ZINC10538338
REMARK  5 active torsions:
REMARK  status: ('A' for Active; 'I' for Inactive)
REMARK    1  A    between atoms: C_5  and  C_7
REMARK    2  A    between atoms: C_7  and  N_8
REMARK    3  A    between atoms: C_9  and  C_11
REMARK    4  A    between atoms: C_11  and  N_12
REMARK    5  A    between atoms: C_16  and  C_17
REMARK                            x       y       z     vdW  Elec       q    Type
REMARK                         _______ _______ _______ _____ _____    ______ ____
ROOT
ATOM      1  C   UNL     1       7.185   2.902  -0.052  0.00  0.00    +0.213 C 
ENDROOT
BRANCH   1   2
ATOM      2  N   UNL     1       5.733   3.096  -0.037  0.00  0.00    -0.219 N 
ATOM      3  C   UNL     1       4.936   2.042  -0.034  0.00  0.00    +0.261 C 
ATOM      4  O   UNL     1       5.389   0.912  -0.044  0.00  0.00    -0.269 OA
ATOM      5  C   UNL     1       3.526   2.268  -0.019  0.00  0.00    +0.080 C 
ATOM      6  C   UNL     1       2.503   1.367  -0.015  0.00  0.00    +0.035 C 
ATOM      7  S   UNL     1       3.468   4.055  -0.017  0.00  0.00    -0.026 S 
ATOM      8  C   UNL     1       5.229   4.350  -0.025  0.00  0.00    +0.286 C 
ATOM      9  O   UNL     1       5.825   5.411  -0.026  0.00  0.00    -0.262 OA
BRANCH   6  10
ATOM     10  C   UNL     1       1.163   1.819   0.001  0.00  0.00    +0.013 A 
ATOM     11  C   UNL     1      -0.013   1.076   0.008  0.00  0.00    +0.015 A 
ATOM     12  C   UNL     1      -1.192   1.777   0.017  0.00  0.00    +0.008 A 
ATOM     13  C   UNL     1      -1.157   3.136   0.030  0.00  0.00    +0.046 A 
ATOM     14  S   UNL     1       0.539   3.490   0.016  0.00  0.00    -0.097 S 
ENDBRANCH   6  10
ENDBRANCH   1   2
BRANCH   1  16
ATOM     15  N   UNL     1       8.980   2.667  -1.738  0.00  0.00    -0.310 N 
ATOM     16  C   UNL     1       7.670   2.842  -1.478  0.00  0.00    +0.231 C 
ATOM     17  O   UNL     1       6.880   2.951  -2.391  0.00  0.00    -0.274 OA
ATOM     18  H   UNL     1       9.612   2.580  -1.007  0.00  0.00    +0.149 HD
BRANCH  15  19
ATOM     19  C   UNL     1       9.451   2.609  -3.124  0.00  0.00    +0.142 C 
BRANCH  19  24
ATOM     20  C   UNL     1      12.844   0.990  -3.474  0.00  0.00    +0.000 A 
ATOM     21  C   UNL     1      13.686   2.043  -3.169  0.00  0.00    +0.003 A 
ATOM     22  C   UNL     1      13.160   3.279  -2.847  0.00  0.00    +0.038 A 
ATOM     23  C   UNL     1      11.788   3.466  -2.837  0.00  0.00    +0.128 A 
ATOM     24  C   UNL     1      10.945   2.410  -3.139  0.00  0.00    +0.005 A 
ATOM     25  C   UNL     1      11.474   1.173  -3.460  0.00  0.00    +0.008 A 
ATOM     26  F   UNL     1      11.272   4.676  -2.529  0.00  0.00    -0.205 F 
ENDBRANCH  19  24
ENDBRANCH  15  19
ENDBRANCH   1  16
TORSDOF 5
