REMARK  Name = ZINC60241807
REMARK  3 active torsions:
REMARK  status: ('A' for Active; 'I' for Inactive)
REMARK    1  A    between atoms: C_8  and  C_26
REMARK    2  A    between atoms: C_11  and  C_13
REMARK    3  A    between atoms: C_13  and  N_14
REMARK                            x       y       z     vdW  Elec       q    Type
REMARK                         _______ _______ _______ _____ _____    ______ ____
ROOT
ATOM      1  C   UNL     1      -0.017   1.378   0.010  0.00  0.00    +0.000 A 
ATOM      2  C   UNL     1       1.174   2.082   0.002  0.00  0.00    +0.002 A 
ATOM      3  C   UNL     1       2.377   1.410  -0.013  0.00  0.00    +0.024 A 
ATOM      4  C   UNL     1       2.404   0.014  -0.022  0.00  0.00    +0.040 A 
ATOM      5  C   UNL     1       1.206  -0.682  -0.014  0.00  0.00    -0.024 A 
ATOM      6  C   UNL     1       0.002  -0.004   0.002  0.00  0.00    +0.005 A 
ATOM      7  C   UNL     1       1.510  -2.163  -0.025  0.00  0.00    +0.069 C 
ATOM      8  C   UNL     1       3.046  -2.243  -0.040  0.00  0.00    +0.171 C 
ATOM      9  N   UNL     1       3.503  -0.851  -0.037  0.00  0.00    -0.258 N 
ATOM     10  C   UNL     1       4.793  -0.461  -0.049  0.00  0.00    +0.238 C 
ATOM     11  O   UNL     1       5.677  -1.291  -0.062  0.00  0.00    -0.273 OA
ENDROOT
BRANCH   8  12
ATOM     12  C   UNL     1       3.519  -2.948  -1.285  0.00  0.00    +0.232 C 
ATOM     13  O   UNL     1       4.224  -2.365  -2.081  0.00  0.00    -0.274 OA
ATOM     14  N   UNL     1       3.161  -4.228  -1.512  0.00  0.00    -0.328 N 
ATOM     15  H   UNL     1       2.598  -4.694  -0.875  0.00  0.00    +0.145 HD
ATOM     16  H   UNL     1       3.466  -4.681  -2.313  0.00  0.00    +0.145 HD
ENDBRANCH   8  12
BRANCH  10  17
ATOM     17  C   UNL     1       5.137   1.006  -0.045  0.00  0.00    +0.214 C 
BRANCH  17  18
ATOM     18  N   UNL     1       6.593   1.166  -0.059  0.00  0.00    -0.215 N 
ATOM     19  C   UNL     1       7.359   1.238   1.049  0.00  0.00    +0.247 C 
ATOM     20  O   UNL     1       6.988   1.184   2.202  0.00  0.00    -0.273 OA
ATOM     21  C   UNL     1       8.777   1.398   0.551  0.00  0.00    +0.113 C 
ATOM     22  C   UNL     1       9.364   2.719   1.035  0.00  0.00    +0.035 C 
ATOM     23  C   UNL     1      10.788   2.876   0.494  0.00  0.00    +0.003 C 
ATOM     24  C   UNL     1      11.648   1.708   0.980  0.00  0.00    +0.000 C 
ATOM     25  C   UNL     1      11.060   0.392   0.466  0.00  0.00    +0.003 C 
ATOM     26  C   UNL     1       9.637   0.225   1.007  0.00  0.00    +0.035 C 
ATOM     27  N   UNL     1       8.642   1.400  -0.912  0.00  0.00    -0.285 N 
ATOM     28  C   UNL     1       7.330   1.254  -1.173  0.00  0.00    +0.310 C 
ATOM     29  O   UNL     1       6.865   1.210  -2.296  0.00  0.00    -0.252 OA
ATOM     30  H   UNL     1       9.358   1.486  -1.561  0.00  0.00    +0.151 HD
ENDBRANCH  17  18
ENDBRANCH  10  17
TORSDOF 3
