REMARK  Name = ZINC37027263
REMARK  4 active torsions:
REMARK  status: ('A' for Active; 'I' for Inactive)
REMARK    1  A    between atoms: C_1  and  C_2
REMARK    2  A    between atoms: C_2  and  C_3
REMARK    3  A    between atoms: C_9  and  N_11
REMARK    4  A    between atoms: C_12  and  C_14
REMARK                            x       y       z     vdW  Elec       q    Type
REMARK                         _______ _______ _______ _____ _____    ______ ____
ROOT
ATOM      1  N   UNL     1      -0.750  -2.444   1.369  0.00  0.00    -0.309 N 
ATOM      2  C   UNL     1      -1.121  -3.664   0.932  0.00  0.00    +0.256 C 
ATOM      3  O   UNL     1      -0.291  -4.425   0.481  0.00  0.00    -0.272 OA
ATOM      4  H   UNL     1      -1.414  -1.836   1.729  0.00  0.00    +0.149 HD
ENDROOT
BRANCH   2   5
ATOM      5  C   UNL     1      -2.567  -4.083   1.004  0.00  0.00    +0.275 C 
ATOM      6  C   UNL     1      -3.001  -4.182   2.473  0.00  0.00    +0.155 C 
ATOM      7  N   UNL     1      -4.401  -4.640   2.494  0.00  0.00    -0.337 N 
ATOM      8  C   UNL     1      -4.766  -5.662   1.603  0.00  0.00    +0.070 A 
ATOM      9  C   UNL     1      -5.971  -6.328   1.766  0.00  0.00    +0.026 A 
ATOM     10  C   UNL     1      -6.327  -7.332   0.883  0.00  0.00    +0.002 A 
ATOM     11  C   UNL     1      -5.485  -7.669  -0.159  0.00  0.00    +0.004 A 
ATOM     12  C   UNL     1      -4.282  -7.009  -0.325  0.00  0.00    +0.047 A 
ATOM     13  C   UNL     1      -3.914  -6.003   0.555  0.00  0.00    +0.142 A 
ATOM     14  O   UNL     1      -2.726  -5.363   0.387  0.00  0.00    -0.476 OA
ATOM     15  H   UNL     1      -5.048  -4.250   3.102  0.00  0.00    +0.146 HD
ENDBRANCH   2   5
BRANCH   1  21
ATOM     16  C   UNL     1       0.742  -0.511   1.242  0.00  0.00    +0.009 C 
ATOM     17  C   UNL     1       2.210  -0.086   1.169  0.00  0.00    +0.005 C 
ATOM     18  C   UNL     1       2.950  -0.593   2.408  0.00  0.00    +0.000 C 
ATOM     19  C   UNL     1       2.863  -2.119   2.465  0.00  0.00    +0.002 C 
ATOM     20  C   UNL     1       1.395  -2.544   2.538  0.00  0.00    +0.022 C 
ATOM     21  C   UNL     1       0.655  -2.037   1.299  0.00  0.00    +0.076 C 
BRANCH  16  23
ATOM     22  C   UNL     1      -0.019   1.526   0.010  0.00  0.00    +0.004 C 
ATOM     23  C   UNL     1       0.002  -0.004   0.002  0.00  0.00    +0.002 C 
ENDBRANCH  16  23
ENDBRANCH   1  21
TORSDOF 3
