REMARK  Name = ZINC06156817
REMARK  4 active torsions:
REMARK  status: ('A' for Active; 'I' for Inactive)
REMARK    1  A    between atoms: C_7  and  N_14
REMARK    2  A    between atoms: C_9  and  C_10
REMARK    3  A    between atoms: N_17  and  S_20
REMARK    4  A    between atoms: S_20  and  C_23
REMARK                            x       y       z     vdW  Elec       q    Type
REMARK                         _______ _______ _______ _____ _____    ______ ____
ROOT
ATOM      1  N   UNL     1       2.461  -2.791  -0.036  0.00  0.00    -0.327 N 
ATOM      2  C   UNL     1       2.602  -3.564  -1.278  0.00  0.00    +0.122 C 
ATOM      3  C   UNL     1       4.006  -4.176  -1.337  0.00  0.00    +0.128 C 
ATOM      4  N   UNL     1       4.235  -4.938  -0.100  0.00  0.00    -0.174 NA
ATOM      5  C   UNL     1       3.981  -4.271   1.186  0.00  0.00    +0.128 C 
ATOM      6  C   UNL     1       2.579  -3.655   1.146  0.00  0.00    +0.122 C 
ENDROOT
BRANCH   1  13
ATOM      7  C   UNL     1       2.380   1.430  -0.013  0.00  0.00    +0.001 A 
ATOM      8  C   UNL     1       1.155   2.093   0.002  0.00  0.00    +0.002 A 
ATOM      9  C   UNL     1      -0.017   1.401   0.010  0.00  0.00    +0.026 A 
ATOM     10  C   UNL     1       0.002  -0.004   0.002  0.00  0.00    +0.049 A 
ATOM     11  C   UNL     1       1.249  -0.674  -0.013  0.00  0.00    +0.019 A 
ATOM     12  C   UNL     1       2.437   0.069  -0.021  0.00  0.00    +0.012 A 
ATOM     13  C   UNL     1       1.265  -2.090  -0.022  0.00  0.00    +0.041 A 
ATOM     14  C   UNL     1       0.047  -2.752  -0.014  0.00  0.00    +0.054 A 
ATOM     15  C   UNL     1      -1.133  -2.022   0.001  0.00  0.00    +0.122 A 
ATOM     16  N   UNL     1      -1.205  -0.670   0.009  0.00  0.00    -0.351 N 
ATOM     17  H   UNL     1      -2.103  -0.172   0.021  0.00  0.00    +0.166 HD
BRANCH  15  18
ATOM     18  C   UNL     1      -2.449  -2.756   0.009  0.00  0.00    +0.432 C 
ATOM     19  F   UNL     1      -3.497  -1.835  -0.092  0.00  0.00    -0.164 F 
ATOM     20  F   UNL     1      -2.497  -3.638  -1.076  0.00  0.00    -0.164 F 
ATOM     21  F   UNL     1      -2.574  -3.477   1.201  0.00  0.00    -0.164 F 
ENDBRANCH  15  18
ENDBRANCH   1  13
BRANCH   4  22
ATOM     22  S   UNL     1       4.767  -6.506  -0.154  0.00  0.00    +0.061 S 
ATOM     23  O   UNL     1       5.431  -6.667  -1.400  0.00  0.00    -0.153 OA
ATOM     24  O   UNL     1       5.407  -6.761   1.089  0.00  0.00    -0.153 OA
BRANCH  22  25
ATOM     25  C   UNL     1       3.340  -7.538  -0.206  0.00  0.00    +0.107 A 
ATOM     26  C   UNL     1       2.772  -7.993   0.969  0.00  0.00    +0.028 A 
ATOM     27  C   UNL     1       1.649  -8.798   0.929  0.00  0.00    +0.003 A 
ATOM     28  C   UNL     1       1.100  -9.158  -0.288  0.00  0.00    +0.015 A 
ATOM     29  C   UNL     1       1.671  -8.708  -1.464  0.00  0.00    +0.020 A 
ATOM     30  C   UNL     1       2.792  -7.898  -1.423  0.00  0.00    +0.043 A 
ATOM     31 BR   UNL     1       0.921  -9.201  -3.129  0.00  0.00    -0.050 Br
ENDBRANCH  22  25
ENDBRANCH   4  22
TORSDOF 4
