REMARK  Name = ZINC44787074
REMARK  8 active torsions:
REMARK  status: ('A' for Active; 'I' for Inactive)
REMARK    1  A    between atoms: C_1  and  C_2
REMARK    2  A    between atoms: C_2  and  O_3
REMARK    3  A    between atoms: O_3  and  C_4
REMARK    4  A    between atoms: C_4  and  C_6
REMARK    5  A    between atoms: C_10  and  N_11
REMARK    6  A    between atoms: C_12  and  C_14
REMARK    7  A    between atoms: N_19  and  C_21
REMARK    8  A    between atoms: C_21  and  C_22
REMARK                            x       y       z     vdW  Elec       q    Type
REMARK                         _______ _______ _______ _____ _____    ______ ____
ROOT
ATOM      1  N   UNL     1      -3.277  -1.835   2.578  0.00  0.00    -0.279 N 
ATOM      2  C   UNL     1      -3.994  -2.335   3.604  0.00  0.00    +0.219 C 
ATOM      3  O   UNL     1      -5.065  -2.865   3.394  0.00  0.00    -0.275 OA
ATOM      4  H   UNL     1      -2.421  -1.411   2.745  0.00  0.00    +0.155 HD
ENDROOT
BRANCH   1   9
ATOM      5  C   UNL     1      -3.169  -1.475   0.115  0.00  0.00    +0.091 A 
ATOM      6  C   UNL     1      -3.888  -1.702  -1.127  0.00  0.00    -0.021 A 
ATOM      7  C   UNL     1      -5.070  -2.335  -0.973  0.00  0.00    -0.004 A 
ATOM      8  S   UNL     1      -5.208  -2.612   0.768  0.00  0.00    -0.077 S 
ATOM      9  C   UNL     1      -3.763  -1.928   1.283  0.00  0.00    +0.086 A 
ATOM     10  C   UNL     1      -6.038  -2.710  -2.053  0.00  0.00    +0.043 C 
ATOM     11  C   UNL     1      -5.665  -1.934  -3.325  0.00  0.00    +0.005 C 
ATOM     12  C   UNL     1      -4.159  -2.070  -3.565  0.00  0.00    +0.005 C 
ATOM     13  C   UNL     1      -3.389  -1.283  -2.502  0.00  0.00    +0.037 C 
BRANCH   5  14
ATOM     14  C   UNL     1      -1.869  -0.800   0.131  0.00  0.00    +0.342 C 
ATOM     15  O   UNL     1      -0.846  -1.449   0.024  0.00  0.00    -0.245 OA
BRANCH  14  16
ATOM     16  O   UNL     1      -1.806   0.540   0.266  0.00  0.00    -0.461 OA
BRANCH  16  18
ATOM     17  C   UNL     1      -0.635   2.647   0.434  0.00  0.00    +0.048 C 
ATOM     18  C   UNL     1      -0.505   1.131   0.274  0.00  0.00    +0.229 C 
ENDBRANCH  16  18
ENDBRANCH  14  16
ENDBRANCH   5  14
ENDBRANCH   1   9
BRANCH   2  19
ATOM     19  C   UNL     1      -3.466  -2.235   5.011  0.00  0.00    +0.059 C 
ATOM     20  C   UNL     1      -3.272  -0.761   5.381  0.00  0.00    +0.009 C 
ATOM     21  C   UNL     1      -2.810  -0.667   6.838  0.00  0.00    -0.018 C 
ATOM     22  C   UNL     1      -3.835  -1.361   7.738  0.00  0.00    -0.078 C 
ATOM     23  N   UNL     1      -3.955  -2.772   7.352  0.00  0.00    +0.383 N 
ATOM     24  C   UNL     1      -4.466  -2.871   5.979  0.00  0.00    -0.066 C 
ATOM     25  H   UNL     1      -3.049  -3.212   7.405  0.00  0.00    -0.081 HD
BRANCH  23  26
ATOM     26  C   UNL     1      -4.881  -3.451   8.268  0.00  0.00    -0.042 C 
BRANCH  26  27
ATOM     27  C   UNL     1      -4.285  -3.486   9.651  0.00  0.00    -0.046 A 
ATOM     28  C   UNL     1      -4.731  -2.605  10.618  0.00  0.00    +0.004 A 
ATOM     29  C   UNL     1      -4.185  -2.635  11.887  0.00  0.00    +0.020 A 
ATOM     30  C   UNL     1      -3.190  -3.549  12.190  0.00  0.00    +0.042 A 
ATOM     31  C   UNL     1      -2.743  -4.431  11.223  0.00  0.00    +0.040 A 
ATOM     32  C   UNL     1      -3.294  -4.402   9.955  0.00  0.00    +0.044 A 
ATOM     33 CL   UNL     1      -2.738  -5.513   8.742  0.00  0.00    -0.083 Cl
ATOM     34 CL   UNL     1      -2.504  -3.587  13.784  0.00  0.00    -0.083 Cl
ENDBRANCH  26  27
ENDBRANCH  23  26
ENDBRANCH   2  19
TORSDOF 7
