REMARK  Name = ZINC10004115
REMARK  6 active torsions:
REMARK  status: ('A' for Active; 'I' for Inactive)
REMARK    1  A    between atoms: C_1  and  O_2
REMARK    2  A    between atoms: O_2  and  C_3
REMARK    3  A    between atoms: C_6  and  C_11
REMARK    4  A    between atoms: C_8  and  O_9
REMARK    5  A    between atoms: O_9  and  C_10
REMARK    6  A    between atoms: C_26  and  N_31
REMARK                            x       y       z     vdW  Elec       q    Type
REMARK                         _______ _______ _______ _____ _____    ______ ____
ROOT
ATOM      1  C   UNL     1       1.744  -1.201  -1.444  0.00  0.00    +0.105 C 
ATOM      2  C   UNL     1       0.571  -0.243  -1.352  0.00  0.00    +0.024 C 
ATOM      3  C   UNL     1       0.982   1.111  -2.006  0.00  0.00    -0.005 C 
ATOM      4  C   UNL     1       2.310   1.507  -1.293  0.00  0.00    +0.004 C 
ATOM      5  C   UNL     1       1.856   1.891   0.155  0.00  0.00    +0.004 C 
ATOM      6  C   UNL     1       0.313   1.666   0.161  0.00  0.00    -0.003 C 
ATOM      7  C   UNL     1      -0.043   2.078  -1.311  0.00  0.00    +0.008 C 
ATOM      8  C   UNL     1       0.155   0.113   0.075  0.00  0.00    +0.029 C 
ATOM      9  C   UNL     1       1.001  -0.498   1.149  0.00  0.00    -0.021 A 
ATOM     10  C   UNL     1       0.501  -0.611   2.437  0.00  0.00    +0.038 A 
ATOM     11  C   UNL     1       1.284  -1.143   3.442  0.00  0.00    +0.127 A 
ATOM     12  C   UNL     1       2.574  -1.569   3.181  0.00  0.00    +0.034 A 
ATOM     13  C   UNL     1       3.113  -1.416   1.892  0.00  0.00    +0.025 A 
ATOM     14  C   UNL     1       2.309  -0.912   0.887  0.00  0.00    +0.031 A 
ATOM     15  N   UNL     1       2.760  -0.825  -0.440  0.00  0.00    -0.336 N 
ATOM     16  H   UNL     1       3.658  -0.543  -0.677  0.00  0.00    +0.147 HD
ENDROOT
BRANCH   1  20
ATOM     17  C   UNL     1       3.450  -0.995  -5.359  0.00  0.00    +0.162 A 
ATOM     18  C   UNL     1       2.220  -1.603  -5.168  0.00  0.00    +0.050 A 
ATOM     19  C   UNL     1       1.674  -1.673  -3.900  0.00  0.00    +0.009 A 
ATOM     20  C   UNL     1       2.347  -1.127  -2.823  0.00  0.00    -0.023 A 
ATOM     21  C   UNL     1       3.575  -0.519  -3.007  0.00  0.00    +0.055 A 
ATOM     22  C   UNL     1       4.130  -0.450  -4.274  0.00  0.00    +0.162 A 
BRANCH  17  24
ATOM     23  C   UNL     1       3.238  -1.510  -7.671  0.00  0.00    +0.277 C 
ATOM     24  O   UNL     1       3.992  -0.930  -6.605  0.00  0.00    -0.491 OA
ENDBRANCH  17  24
BRANCH  22  25
ATOM     25  O   UNL     1       5.338   0.148  -4.457  0.00  0.00    -0.491 OA
ATOM     26  C   UNL     1       5.978   0.686  -3.298  0.00  0.00    +0.277 C 
ENDBRANCH  22  25
ENDBRANCH   1  20
BRANCH  11  27
ATOM     27  N   UNL     1       0.738  -1.261   4.813  0.00  0.00    +0.056 N 
ATOM     28  O   UNL     1      -0.397  -0.888   5.050  0.00  0.00    -0.126 OA
ATOM     29  O   UNL     1       1.423  -1.730   5.704  0.00  0.00    -0.126 OA
ENDBRANCH  11  27
TORSDOF 4
