REMARK  Name = ZINC00646341
REMARK  4 active torsions:
REMARK  status: ('A' for Active; 'I' for Inactive)
REMARK    1  A    between atoms: C_1  and  C_2
REMARK    2  A    between atoms: N_13  and  C_16
REMARK    3  A    between atoms: C_16  and  C_17
REMARK    4  A    between atoms: N_19  and  C_20
REMARK                            x       y       z     vdW  Elec       q    Type
REMARK                         _______ _______ _______ _____ _____    ______ ____
ROOT
ATOM      1  C   UNL     1     -10.844  -1.308   4.812  0.00  0.00    +0.008 C 
ATOM      2  C   UNL     1      -9.789  -0.803   3.825  0.00  0.00    -0.009 C 
ATOM      3  C   UNL     1      -9.444   0.656   4.138  0.00  0.00    +0.008 C 
ATOM      4  C   UNL     1      -8.223   1.087   3.326  0.00  0.00    +0.037 C 
ATOM      5  C   UNL     1      -8.473   0.770   1.854  0.00  0.00    -0.023 A 
ATOM      6  C   UNL     1      -9.429  -0.113   1.491  0.00  0.00    -0.004 A 
ATOM      7  S   UNL     1      -9.361  -0.161  -0.279  0.00  0.00    -0.071 S 
ATOM      8  C   UNL     1      -8.047   1.008  -0.526  0.00  0.00    +0.138 A 
ATOM      9  C   UNL     1      -7.706   1.395   0.779  0.00  0.00    +0.079 A 
ATOM     10  C   UNL     1      -6.646   2.357   0.890  0.00  0.00    +0.279 A 
ATOM     11  O   UNL     1      -6.280   2.754   1.983  0.00  0.00    -0.265 OA
ATOM     12  N   UNL     1      -6.063   2.812  -0.236  0.00  0.00    -0.201 N 
ATOM     13  N   UNL     1      -6.484   2.362  -1.492  0.00  0.00    -0.061 NA
ATOM     14  N   UNL     1      -7.431   1.495  -1.599  0.00  0.00    -0.123 NA
ATOM     15  C   UNL     1     -10.343  -0.882   2.395  0.00  0.00    +0.046 C 
ENDROOT
BRANCH  12  16
ATOM     16  C   UNL     1      -4.979   3.794  -0.144  0.00  0.00    +0.245 C 
BRANCH  16  17
ATOM     17  C   UNL     1      -3.658   3.076  -0.047  0.00  0.00    +0.239 C 
ATOM     18  O   UNL     1      -3.624   1.863  -0.054  0.00  0.00    -0.273 OA
ATOM     19  N   UNL     1      -2.513   3.781   0.047  0.00  0.00    -0.283 N 
ATOM     20  H   UNL     1      -2.544   4.747   0.133  0.00  0.00    +0.155 HD
BRANCH  19  21
ATOM     21  C   UNL     1      -1.283   3.122   0.021  0.00  0.00    +0.041 A 
ATOM     22  C   UNL     1      -1.166   1.892  -0.590  0.00  0.00    +0.024 A 
ATOM     23  C   UNL     1       0.054   1.224  -0.616  0.00  0.00    +0.002 A 
ATOM     24  C   UNL     1       1.167   1.769  -0.052  0.00  0.00    +0.008 A 
ATOM     25  C   UNL     1       1.092   3.025   0.574  0.00  0.00    -0.016 A 
ATOM     26  C   UNL     1      -0.146   3.712   0.613  0.00  0.00    +0.003 A 
ATOM     27  C   UNL     1      -0.219   4.967   1.238  0.00  0.00    +0.010 A 
ATOM     28  C   UNL     1       0.898   5.506   1.800  0.00  0.00    +0.001 A 
ATOM     29  C   UNL     1       2.116   4.831   1.762  0.00  0.00    +0.001 A 
ATOM     30  C   UNL     1       2.224   3.613   1.164  0.00  0.00    +0.008 A 
ENDBRANCH  19  21
ENDBRANCH  16  17
ENDBRANCH  12  16
TORSDOF 3
