REMARK  Name = ZINC09057119
REMARK  5 active torsions:
REMARK  status: ('A' for Active; 'I' for Inactive)
REMARK    1  A    between atoms: C_1  and  O_2
REMARK    2  A    between atoms: O_2  and  C_3
REMARK    3  A    between atoms: C_6  and  N_9
REMARK    4  A    between atoms: C_11  and  C_21
REMARK    5  A    between atoms: N_23  and  C_24
REMARK                            x       y       z     vdW  Elec       q    Type
REMARK                         _______ _______ _______ _____ _____    ______ ____
ROOT
ATOM      1  N   UNL     1       0.358  -3.754   1.268  0.00  0.00    -0.325 N 
ATOM      2  C   UNL     1       0.191  -2.677   0.532  0.00  0.00    +0.212 A 
ATOM      3  C   UNL     1      -1.157  -2.131   0.279  0.00  0.00    +0.097 A 
ATOM      4  C   UNL     1      -1.249  -0.770   0.018  0.00  0.00    +0.030 A 
ATOM      5  C   UNL     1      -0.003   0.001   0.018  0.00  0.00    +0.019 A 
ATOM      6  C   UNL     1      -0.027   1.401   0.033  0.00  0.00    +0.026 A 
ATOM      7  C   UNL     1       1.159   2.101   0.036  0.00  0.00    +0.019 A 
ATOM      8  C   UNL     1       2.373   1.428   0.025  0.00  0.00    +0.019 A 
ATOM      9  C   UNL     1       2.411   0.048   0.010  0.00  0.00    +0.048 A 
ATOM     10  C   UNL     1       1.230  -0.678   0.005  0.00  0.00    +0.137 A 
ATOM     11  O   UNL     1       1.253  -2.033  -0.017  0.00  0.00    -0.439 OA
ATOM     12 BR   UNL     1       1.133   3.992   0.054  0.00  0.00    -0.050 Br
ATOM     13  H   UNL     1      -0.503  -4.212   1.776  0.00  0.00    +0.169 HD
ENDROOT
BRANCH   1  17
ATOM     14  C   UNL     1       4.126  -5.423   1.668  0.00  0.00    +0.120 A 
ATOM     15  C   UNL     1       3.661  -4.527   2.621  0.00  0.00    +0.047 A 
ATOM     16  C   UNL     1       2.407  -3.969   2.492  0.00  0.00    +0.029 A 
ATOM     17  C   UNL     1       1.604  -4.306   1.400  0.00  0.00    +0.042 A 
ATOM     18  C   UNL     1       2.074  -5.212   0.447  0.00  0.00    +0.029 A 
ATOM     19  C   UNL     1       3.332  -5.761   0.581  0.00  0.00    +0.047 A 
BRANCH  14  21
ATOM     20  C   UNL     1       5.780  -6.885   0.783  0.00  0.00    +0.277 C 
ATOM     21  O   UNL     1       5.364  -5.971   1.799  0.00  0.00    -0.495 OA
ENDBRANCH  14  21
ENDBRANCH   1  17
BRANCH   3  22
ATOM     22  C   UNL     1      -2.352  -2.991   0.302  0.00  0.00    +0.249 C 
ATOM     23  O   UNL     1      -2.241  -4.180   0.533  0.00  0.00    -0.270 OA
ATOM     24  N   UNL     1      -3.569  -2.461   0.066  0.00  0.00    -0.308 N 
ATOM     25  H   UNL     1      -3.669  -1.386  -0.143  0.00  0.00    +0.149 HD
BRANCH  24  26
ATOM     26  C   UNL     1      -4.757  -3.317   0.088  0.00  0.00    +0.073 C 
ATOM     27  C   UNL     1      -4.939  -3.973  -1.282  0.00  0.00    +0.022 C 
ATOM     28  C   UNL     1      -6.181  -4.867  -1.258  0.00  0.00    +0.002 C 
ATOM     29  C   UNL     1      -7.412  -4.021  -0.930  0.00  0.00    +0.000 C 
ATOM     30  C   UNL     1      -7.231  -3.365   0.440  0.00  0.00    +0.002 C 
ATOM     31  C   UNL     1      -5.989  -2.471   0.416  0.00  0.00    +0.022 C 
ENDBRANCH  24  26
ENDBRANCH   3  22
TORSDOF 4
