REMARK  Name = ZINC00930968
REMARK  10 active torsions:
REMARK  status: ('A' for Active; 'I' for Inactive)
REMARK    1  A    between atoms: C_1  and  O_2
REMARK    2  A    between atoms: O_2  and  C_3
REMARK    3  A    between atoms: C_6  and  N_11
REMARK    4  A    between atoms: C_8  and  O_9
REMARK    5  A    between atoms: O_9  and  C_10
REMARK    6  A    between atoms: N_11  and  C_12
REMARK    7  A    between atoms: C_12  and  C_14
REMARK    8  A    between atoms: C_12  and  C_19
REMARK    9  A    between atoms: N_21  and  C_22
REMARK   10  A    between atoms: C_28  and  C_30
REMARK                            x       y       z     vdW  Elec       q    Type
REMARK                         _______ _______ _______ _____ _____    ______ ____
ROOT
ATOM      1  N   UNL     1       2.550   1.375  -4.485  0.00  0.00    -0.252 N 
ATOM      2  C   UNL     1       1.576   0.954  -3.654  0.00  0.00    +0.265 C 
ATOM      3  O   UNL     1       1.208  -0.201  -3.686  0.00  0.00    -0.271 OA
ENDROOT
BRANCH   2   4
ATOM      4  C   UNL     1       0.944   1.919  -2.684  0.00  0.00    +0.296 C 
ATOM      5  C   UNL     1      -0.544   2.088  -3.018  0.00  0.00    +0.283 C 
ATOM      6  O   UNL     1      -1.115   2.998  -2.071  0.00  0.00    -0.484 OA
ATOM      7  C   UNL     1      -0.807   2.792  -0.762  0.00  0.00    +0.162 A 
ATOM      8  C   UNL     1      -1.587   3.381   0.222  0.00  0.00    +0.049 A 
ATOM      9  C   UNL     1      -1.284   3.184   1.556  0.00  0.00    +0.004 A 
ATOM     10  C   UNL     1      -0.204   2.398   1.913  0.00  0.00    +0.004 A 
ATOM     11  C   UNL     1       0.576   1.806   0.938  0.00  0.00    +0.049 A 
ATOM     12  C   UNL     1       0.277   2.000  -0.403  0.00  0.00    +0.163 A 
ATOM     13  O   UNL     1       1.050   1.404  -1.352  0.00  0.00    -0.472 OA
ENDBRANCH   2   4
BRANCH   1  17
ATOM     14  C   UNL     1       4.061   5.248  -4.130  0.00  0.00    +0.162 A 
ATOM     15  C   UNL     1       2.695   5.028  -4.066  0.00  0.00    +0.051 A 
ATOM     16  C   UNL     1       2.194   3.745  -4.184  0.00  0.00    +0.027 A 
ATOM     17  C   UNL     1       3.059   2.675  -4.366  0.00  0.00    +0.041 A 
ATOM     18  C   UNL     1       4.429   2.892  -4.429  0.00  0.00    +0.073 A 
ATOM     19  C   UNL     1       4.931   4.178  -4.317  0.00  0.00    +0.163 A 
BRANCH  14  21
ATOM     20  C   UNL     1       3.603   7.562  -3.824  0.00  0.00    +0.277 C 
ATOM     21  O   UNL     1       4.553   6.512  -4.014  0.00  0.00    -0.491 OA
ENDBRANCH  14  21
BRANCH  19  22
ATOM     22  O   UNL     1       6.272   4.394  -4.385  0.00  0.00    -0.491 OA
ATOM     23  C   UNL     1       7.090   3.283  -4.758  0.00  0.00    +0.277 C 
ENDBRANCH  19  22
ENDBRANCH   1  17
BRANCH   1  24
ATOM     24  C   UNL     1       3.076   0.473  -5.513  0.00  0.00    +0.204 C 
BRANCH  24  25
ATOM     25  C   UNL     1       4.502   0.113  -5.184  0.00  0.00    +0.019 A 
ATOM     26  C   UNL     1       5.607   0.204  -5.963  0.00  0.00    +0.013 A 
ATOM     27  C   UNL     1       6.827  -0.187  -5.445  0.00  0.00    +0.008 A 
ATOM     28  C   UNL     1       6.882  -0.651  -4.172  0.00  0.00    +0.045 A 
ATOM     29  S   UNL     1       5.175  -0.536  -3.663  0.00  0.00    -0.099 S 
ENDBRANCH  24  25
BRANCH  24  30
ATOM     30  C   UNL     1       3.028   1.158  -6.854  0.00  0.00    +0.239 C 
ATOM     31  O   UNL     1       2.597   2.288  -6.943  0.00  0.00    -0.273 OA
ATOM     32  N   UNL     1       3.464   0.515  -7.955  0.00  0.00    -0.311 N 
ATOM     33  H   UNL     1       3.809  -0.389  -7.885  0.00  0.00    +0.149 HD
BRANCH  32  34
ATOM     34  C   UNL     1       3.417   1.181  -9.259  0.00  0.00    +0.073 C 
ATOM     35  C   UNL     1       2.030   0.994  -9.878  0.00  0.00    +0.022 C 
ATOM     36  C   UNL     1       1.981   1.689 -11.240  0.00  0.00    +0.002 C 
ATOM     37  C   UNL     1       3.038   1.079 -12.163  0.00  0.00    +0.000 C 
ATOM     38  C   UNL     1       4.425   1.266 -11.544  0.00  0.00    +0.002 C 
ATOM     39  C   UNL     1       4.474   0.571 -10.182  0.00  0.00    +0.022 C 
ENDBRANCH  32  34
ENDBRANCH  24  30
ENDBRANCH   1  24
TORSDOF 8
