REMARK  Name = ZINC11369524
REMARK  9 active torsions:
REMARK  status: ('A' for Active; 'I' for Inactive)
REMARK    1  A    between atoms: C_1  and  C_2
REMARK    2  A    between atoms: C_2  and  C_4
REMARK    3  A    between atoms: C_2  and  O_15
REMARK    4  A    between atoms: N_6  and  C_7
REMARK    5  A    between atoms: C_12  and  C_13
REMARK    6  A    between atoms: O_15  and  C_16
REMARK    7  A    between atoms: C_16  and  C_18
REMARK    8  A    between atoms: C_20  and  C_30
REMARK    9  A    between atoms: N_21  and  C_23
REMARK                            x       y       z     vdW  Elec       q    Type
REMARK                         _______ _______ _______ _____ _____    ______ ____
ROOT
ATOM      1  C   UNL     1      -0.750   8.665   0.443  0.00  0.00    +0.379 C 
ATOM      2  O   UNL     1      -1.558   9.566   0.335  0.00  0.00    -0.241 OA
ENDROOT
BRANCH   1   3
ATOM      3  C   UNL     1      -1.164   7.268   0.197  0.00  0.00    +0.260 A 
ATOM      4  N   UNL     1      -0.368   6.195   0.289  0.00  0.00    -0.200 NA
ATOM      5  C   UNL     1      -1.053   5.107   0.003  0.00  0.00    +0.171 A 
ATOM      6  N   UNL     1      -2.336   5.482  -0.278  0.00  0.00    -0.211 N 
ATOM      7  N   UNL     1      -2.376   6.880  -0.144  0.00  0.00    -0.137 NA
BRANCH   6   8
ATOM      8  C   UNL     1      -3.400   4.641  -0.627  0.00  0.00    +0.068 A 
ATOM      9  C   UNL     1      -3.168   3.513  -1.404  0.00  0.00    +0.030 A 
ATOM     10  C   UNL     1      -4.218   2.683  -1.744  0.00  0.00    +0.040 A 
ATOM     11  C   UNL     1      -5.503   2.979  -1.320  0.00  0.00    +0.124 A 
ATOM     12  C   UNL     1      -5.737   4.107  -0.550  0.00  0.00    +0.040 A 
ATOM     13  C   UNL     1      -4.689   4.937  -0.203  0.00  0.00    +0.030 A 
ATOM     14  F   UNL     1      -6.529   2.168  -1.658  0.00  0.00    -0.205 F 
ENDBRANCH   6   8
BRANCH   5  15
ATOM     15  C   UNL     1      -0.530   3.731  -0.008  0.00  0.00    +0.056 A 
ATOM     16  C   UNL     1       0.773   3.301  -0.014  0.00  0.00    +0.019 A 
ATOM     17  C   UNL     1       1.022   1.948  -0.023  0.00  0.00    +0.008 A 
ATOM     18  C   UNL     1      -0.025   1.082  -0.027  0.00  0.00    +0.046 A 
ATOM     19  S   UNL     1      -1.426   2.187  -0.024  0.00  0.00    -0.094 S 
ENDBRANCH   5  15
ENDBRANCH   1   3
BRANCH   1  20
ATOM     20  O   UNL     1       0.523   8.940   0.787  0.00  0.00    -0.446 OA
BRANCH  20  22
ATOM     21  C   UNL     1       0.631  10.681   2.486  0.00  0.00    +0.062 C 
ATOM     22  C   UNL     1       0.859  10.334   1.013  0.00  0.00    +0.259 C 
BRANCH  22  23
ATOM     23  C   UNL     1       2.305  10.566   0.661  0.00  0.00    +0.258 C 
ATOM     24  O   UNL     1       2.987   9.647   0.259  0.00  0.00    -0.271 OA
ATOM     25  N   UNL     1       2.842  11.795   0.793  0.00  0.00    -0.281 N 
ATOM     26  H   UNL     1       2.282  12.544   1.052  0.00  0.00    +0.155 HD
BRANCH  25  27
ATOM     27  C   UNL     1       4.202  11.991   0.557  0.00  0.00    +0.051 A 
ATOM     28  C   UNL     1       4.852  11.258  -0.427  0.00  0.00    +0.024 A 
ATOM     29  C   UNL     1       6.198  11.457  -0.662  0.00  0.00    +0.002 A 
ATOM     30  C   UNL     1       6.912  12.379   0.086  0.00  0.00    +0.001 A 
ATOM     31  C   UNL     1       6.285  13.112   1.071  0.00  0.00    +0.021 A 
ATOM     32  C   UNL     1       4.922  12.925   1.317  0.00  0.00    +0.073 A 
BRANCH  32  33
ATOM     33  C   UNL     1       4.265  13.682   2.339  0.00  0.00    +0.101 C 
ATOM     34  N   UNL     1       3.743  14.283   3.150  0.00  0.00    -0.191 NA
ENDBRANCH  32  33
ENDBRANCH  25  27
ENDBRANCH  22  23
ENDBRANCH  20  22
ENDBRANCH   1  20
TORSDOF 8
