REMARK  Name = ZINC33058346
REMARK  11 active torsions:
REMARK  status: ('A' for Active; 'I' for Inactive)
REMARK    1  A    between atoms: C_1  and  C_2
REMARK    2  A    between atoms: C_5  and  C_8
REMARK    3  A    between atoms: C_8  and  C_10
REMARK    4  A    between atoms: C_11  and  N_34
REMARK    5  A    between atoms: C_12  and  S_24
REMARK    6  A    between atoms: C_13  and  N_15
REMARK    7  A    between atoms: N_15  and  C_16
REMARK    8  A    between atoms: C_21  and  O_22
REMARK    9  A    between atoms: O_22  and  C_23
REMARK   10  A    between atoms: S_24  and  C_27
REMARK   11  A    between atoms: C_30  and  C_33
REMARK                            x       y       z     vdW  Elec       q    Type
REMARK                         _______ _______ _______ _____ _____    ______ ____
ROOT
ATOM      1  C   UNL     1      -3.664   4.564   6.371  0.00  0.00    +0.084 A 
ATOM      2  C   UNL     1      -3.430   3.241   6.769  0.00  0.00    +0.070 A 
ATOM      3  C   UNL     1      -2.962   2.356   5.831  0.00  0.00    +0.143 A 
ATOM      4  C   UNL     1      -2.741   2.803   4.542  0.00  0.00    +0.098 A 
ATOM      5  S   UNL     1      -3.199   4.525   4.648  0.00  0.00    -0.066 S 
ENDROOT
BRANCH   3   6
ATOM      6  S   UNL     1      -2.647   0.677   6.262  0.00  0.00    +0.029 S 
ATOM      7  O   UNL     1      -3.530   0.360   7.330  0.00  0.00    -0.164 OA
ATOM      8  O   UNL     1      -2.628  -0.058   5.046  0.00  0.00    -0.164 OA
BRANCH   6   9
ATOM      9  C   UNL     1      -1.014   0.605   6.920  0.00  0.00    +0.094 A 
ATOM     10  C   UNL     1       0.059   0.371   6.081  0.00  0.00    +0.027 A 
ATOM     11  C   UNL     1       1.341   0.318   6.597  0.00  0.00    +0.005 A 
ATOM     12  C   UNL     1       1.548   0.492   7.952  0.00  0.00    -0.050 A 
ATOM     13  C   UNL     1       0.474   0.722   8.792  0.00  0.00    +0.005 A 
ATOM     14  C   UNL     1      -0.807   0.778   8.276  0.00  0.00    +0.027 A 
ATOM     15  C   UNL     1       2.945   0.432   8.515  0.00  0.00    +0.044 C 
ENDBRANCH   6   9
ENDBRANCH   3   6
BRANCH   2  16
ATOM     16  N   UNL     1      -3.666   2.837   8.078  0.00  0.00    -0.355 N 
ATOM     17  H   UNL     1      -3.478   1.794   8.373  0.00  0.00    +0.142 HD
ATOM     18  H   UNL     1      -4.041   3.559   8.818  0.00  0.00    +0.142 HD
ENDBRANCH   2  16
BRANCH   1  19
ATOM     19  C   UNL     1      -4.136   5.646   7.135  0.00  0.00    +0.202 C 
ATOM     20  O   UNL     1      -4.513   5.465   8.280  0.00  0.00    -0.286 OA
BRANCH  19  25
ATOM     21  C   UNL     1      -4.292  10.929   4.854  0.00  0.00    +0.044 C 
ATOM     22  C   UNL     1      -4.251   9.546   5.451  0.00  0.00    -0.050 A 
ATOM     23  C   UNL     1      -5.176   9.184   6.414  0.00  0.00    +0.004 A 
ATOM     24  C   UNL     1      -5.144   7.919   6.965  0.00  0.00    +0.012 A 
ATOM     25  C   UNL     1      -4.176   7.004   6.548  0.00  0.00    +0.023 A 
ATOM     26  C   UNL     1      -3.243   7.377   5.580  0.00  0.00    +0.012 A 
ATOM     27  C   UNL     1      -3.289   8.643   5.033  0.00  0.00    +0.004 A 
ENDBRANCH  19  25
ENDBRANCH   1  19
BRANCH   4  28
ATOM     28  N   UNL     1      -2.278   2.096   3.448  0.00  0.00    -0.305 N 
ATOM     29  H   UNL     1      -2.136   1.008   3.516  0.00  0.00    +0.153 HD
BRANCH  28  30
ATOM     30  C   UNL     1      -1.988   2.766   2.253  0.00  0.00    +0.074 A 
ATOM     31  C   UNL     1      -1.655   4.113   2.274  0.00  0.00    +0.027 A 
ATOM     32  C   UNL     1      -1.369   4.772   1.094  0.00  0.00    +0.002 A 
ATOM     33  C   UNL     1      -1.414   4.093  -0.110  0.00  0.00    +0.004 A 
ATOM     34  C   UNL     1      -1.740   2.749  -0.138  0.00  0.00    +0.047 A 
ATOM     35  C   UNL     1      -2.033   2.082   1.040  0.00  0.00    +0.141 A 
BRANCH  35  36
ATOM     36  O   UNL     1      -2.358   0.762   1.014  0.00  0.00    -0.493 OA
ATOM     37  C   UNL     1      -2.385   0.126  -0.266  0.00  0.00    +0.277 C 
ENDBRANCH  35  36
ENDBRANCH  28  30
ENDBRANCH   4  28
TORSDOF 8
