REMARK  Name = ZINC14536367
REMARK  12 active torsions:
REMARK  status: ('A' for Active; 'I' for Inactive)
REMARK    1  A    between atoms: C_1  and  C_2
REMARK    2  A    between atoms: C_2  and  C_3
REMARK    3  A    between atoms: C_2  and  C_4
REMARK    4  A    between atoms: C_4  and  N_5
REMARK    5  A    between atoms: C_8  and  C_10
REMARK    6  A    between atoms: N_12  and  C_13
REMARK    7  A    between atoms: N_12  and  C_14
REMARK    8  A    between atoms: C_16  and  N_64
REMARK    9  A    between atoms: C_20  and  C_21
REMARK   10  A    between atoms: C_20  and  N_64
REMARK   11  A    between atoms: C_21  and  C_22
REMARK   12  A    between atoms: C_24  and  C_27
REMARK                            x       y       z     vdW  Elec       q    Type
REMARK                         _______ _______ _______ _____ _____    ______ ____
ROOT
ATOM      1  N   UNL     1      10.398   3.824   6.467  0.00  0.00    -0.267 N 
ATOM      2  C   UNL     1       9.598   3.470   5.448  0.00  0.00    +0.043 A 
ATOM      3  C   UNL     1      10.346   2.738   4.586  0.00  0.00    +0.004 A 
ATOM      4  C   UNL     1      11.633   2.680   5.146  0.00  0.00    +0.151 A 
ATOM      5  N   UNL     1      11.584   3.358   6.280  0.00  0.00    -0.166 NA
ATOM      6  C   UNL     1       9.834   2.140   3.305  0.00  0.00    +0.023 C 
ATOM      7  C   UNL     1       8.300   2.141   3.353  0.00  0.00    -0.067 C 
ATOM      8  C   UNL     1       7.802   3.531   3.760  0.00  0.00    -0.009 C 
ATOM      9  C   UNL     1       8.140   3.789   5.234  0.00  0.00    +0.054 C 
ENDROOT
BRANCH   4  10
ATOM     10  C   UNL     1      12.812   1.994   4.579  0.00  0.00    +0.267 C 
ATOM     11  O   UNL     1      12.752   1.499   3.470  0.00  0.00    -0.268 OA
ATOM     12  N   UNL     1      13.954   1.916   5.291  0.00  0.00    -0.302 N 
ATOM     13  C   UNL     1      15.162   1.359   4.678  0.00  0.00    +0.132 C 
ATOM     14  C   UNL     1      13.986   2.388   6.677  0.00  0.00    +0.132 C 
ENDBRANCH   4  10
BRANCH   7  15
ATOM     15  N   UNL     1       7.774   1.801   2.017  0.00  0.00    +0.381 N 
ATOM     16  H   UNL     1       8.399   1.121   1.570  0.00  0.00    -0.086 HD
ATOM     17  H   UNL     1       7.728   2.652   1.445  0.00  0.00    -0.086 HD
BRANCH  15  18
ATOM     18  C   UNL     1       6.423   1.219   2.132  0.00  0.00    -0.075 C 
BRANCH  18  19
ATOM     19  C   UNL     1       5.905   0.877   0.734  0.00  0.00    +0.044 C 
BRANCH  19  20
ATOM     20  C   UNL     1       4.525   0.281   0.842  0.00  0.00    +0.077 A 
ATOM     21  N   UNL     1       3.364   0.889   0.818  0.00  0.00    -0.244 NA
ATOM     22  C   UNL     1       2.229   0.217   0.930  0.00  0.00    +0.078 A 
ATOM     23  C   UNL     1       2.301  -1.144   1.061  0.00  0.00    +0.075 A 
ATOM     24  S   UNL     1       4.071  -1.385   1.021  0.00  0.00    -0.080 S 
BRANCH  22  25
ATOM     25  C   UNL     1       0.920   0.915   0.909  0.00  0.00    +0.001 A 
ATOM     26  C   UNL     1      -0.257   0.202   1.127  0.00  0.00    +0.010 A 
ATOM     27  C   UNL     1      -1.472   0.856   1.102  0.00  0.00    +0.001 A 
ATOM     28  C   UNL     1      -1.522   2.219   0.870  0.00  0.00    +0.000 A 
ATOM     29  C   UNL     1      -0.356   2.932   0.653  0.00  0.00    +0.001 A 
ATOM     30  C   UNL     1       0.864   2.287   0.671  0.00  0.00    +0.010 A 
ENDBRANCH  22  25
ENDBRANCH  19  20
ENDBRANCH  18  19
ENDBRANCH  15  18
ENDBRANCH   7  15
BRANCH   1  31
ATOM     31  C   UNL     1       9.982   4.622   7.623  0.00  0.00    +0.146 C 
BRANCH  31  33
ATOM     32  C   UNL     1       9.158   4.517   9.979  0.00  0.00    +0.009 C 
ATOM     33  C   UNL     1       9.475   3.694   8.729  0.00  0.00    +0.004 C 
ATOM     34  C   UNL     1       8.208   2.980   8.254  0.00  0.00    +0.009 C 
ENDBRANCH  31  33
ENDBRANCH   1  31
TORSDOF 8
