REMARK  Name = ZINC39606407
REMARK  9 active torsions:
REMARK  status: ('A' for Active; 'I' for Inactive)
REMARK    1  A    between atoms: C_1  and  C_2
REMARK    2  A    between atoms: C_2  and  C_3
REMARK    3  A    between atoms: C_3  and  C_5
REMARK    4  A    between atoms: C_3  and  C_6
REMARK    5  A    between atoms: C_6  and  N_7
REMARK    6  A    between atoms: C_8  and  C_10
REMARK    7  A    between atoms: C_21  and  C_23
REMARK    8  A    between atoms: C_28  and  O_29
REMARK    9  A    between atoms: O_29  and  C_30
REMARK                            x       y       z     vdW  Elec       q    Type
REMARK                         _______ _______ _______ _____ _____    ______ ____
ROOT
ATOM      1  C   UNL     1      -4.827  -4.394   0.122  0.00  0.00    +0.100 C 
ATOM      2  C   UNL     1      -5.227  -3.954   1.548  0.00  0.00    +0.121 C 
ATOM      3  N   UNL     1      -5.951  -5.119   2.110  0.00  0.00    -0.296 N 
ATOM      4  C   UNL     1      -5.192  -6.295   1.622  0.00  0.00    +0.115 C 
ATOM      5  C   UNL     1      -4.805  -5.931   0.175  0.00  0.00    -0.004 C 
ATOM      6  C   UNL     1      -5.822  -6.508  -0.805  0.00  0.00    -0.010 C 
ATOM      7  C   UNL     1      -5.741  -8.037  -0.775  0.00  0.00    -0.082 C 
ATOM      8  N   UNL     1      -4.384  -8.464  -1.139  0.00  0.00    +0.379 N 
ATOM      9  C   UNL     1      -3.422  -7.982  -0.140  0.00  0.00    -0.082 C 
ATOM     10  C   UNL     1      -3.406  -6.451  -0.143  0.00  0.00    -0.010 C 
ATOM     11  C   UNL     1      -7.050  -5.110   2.889  0.00  0.00    +0.252 C 
ATOM     12  O   UNL     1      -7.476  -6.152   3.352  0.00  0.00    -0.270 OA
ATOM     13  H   UNL     1      -4.349  -9.472  -1.178  0.00  0.00    -0.086 HD
ATOM     14  H   UNL     1      -4.145  -8.087  -2.044  0.00  0.00    -0.086 HD
ENDROOT
BRANCH  11  15
ATOM     15  C   UNL     1      -7.738  -3.838   3.181  0.00  0.00    +0.099 A 
ATOM     16  C   UNL     1      -7.010  -2.652   3.331  0.00  0.00    +0.020 A 
ATOM     17  C   UNL     1      -7.702  -1.486   3.603  0.00  0.00    +0.021 A 
ATOM     18  C   UNL     1      -9.080  -1.524   3.719  0.00  0.00    +0.114 A 
ATOM     19  N   UNL     1      -9.747  -2.653   3.575  0.00  0.00    -0.220 NA
ATOM     20  C   UNL     1      -9.135  -3.794   3.308  0.00  0.00    +0.233 A 
BRANCH  20  21
ATOM     21  O   UNL     1      -9.860  -4.929   3.162  0.00  0.00    -0.437 OA
BRANCH  21  22
ATOM     22  C   UNL     1     -11.198  -4.864   3.387  0.00  0.00    +0.130 A 
ATOM     23  C   UNL     1     -11.724  -5.317   4.588  0.00  0.00    +0.046 A 
ATOM     24  C   UNL     1     -13.085  -5.249   4.814  0.00  0.00    +0.004 A 
ATOM     25  C   UNL     1     -13.924  -4.730   3.845  0.00  0.00    +0.000 A 
ATOM     26  C   UNL     1     -13.402  -4.278   2.647  0.00  0.00    +0.004 A 
ATOM     27  C   UNL     1     -12.041  -4.338   2.418  0.00  0.00    +0.046 A 
ENDBRANCH  21  22
ENDBRANCH  20  21
ENDBRANCH  11  15
BRANCH   1  29
ATOM     28  N   UNL     1      -3.133  -3.645  -1.517  0.00  0.00    -0.315 N 
ATOM     29  C   UNL     1      -3.462  -3.861  -0.228  0.00  0.00    +0.218 C 
ATOM     30  O   UNL     1      -2.659  -3.627   0.650  0.00  0.00    -0.275 OA
ATOM     31  H   UNL     1      -3.775  -3.833  -2.220  0.00  0.00    +0.149 HD
BRANCH  28  32
ATOM     32  C   UNL     1      -1.806  -3.127  -1.857  0.00  0.00    +0.107 C 
BRANCH  32  33
ATOM     33  C   UNL     1      -1.691  -2.974  -3.376  0.00  0.00    +0.003 C 
ATOM     34  C   UNL     1      -1.769  -4.353  -4.034  0.00  0.00    +0.009 C 
BRANCH  33  36
ATOM     35  C   UNL     1      -0.292  -2.050  -5.228  0.00  0.00    +0.004 C 
ATOM     36  C   UNL     1      -0.354  -2.317  -3.723  0.00  0.00    +0.001 C 
ENDBRANCH  33  36
ENDBRANCH  32  33
ENDBRANCH  28  32
ENDBRANCH   1  29
TORSDOF 7
