REMARK  Name = ZINC20112186
REMARK  7 active torsions:
REMARK  status: ('A' for Active; 'I' for Inactive)
REMARK    1  A    between atoms: C_1  and  C_2
REMARK    2  A    between atoms: C_7  and  C_40
REMARK    3  A    between atoms: C_18  and  C_20
REMARK    4  A    between atoms: C_20  and  N_21
REMARK    5  A    between atoms: N_24  and  C_27
REMARK    6  A    between atoms: C_27  and  C_28
REMARK    7  A    between atoms: C_27  and  C_34
REMARK                            x       y       z     vdW  Elec       q    Type
REMARK                         _______ _______ _______ _____ _____    ______ ____
ROOT
ATOM      1  N   UNL     1      -3.006   2.308   5.673  0.00  0.00    +0.382 N 
ATOM      2  C   UNL     1      -1.672   2.260   6.288  0.00  0.00    -0.063 C 
ATOM      3  C   UNL     1      -1.645   3.177   7.513  0.00  0.00    +0.067 C 
ATOM      4  N   UNL     1      -2.678   2.748   8.466  0.00  0.00    -0.295 NA
ATOM      5  C   UNL     1      -4.012   2.796   7.850  0.00  0.00    +0.067 C 
ATOM      6  C   UNL     1      -4.039   1.879   6.626  0.00  0.00    -0.063 C 
ATOM      7  H   UNL     1      -3.214   3.351   5.393  0.00  0.00    -0.082 HD
ENDROOT
BRANCH   1   8
ATOM      8  C   UNL     1      -3.050   1.497   4.448  0.00  0.00    -0.063 C 
BRANCH   8  23
ATOM      9  C   UNL     1       0.305   6.542   4.808  0.00  0.00    +0.012 C 
ATOM     10  C   UNL     1      -1.055   6.642   4.175  0.00  0.00    +0.012 C 
ATOM     11  C   UNL     1      -1.108   7.956   3.277  0.00  0.00    +0.007 C 
ATOM     12  C   UNL     1      -0.454   7.790   1.895  0.00  0.00    +0.001 C 
ATOM     13  C   UNL     1      -1.044   6.623   1.151  0.00  0.00    +0.011 C 
ATOM     14  C   UNL     1      -0.942   5.342   1.867  0.00  0.00    -0.007 C 
ATOM     15  C   UNL     1      -1.487   5.452   3.299  0.00  0.00    -0.064 C 
ATOM     16  C   UNL     1      -2.244   4.664   3.783  0.00  0.00    -0.019 C 
ATOM     17  C   UNL     1      -2.979   3.498   3.066  0.00  0.00    +0.064 C 
ATOM     18  C   UNL     1      -2.801   3.627   1.565  0.00  0.00    +0.185 C 
ATOM     19  C   UNL     1      -1.422   4.087   1.204  0.00  0.00    +0.056 C 
ATOM     20  O   UNL     1      -2.935   2.268   1.036  0.00  0.00    -0.461 OA
ATOM     21  C   UNL     1      -2.628   1.440   2.061  0.00  0.00    +0.309 C 
ATOM     22  O   UNL     1      -2.485   0.175   1.900  0.00  0.00    -0.251 OA
ATOM     23  C   UNL     1      -2.288   2.184   3.371  0.00  0.00    +0.092 C 
ATOM     24  C   UNL     1       0.635   5.101   1.980  0.00  0.00    +0.016 C 
ENDBRANCH   8  23
ENDBRANCH   1   8
BRANCH   4  25
ATOM     25  C   UNL     1      -2.634   3.559   9.690  0.00  0.00    +0.117 C 
BRANCH  25  26
ATOM     26  C   UNL     1      -3.703   3.088  10.643  0.00  0.00    -0.026 A 
ATOM     27  C   UNL     1      -3.876   1.737  10.875  0.00  0.00    +0.005 A 
ATOM     28  C   UNL     1      -4.853   1.306  11.752  0.00  0.00    +0.000 A 
ATOM     29  C   UNL     1      -5.663   2.226  12.391  0.00  0.00    +0.000 A 
ATOM     30  C   UNL     1      -5.494   3.577  12.155  0.00  0.00    +0.000 A 
ATOM     31  C   UNL     1      -4.514   4.008  11.281  0.00  0.00    +0.005 A 
ENDBRANCH  25  26
BRANCH  25  32
ATOM     32  C   UNL     1      -1.282   3.413  10.341  0.00  0.00    -0.026 A 
ATOM     33  C   UNL     1      -0.670   2.175  10.394  0.00  0.00    +0.005 A 
ATOM     34  C   UNL     1       0.572   2.043  10.986  0.00  0.00    +0.000 A 
ATOM     35  C   UNL     1       1.198   3.147  11.533  0.00  0.00    +0.000 A 
ATOM     36  C   UNL     1       0.583   4.384  11.485  0.00  0.00    +0.000 A 
ATOM     37  C   UNL     1      -0.657   4.518  10.889  0.00  0.00    +0.005 A 
ENDBRANCH  25  32
ENDBRANCH   4  25
TORSDOF 5
