REMARK  Name = ZINC37037602
REMARK  6 active torsions:
REMARK  status: ('A' for Active; 'I' for Inactive)
REMARK    1  A    between atoms: C_1  and  N_2
REMARK    2  A    between atoms: C_6  and  C_8
REMARK    3  A    between atoms: C_8  and  C_9
REMARK    4  A    between atoms: C_9  and  S_10
REMARK    5  A    between atoms: S_10  and  C_11
REMARK    6  A    between atoms: C_17  and  N_19
REMARK                            x       y       z     vdW  Elec       q    Type
REMARK                         _______ _______ _______ _____ _____    ______ ____
ROOT
ATOM      1  S   UNL     1       1.948  -6.487  -3.322  0.00  0.00    -0.087 S 
ENDROOT
BRANCH   1   2
ATOM      2  C   UNL     1       2.794  -6.893  -4.813  0.00  0.00    +0.171 A 
ATOM      3  N   UNL     1       2.984  -8.203  -5.137  0.00  0.00    -0.302 N 
ATOM      4  H   UNL     1       2.654  -8.900  -4.548  0.00  0.00    +0.171 HD
ATOM      5  C   UNL     1       3.630  -8.533  -6.275  0.00  0.00    +0.254 A 
ATOM      6  O   UNL     1       3.804  -9.704  -6.573  0.00  0.00    -0.268 OA
ATOM      7  C   UNL     1       4.096  -7.510  -7.107  0.00  0.00    +0.113 A 
ATOM      8  C   UNL     1       3.877  -6.192  -6.732  0.00  0.00    +0.124 A 
ATOM      9  N   UNL     1       3.225  -5.925  -5.595  0.00  0.00    -0.209 NA
BRANCH   8  10
ATOM     10  N   UNL     1       4.325  -5.160  -7.533  0.00  0.00    -0.343 N 
ATOM     11  H   UNL     1       4.794  -5.356  -8.359  0.00  0.00    +0.144 HD
ATOM     12  H   UNL     1       4.171  -4.240  -7.269  0.00  0.00    +0.144 HD
ENDBRANCH   8  10
ENDBRANCH   1   2
BRANCH   1  13
ATOM     13  C   UNL     1       1.923  -4.673  -3.312  0.00  0.00    +0.086 C 
BRANCH  13  14
ATOM     14  C   UNL     1       1.207  -4.179  -2.054  0.00  0.00    +0.107 C 
BRANCH  14  20
ATOM     15  C   UNL     1      -0.018   1.461   0.010  0.00  0.00    +0.129 C 
ATOM     16  N   UNL     1       0.002  -0.004   0.002  0.00  0.00    -0.302 N 
ATOM     17  C   UNL     1       0.585  -0.664  -1.018  0.00  0.00    +0.306 C 
ATOM     18  O   UNL     1       1.094  -0.045  -1.931  0.00  0.00    -0.252 OA
ATOM     19  N   UNL     1       0.603  -2.012  -1.025  0.00  0.00    -0.240 N 
ATOM     20  C   UNL     1       1.186  -2.673  -2.045  0.00  0.00    +0.221 C 
ATOM     21  O   UNL     1       1.694  -2.054  -2.956  0.00  0.00    -0.275 OA
ATOM     22  H   UNL     1      -0.404  -0.499   0.731  0.00  0.00    +0.150 HD
ATOM     23  H   UNL     1       0.197  -2.507  -0.297  0.00  0.00    +0.159 HD
ENDBRANCH  14  20
ENDBRANCH  13  14
ENDBRANCH   1  13
TORSDOF 5
