REMARK  Name = ZINC09728278
REMARK  9 active torsions:
REMARK  status: ('A' for Active; 'I' for Inactive)
REMARK    1  A    between atoms: C_1  and  C_2
REMARK    2  A    between atoms: C_4  and  C_33
REMARK    3  A    between atoms: C_5  and  C_9
REMARK    4  A    between atoms: C_7  and  C_8
REMARK    5  A    between atoms: C_15  and  C_17
REMARK    6  A    between atoms: C_17  and  C_18
REMARK    7  A    between atoms: C_18  and  C_19
REMARK    8  A    between atoms: C_19  and  N_20
REMARK    9  A    between atoms: C_24  and  N_30
REMARK                            x       y       z     vdW  Elec       q    Type
REMARK                         _______ _______ _______ _____ _____    ______ ____
ROOT
ATOM      1  C   UNL     1      -4.686  10.662  -6.009  0.00  0.00    +0.080 A 
ATOM      2  C   UNL     1      -4.138   9.776  -6.893  0.00  0.00    +0.076 A 
ATOM      3  S   UNL     1      -3.424   8.584  -5.768  0.00  0.00    -0.060 S 
ATOM      4  C   UNL     1      -3.926   9.382  -4.250  0.00  0.00    +0.165 A 
ATOM      5  N   UNL     1      -4.571  10.439  -4.708  0.00  0.00    -0.225 NA
ATOM      6  N   UNL     1      -3.702   8.992  -2.935  0.00  0.00    -0.265 N 
ATOM      7  C   UNL     1      -3.016   7.861  -2.676  0.00  0.00    +0.219 C 
ATOM      8  O   UNL     1      -2.594   7.184  -3.590  0.00  0.00    -0.275 OA
ATOM      9  H   UNL     1      -4.039   9.533  -2.204  0.00  0.00    +0.157 HD
ENDROOT
BRANCH   1  14
ATOM     10  C   UNL     1      -7.498  15.311  -7.919  0.00  0.00    +0.044 C 
ATOM     11  C   UNL     1      -6.762  14.095  -7.419  0.00  0.00    -0.047 A 
ATOM     12  C   UNL     1      -6.754  13.801  -6.067  0.00  0.00    +0.007 A 
ATOM     13  C   UNL     1      -6.082  12.689  -5.604  0.00  0.00    -0.041 A 
ATOM     14  C   UNL     1      -5.410  11.860  -6.501  0.00  0.00    +0.004 A 
ATOM     15  C   UNL     1      -5.417  12.163  -7.861  0.00  0.00    +0.014 A 
ATOM     16  C   UNL     1      -6.097  13.276  -8.314  0.00  0.00    -0.047 A 
ATOM     17  C   UNL     1      -6.111  13.602  -9.785  0.00  0.00    +0.044 C 
ATOM     18  C   UNL     1      -6.074  12.371  -4.131  0.00  0.00    +0.044 C 
ENDBRANCH   1  14
BRANCH   7  19
ATOM     19  C   UNL     1      -2.773   7.437  -1.250  0.00  0.00    +0.098 C 
BRANCH  19  20
ATOM     20  C   UNL     1      -1.977   6.130  -1.235  0.00  0.00    +0.031 C 
BRANCH  20  21
ATOM     21  C   UNL     1      -1.730   5.700   0.212  0.00  0.00    +0.129 C 
BRANCH  21  22
ATOM     22  N   UNL     1      -0.968   4.449   0.227  0.00  0.00    -0.274 N 
ATOM     23  C   UNL     1       0.421   4.330   0.245  0.00  0.00    +0.090 A 
ATOM     24  C   UNL     1       1.456   5.253   0.256  0.00  0.00    +0.032 A 
ATOM     25  C   UNL     1       2.766   4.816   0.275  0.00  0.00    +0.035 A 
ATOM     26  C   UNL     1       3.048   3.461   0.283  0.00  0.00    +0.130 A 
ATOM     27  C   UNL     1       2.022   2.535   0.272  0.00  0.00    +0.081 A 
ATOM     28  C   UNL     1       0.704   2.964   0.247  0.00  0.00    +0.159 A 
ATOM     29  O   UNL     1      -0.482   2.308   0.240  0.00  0.00    -0.407 OA
ATOM     30  C   UNL     1      -1.482   3.203   0.224  0.00  0.00    +0.421 A 
ATOM     31  O   UNL     1      -2.667   2.932   0.210  0.00  0.00    -0.223 OA
BRANCH  26  32
ATOM     32  N   UNL     1       4.454   3.001   0.302  0.00  0.00    +0.057 N 
ATOM     33  O   UNL     1       4.705   1.809   0.309  0.00  0.00    -0.126 OA
ATOM     34  O   UNL     1       5.361   3.814   0.312  0.00  0.00    -0.126 OA
ENDBRANCH  26  32
ENDBRANCH  21  22
ENDBRANCH  20  21
ENDBRANCH  19  20
ENDBRANCH   7  19
TORSDOF 6
