REMARK  Name = ZINC43740454
REMARK  6 active torsions:
REMARK  status: ('A' for Active; 'I' for Inactive)
REMARK    1  A    between atoms: C_1  and  C_2
REMARK    2  A    between atoms: C_19  and  C_21
REMARK    3  A    between atoms: C_21  and  N_22
REMARK    4  A    between atoms: N_25  and  C_28
REMARK    5  A    between atoms: C_28  and  C_29
REMARK    6  A    between atoms: C_28  and  C_35
REMARK                            x       y       z     vdW  Elec       q    Type
REMARK                         _______ _______ _______ _____ _____    ______ ____
ROOT
ATOM      1  N   UNL     1      -2.022  -3.512   4.422  0.00  0.00    +0.382 N 
ATOM      2  C   UNL     1      -3.206  -3.923   3.655  0.00  0.00    -0.063 C 
ATOM      3  C   UNL     1      -3.417  -5.431   3.811  0.00  0.00    +0.067 C 
ATOM      4  N   UNL     1      -3.598  -5.752   5.234  0.00  0.00    -0.295 NA
ATOM      5  C   UNL     1      -2.432  -5.323   6.019  0.00  0.00    +0.067 C 
ATOM      6  C   UNL     1      -2.229  -3.816   5.844  0.00  0.00    -0.063 C 
ATOM      7  H   UNL     1      -1.213  -4.011   4.085  0.00  0.00    -0.082 HD
ENDROOT
BRANCH   1   8
ATOM      8  C   UNL     1      -1.810  -2.068   4.257  0.00  0.00    -0.064 C 
BRANCH   8  24
ATOM      9  C   UNL     1       1.327  -3.133  -0.558  0.00  0.00    +0.012 C 
ATOM     10  C   UNL     1      -0.112  -2.619  -0.482  0.00  0.00    -0.022 C 
ATOM     11  C   UNL     1      -0.708  -2.556  -1.887  0.00  0.00    +0.007 C 
ATOM     12  C   UNL     1      -0.614  -3.932  -2.550  0.00  0.00    +0.005 C 
ATOM     13  C   UNL     1      -1.456  -4.940  -1.762  0.00  0.00    +0.030 C 
ATOM     14  C   UNL     1      -1.021  -4.910  -0.313  0.00  0.00    -0.073 C 
ATOM     15  C   UNL     1      -0.710  -6.013   0.321  0.00  0.00    +0.008 C 
ATOM     16  C   UNL     1      -0.954  -3.570   0.382  0.00  0.00    +0.021 C 
ATOM     17  C   UNL     1      -0.244  -3.726   1.726  0.00  0.00    +0.016 C 
ATOM     18  C   UNL     1      -0.097  -2.400   2.430  0.00  0.00    +0.042 C 
ATOM     19  C   UNL     1       0.514  -1.290   1.552  0.00  0.00    +0.181 C 
ATOM     20  C   UNL     1      -0.130  -1.242   0.175  0.00  0.00    +0.052 C 
ATOM     21  O   UNL     1       0.072  -0.096   2.257  0.00  0.00    -0.461 OA
ATOM     22  C   UNL     1      -1.216  -0.286   2.613  0.00  0.00    +0.309 C 
ATOM     23  O   UNL     1      -2.044   0.583   2.751  0.00  0.00    -0.251 OA
ATOM     24  C   UNL     1      -1.453  -1.768   2.799  0.00  0.00    +0.088 C 
ENDBRANCH   8  24
ENDBRANCH   1   8
BRANCH   4  25
ATOM     25  C   UNL     1      -3.861  -7.185   5.421  0.00  0.00    +0.117 C 
BRANCH  25  26
ATOM     26  C   UNL     1      -4.041  -7.475   6.888  0.00  0.00    -0.026 A 
ATOM     27  C   UNL     1      -4.749  -6.595   7.685  0.00  0.00    +0.005 A 
ATOM     28  C   UNL     1      -4.915  -6.862   9.032  0.00  0.00    +0.000 A 
ATOM     29  C   UNL     1      -4.372  -8.008   9.581  0.00  0.00    +0.000 A 
ATOM     30  C   UNL     1      -3.665  -8.889   8.784  0.00  0.00    +0.000 A 
ATOM     31  C   UNL     1      -3.503  -8.625   7.437  0.00  0.00    +0.005 A 
ENDBRANCH  25  26
BRANCH  25  32
ATOM     32  C   UNL     1      -5.113  -7.567   4.675  0.00  0.00    -0.026 A 
ATOM     33  C   UNL     1      -6.202  -6.715   4.670  0.00  0.00    +0.005 A 
ATOM     34  C   UNL     1      -7.351  -7.066   3.986  0.00  0.00    +0.000 A 
ATOM     35  C   UNL     1      -7.411  -8.269   3.307  0.00  0.00    +0.000 A 
ATOM     36  C   UNL     1      -6.322  -9.121   3.312  0.00  0.00    +0.000 A 
ATOM     37  C   UNL     1      -5.172  -8.768   3.993  0.00  0.00    +0.005 A 
ENDBRANCH  25  32
ENDBRANCH   4  25
TORSDOF 5
