REMARK  Name = ZINC13065188
REMARK  11 active torsions:
REMARK  status: ('A' for Active; 'I' for Inactive)
REMARK    1  A    between atoms: C_1  and  C_2
REMARK    2  A    between atoms: C_2  and  C_3
REMARK    3  A    between atoms: C_3  and  C_5
REMARK    4  A    between atoms: C_3  and  N_69
REMARK    5  A    between atoms: N_9  and  C_10
REMARK    6  A    between atoms: C_15  and  C_16
REMARK    7  A    between atoms: C_15  and  N_69
REMARK    8  A    between atoms: C_23  and  C_24
REMARK    9  A    between atoms: C_23  and  N_69
REMARK   10  A    between atoms: C_27  and  C_37
REMARK   11  A    between atoms: C_30  and  C_36
REMARK                            x       y       z     vdW  Elec       q    Type
REMARK                         _______ _______ _______ _____ _____    ______ ____
ROOT
ATOM      1  N   UNL     1      -0.319  -0.043   0.088  0.00  0.00    +0.392 N 
ATOM      2  H   UNL     1      -1.187  -0.546   0.311  0.00  0.00    -0.080 HD
ENDROOT
BRANCH   1   3
ATOM      3  C   UNL     1      -0.601   1.408   0.054  0.00  0.00    +0.003 C 
BRANCH   3   4
ATOM      4  C   UNL     1       0.603   2.168  -0.442  0.00  0.00    +0.138 A 
ATOM      5  N   UNL     1       1.329   1.883  -1.495  0.00  0.00    -0.115 NA
ATOM      6  N   UNL     1       2.262   2.766  -1.585  0.00  0.00    -0.023 NA
ATOM      7  N   UNL     1       2.155   3.603  -0.613  0.00  0.00    -0.044 NA
ATOM      8  N   UNL     1       1.143   3.268   0.114  0.00  0.00    -0.228 N 
BRANCH   8   9
ATOM      9  C   UNL     1       0.672   3.956   1.319  0.00  0.00    +0.111 C 
ATOM     10  C   UNL     1       0.340   5.426   0.992  0.00  0.00    +0.027 C 
ATOM     11  C   UNL     1       0.794   6.207   2.251  0.00  0.00    +0.002 C 
ATOM     12  C   UNL     1       2.091   5.466   2.663  0.00  0.00    +0.002 C 
ATOM     13  C   UNL     1       1.784   3.981   2.381  0.00  0.00    +0.027 C 
ENDBRANCH   8   9
ENDBRANCH   3   4
BRANCH   3  15
ATOM     14  C   UNL     1      -3.018   0.925  -0.353  0.00  0.00    +0.002 C 
ATOM     15  C   UNL     1      -1.784   1.660  -0.882  0.00  0.00    -0.011 C 
ENDBRANCH   3  15
ENDBRANCH   1   3
BRANCH   1  16
ATOM     16  C   UNL     1       0.688  -0.338   1.129  0.00  0.00    -0.042 C 
BRANCH  16  17
ATOM     17  C   UNL     1       0.011  -0.315   2.475  0.00  0.00    -0.064 A 
ATOM     18  C   UNL     1      -0.029   0.857   3.208  0.00  0.00    +0.004 A 
ATOM     19  C   UNL     1      -0.653   0.881   4.441  0.00  0.00    +0.038 A 
ATOM     20  C   UNL     1      -1.229  -0.272   4.947  0.00  0.00    +0.123 A 
ATOM     21  C   UNL     1      -1.185  -1.446   4.214  0.00  0.00    +0.038 A 
ATOM     22  C   UNL     1      -0.564  -1.466   2.979  0.00  0.00    +0.004 A 
ATOM     23  F   UNL     1      -1.836  -0.251   6.154  0.00  0.00    -0.205 F 
ENDBRANCH  16  17
ENDBRANCH   1  16
BRANCH   1  24
ATOM     24  C   UNL     1       0.171  -0.493  -1.232  0.00  0.00    -0.036 C 
BRANCH  24  25
ATOM     25  C   UNL     1       0.073  -1.996  -1.297  0.00  0.00    +0.001 A 
ATOM     26  C   UNL     1      -1.047  -2.578  -1.792  0.00  0.00    +0.017 A 
ATOM     27  C   UNL     1      -1.109  -4.040  -1.847  0.00  0.00    +0.002 A 
ATOM     28  C   UNL     1      -2.235  -4.698  -2.353  0.00  0.00    -0.041 A 
ATOM     29  C   UNL     1      -2.263  -6.064  -2.386  0.00  0.00    +0.004 A 
ATOM     30  C   UNL     1      -1.184  -6.804  -1.922  0.00  0.00    +0.005 A 
ATOM     31  C   UNL     1      -0.064  -6.177  -1.419  0.00  0.00    -0.026 A 
ATOM     32  C   UNL     1      -0.013  -4.787  -1.376  0.00  0.00    +0.052 A 
ATOM     33  N   UNL     1       1.095  -4.134  -0.879  0.00  0.00    -0.322 N 
ATOM     34  H   UNL     1       1.849  -4.650  -0.555  0.00  0.00    +0.169 HD
ATOM     35  C   UNL     1       1.145  -2.791  -0.838  0.00  0.00    +0.251 A 
ATOM     36  O   UNL     1       2.140  -2.247  -0.391  0.00  0.00    -0.268 OA
ATOM     37  C   UNL     1       1.100  -6.993  -0.920  0.00  0.00    +0.046 C 
ATOM     38  C   UNL     1      -3.411  -3.905  -2.859  0.00  0.00    +0.044 C 
ENDBRANCH  24  25
ENDBRANCH   1  24
TORSDOF 8
