REMARK  Name = ZINC49899683
REMARK  7 active torsions:
REMARK  status: ('A' for Active; 'I' for Inactive)
REMARK    1  A    between atoms: C_1  and  C_2
REMARK    2  A    between atoms: C_2  and  C_3
REMARK    3  A    between atoms: C_2  and  C_4
REMARK    4  A    between atoms: C_2  and  C_5
REMARK    5  A    between atoms: C_5  and  C_7
REMARK    6  A    between atoms: C_9  and  C_32
REMARK    7  A    between atoms: C_32  and  C_34
REMARK                            x       y       z     vdW  Elec       q    Type
REMARK                         _______ _______ _______ _____ _____    ______ ____
ROOT
ATOM      1  C   UNL     1       0.899  -1.979  -1.683  0.00  0.00    +0.152 C 
ATOM      2  C   UNL     1       1.835  -2.826  -0.787  0.00  0.00    +0.109 C 
ATOM      3  C   UNL     1       3.167  -2.873  -1.553  0.00  0.00    +0.108 C 
ATOM      4  C   UNL     1       3.790  -4.226  -1.533  0.00  0.00    -0.008 A 
ATOM      5  C   UNL     1       3.454  -5.426  -2.125  0.00  0.00    +0.006 A 
ATOM      6  C   UNL     1       4.265  -6.523  -1.866  0.00  0.00    +0.000 A 
ATOM      7  C   UNL     1       5.376  -6.423  -1.054  0.00  0.00    +0.002 A 
ATOM      8  C   UNL     1       5.746  -5.218  -0.475  0.00  0.00    +0.023 A 
ATOM      9  C   UNL     1       4.943  -4.108  -0.738  0.00  0.00    +0.038 A 
ATOM     10  N   UNL     1       5.124  -2.795  -0.339  0.00  0.00    -0.284 N 
ATOM     11  C   UNL     1       4.169  -1.984  -0.839  0.00  0.00    +0.231 C 
ATOM     12  O   UNL     1       4.114  -0.780  -0.741  0.00  0.00    -0.274 OA
ATOM     13  C   UNL     1       2.888  -2.330  -2.951  0.00  0.00    +0.125 C 
ATOM     14  N   UNL     1       1.431  -2.118  -3.044  0.00  0.00    -0.317 N 
ATOM     15  C   UNL     1       0.712  -2.048  -4.221  0.00  0.00    +0.072 C 
ATOM     16  C   UNL     1       1.202  -2.707  -5.286  0.00  0.00    +0.023 C 
ATOM     17  C   UNL     1       2.482  -3.433  -5.170  0.00  0.00    -0.019 A 
ATOM     18  C   UNL     1       3.318  -3.248  -4.061  0.00  0.00    -0.019 A 
ATOM     19  C   UNL     1       4.541  -3.883  -4.029  0.00  0.00    +0.006 A 
ATOM     20  C   UNL     1       4.913  -4.747  -5.043  0.00  0.00    +0.000 A 
ATOM     21  C   UNL     1       4.072  -4.966  -6.118  0.00  0.00    +0.001 A 
ATOM     22  C   UNL     1       2.861  -4.309  -6.188  0.00  0.00    +0.008 A 
ATOM     23  H   UNL     1       5.849  -2.495   0.232  0.00  0.00    +0.155 HD
ENDROOT
BRANCH   1  24
ATOM     24  C   UNL     1       0.896  -0.534  -1.256  0.00  0.00    +0.160 C 
ATOM     25  O   UNL     1       1.646   0.253  -1.781  0.00  0.00    -0.295 OA
BRANCH  24  27
ATOM     26  C   UNL     1       0.075   1.446  -0.008  0.00  0.00    +0.018 C 
ATOM     27  C   UNL     1      -0.043  -0.071  -0.172  0.00  0.00    +0.022 C 
ATOM     28  C   UNL     1       0.321  -0.756   1.146  0.00  0.00    +0.018 C 
ATOM     29  C   UNL     1      -1.480  -0.432  -0.554  0.00  0.00    +0.018 C 
ENDBRANCH  24  27
ENDBRANCH   1  24
BRANCH   2  30
ATOM     30  C   UNL     1       1.257  -4.194  -0.541  0.00  0.00    +0.170 C 
ATOM     31  O   UNL     1       0.511  -4.693  -1.357  0.00  0.00    -0.292 OA
BRANCH  30  32
ATOM     32  C   UNL     1       1.597  -4.926   0.689  0.00  0.00    +0.018 A 
ATOM     33  C   UNL     1       2.366  -4.311   1.683  0.00  0.00    +0.013 A 
ATOM     34  C   UNL     1       2.680  -5.002   2.833  0.00  0.00    +0.020 A 
ATOM     35  C   UNL     1       2.238  -6.304   3.005  0.00  0.00    +0.041 A 
ATOM     36  C   UNL     1       1.476  -6.920   2.025  0.00  0.00    +0.020 A 
ATOM     37  C   UNL     1       1.149  -6.238   0.873  0.00  0.00    +0.013 A 
ATOM     38 CL   UNL     1       2.640  -7.168   4.457  0.00  0.00    -0.084 Cl
ENDBRANCH  30  32
ENDBRANCH   2  30
TORSDOF 4
