REMARK  Name = ZINC09600981
REMARK  9 active torsions:
REMARK  status: ('A' for Active; 'I' for Inactive)
REMARK    1  A    between atoms: C_1  and  C_2
REMARK    2  A    between atoms: C_2  and  C_3
REMARK    3  A    between atoms: C_2  and  C_4
REMARK    4  A    between atoms: C_2  and  C_5
REMARK    5  A    between atoms: C_8  and  C_11
REMARK    6  A    between atoms: C_16  and  C_32
REMARK    7  A    between atoms: C_26  and  C_28
REMARK    8  A    between atoms: C_28  and  C_29
REMARK    9  A    between atoms: C_29  and  C_30
REMARK                            x       y       z     vdW  Elec       q    Type
REMARK                         _______ _______ _______ _____ _____    ______ ____
ROOT
ATOM      1  C   UNL     1      -0.806   1.616   1.304  0.00  0.00    +0.032 C 
ATOM      2  C   UNL     1      -2.253   1.125   1.198  0.00  0.00    +0.059 C 
ATOM      3  C   UNL     1      -2.895   1.667  -0.068  0.00  0.00    +0.017 C 
ATOM      4  C   UNL     1      -2.156   1.873  -1.170  0.00  0.00    +0.037 C 
ATOM      5  C   UNL     1      -2.662   2.409  -2.489  0.00  0.00    +0.148 C 
ATOM      6  N   UNL     1      -4.104   2.463  -2.598  0.00  0.00    -0.258 N 
ATOM      7  C   UNL     1      -4.855   3.297  -1.772  0.00  0.00    +0.058 A 
ATOM      8  C   UNL     1      -5.544   4.387  -2.282  0.00  0.00    +0.025 A 
ATOM      9  C   UNL     1      -6.211   5.236  -1.417  0.00  0.00    +0.002 A 
ATOM     10  C   UNL     1      -6.196   5.003  -0.054  0.00  0.00    +0.002 A 
ATOM     11  C   UNL     1      -5.529   3.903   0.457  0.00  0.00    +0.025 A 
ATOM     12  C   UNL     1      -4.878   3.043  -0.409  0.00  0.00    +0.053 A 
ATOM     13  N   UNL     1      -4.231   1.892   0.029  0.00  0.00    -0.316 N 
ATOM     14  C   UNL     1      -4.730   1.694  -3.512  0.00  0.00    +0.221 C 
ATOM     15  O   UNL     1      -4.085   0.965  -4.236  0.00  0.00    -0.275 OA
ATOM     16  C   UNL     1      -0.767   1.601  -1.160  0.00  0.00    +0.163 C 
ATOM     17  O   UNL     1      -0.129   1.770  -2.180  0.00  0.00    -0.292 OA
ATOM     18  C   UNL     1      -0.056   1.111   0.066  0.00  0.00    +0.088 C 
ATOM     19  H   UNL     1      -4.775   1.198   0.434  0.00  0.00    +0.152 HD
ENDROOT
BRANCH   1  23
ATOM     20  C   UNL     1       1.017   0.056   4.839  0.00  0.00    -0.042 A 
ATOM     21  C   UNL     1       0.945   1.423   4.644  0.00  0.00    +0.004 A 
ATOM     22  C   UNL     1       0.355   1.928   3.500  0.00  0.00    +0.004 A 
ATOM     23  C   UNL     1      -0.163   1.066   2.551  0.00  0.00    -0.043 A 
ATOM     24  C   UNL     1      -0.095  -0.301   2.748  0.00  0.00    +0.004 A 
ATOM     25  C   UNL     1       0.499  -0.806   3.890  0.00  0.00    +0.004 A 
BRANCH  20  27
ATOM     26  C   UNL     1       0.906   0.015   7.316  0.00  0.00    +0.015 C 
ATOM     27  C   UNL     1       1.660  -0.494   6.085  0.00  0.00    -0.013 C 
ATOM     28  C   UNL     1       1.608  -2.023   6.053  0.00  0.00    +0.015 C 
ATOM     29  C   UNL     1       3.117  -0.034   6.153  0.00  0.00    +0.015 C 
ENDBRANCH  20  27
ENDBRANCH   1  23
BRANCH   5  30
ATOM     30  C   UNL     1      -2.116   3.801  -2.680  0.00  0.00    -0.004 A 
ATOM     31  C   UNL     1      -2.478   4.822  -1.815  0.00  0.00    +0.009 A 
ATOM     32  C   UNL     1      -1.948   6.085  -2.027  0.00  0.00    +0.020 A 
ATOM     33  C   UNL     1      -1.090   6.286  -3.093  0.00  0.00    +0.111 A 
ATOM     34  N   UNL     1      -0.772   5.292  -3.899  0.00  0.00    -0.263 NA
ATOM     35  C   UNL     1      -1.253   4.077  -3.724  0.00  0.00    +0.116 A 
ENDBRANCH   5  30
BRANCH  14  36
ATOM     36  C   UNL     1      -6.231   1.742  -3.635  0.00  0.00    +0.107 C 
BRANCH  36  37
ATOM     37  C   UNL     1      -6.683   0.782  -4.738  0.00  0.00    +0.134 C 
BRANCH  37  38
ATOM     38  C   UNL     1      -8.184   0.829  -4.861  0.00  0.00    +0.356 C 
ATOM     39  O   UNL     1      -8.827   1.556  -4.140  0.00  0.00    -0.246 OA
ATOM     40  O   UNL     1      -8.807   0.064  -5.771  0.00  0.00    -0.246 OA
ENDBRANCH  37  38
ENDBRANCH  36  37
ENDBRANCH  14  36
TORSDOF 6
