REMARK  Name = ZINC65492066
REMARK  4 active torsions:
REMARK  status: ('A' for Active; 'I' for Inactive)
REMARK    1  A    between atoms: C_1  and  C_2
REMARK    2  A    between atoms: C_5  and  S_8
REMARK    3  A    between atoms: S_8  and  C_9
REMARK    4  A    between atoms: C_12  and  C_14
REMARK                            x       y       z     vdW  Elec       q    Type
REMARK                         _______ _______ _______ _____ _____    ______ ____
ROOT
ATOM      1  C   UNL     1       0.227  -4.966   1.677  0.00  0.00    +0.166 A 
ATOM      2  C   UNL     1       0.391  -6.219   2.164  0.00  0.00    +0.057 A 
ATOM      3  C   UNL     1       0.477  -6.102   3.570  0.00  0.00    +0.048 A 
ATOM      4  C   UNL     1       0.362  -4.795   3.863  0.00  0.00    +0.129 A 
ATOM      5  O   UNL     1       0.216  -4.110   2.713  0.00  0.00    -0.451 OA
ENDROOT
BRANCH   4   6
ATOM      6  C   UNL     1       0.396  -4.196   5.245  0.00  0.00    +0.169 C 
ATOM      7  C   UNL     1      -1.009  -3.900   5.706  0.00  0.00    +0.061 A 
ATOM      8  H   UNL     1      -3.231  -2.154   7.033  0.00  0.00    +0.166 HD
ATOM      9  C   UNL     1      -1.360  -2.751   6.328  0.00  0.00    +0.040 A 
ATOM     10  N   UNL     1      -2.690  -2.829   6.593  0.00  0.00    -0.349 N 
ATOM     11  C   UNL     1      -3.116  -4.026   6.127  0.00  0.00    +0.171 A 
ATOM     12  N   UNL     1      -2.101  -4.659   5.599  0.00  0.00    -0.348 N 
ATOM     13  C   UNL     1      -0.387  -1.642   6.635  0.00  0.00    +0.070 C 
ATOM     14  C   UNL     1       1.033  -2.208   6.494  0.00  0.00    +0.088 C 
ATOM     15  N   UNL     1       1.151  -2.932   5.220  0.00  0.00    -0.302 NA
ATOM     16  H   UNL     1       2.119  -3.093   4.984  0.00  0.00    +0.123 HD
ATOM     17  H   UNL     1      -2.136  -5.539   5.193  0.00  0.00    +0.166 HD
ENDBRANCH   4   6
BRANCH   1  18
ATOM     18  S   UNL     1       0.063  -4.533  -0.023  0.00  0.00    -0.052 S 
BRANCH  18  23
ATOM     19  C   UNL     1      -1.065   1.396   0.082  0.00  0.00    +0.044 C 
ATOM     20  C   UNL     1      -0.783  -0.084   0.056  0.00  0.00    -0.050 A 
ATOM     21  C   UNL     1       0.515  -0.537  -0.099  0.00  0.00    +0.004 A 
ATOM     22  C   UNL     1       0.777  -1.892  -0.123  0.00  0.00    +0.015 A 
ATOM     23  C   UNL     1      -0.266  -2.802   0.008  0.00  0.00    +0.016 A 
ATOM     24  C   UNL     1      -1.569  -2.344   0.164  0.00  0.00    +0.015 A 
ATOM     25  C   UNL     1      -1.822  -0.987   0.192  0.00  0.00    +0.004 A 
ENDBRANCH  18  23
ENDBRANCH   1  18
TORSDOF 3
