REMARK  Name = ZINC39667403
REMARK  7 active torsions:
REMARK  status: ('A' for Active; 'I' for Inactive)
REMARK    1  A    between atoms: C_1  and  S_2
REMARK    2  A    between atoms: S_2  and  C_3
REMARK    3  A    between atoms: C_6  and  C_9
REMARK    4  A    between atoms: C_9  and  N_10
REMARK    5  A    between atoms: C_11  and  C_13
REMARK    6  A    between atoms: C_24  and  C_26
REMARK    7  A    between atoms: C_29  and  C_31
REMARK                            x       y       z     vdW  Elec       q    Type
REMARK                         _______ _______ _______ _____ _____    ______ ____
ROOT
ATOM      1  C   UNL     1       6.666  -1.918  -5.563  0.00  0.00    +0.100 C 
ATOM      2  C   UNL     1       6.934  -2.983  -4.477  0.00  0.00    +0.121 C 
ATOM      3  N   UNL     1       7.236  -4.222  -5.233  0.00  0.00    -0.294 N 
ATOM      4  C   UNL     1       8.054  -3.762  -6.381  0.00  0.00    +0.115 C 
ATOM      5  C   UNL     1       7.406  -2.431  -6.810  0.00  0.00    -0.004 C 
ATOM      6  C   UNL     1       8.480  -1.434  -7.235  0.00  0.00    -0.010 C 
ATOM      7  C   UNL     1       9.162  -1.937  -8.510  0.00  0.00    -0.082 C 
ATOM      8  N   UNL     1       8.163  -2.093  -9.573  0.00  0.00    +0.379 N 
ATOM      9  C   UNL     1       7.186  -3.122  -9.196  0.00  0.00    -0.082 C 
ATOM     10  C   UNL     1       6.420  -2.668  -7.950  0.00  0.00    -0.010 C 
ATOM     11  C   UNL     1       6.853  -5.481  -4.942  0.00  0.00    +0.282 C 
ATOM     12  O   UNL     1       7.185  -6.400  -5.668  0.00  0.00    -0.267 OA
ATOM     13  H   UNL     1       7.686  -1.215  -9.716  0.00  0.00    -0.086 HD
ATOM     14  H   UNL     1       8.623  -2.366 -10.429  0.00  0.00    -0.086 HD
ENDROOT
BRANCH  11  15
ATOM     15  C   UNL     1       6.038  -5.743  -3.753  0.00  0.00    +0.190 A 
ATOM     16  C   UNL     1       5.586  -6.977  -3.339  0.00  0.00    +0.055 A 
ATOM     17  C   UNL     1       4.852  -6.765  -2.167  0.00  0.00    +0.050 A 
ATOM     18  C   UNL     1       4.883  -5.424  -1.912  0.00  0.00    +0.136 A 
ATOM     19  O   UNL     1       5.605  -4.819  -2.870  0.00  0.00    -0.450 OA
BRANCH  18  20
ATOM     20  C   UNL     1       4.235  -4.750  -0.768  0.00  0.00    +0.017 A 
ATOM     21  C   UNL     1       3.519  -5.495   0.171  0.00  0.00    +0.011 A 
ATOM     22  C   UNL     1       2.917  -4.860   1.237  0.00  0.00    +0.001 A 
ATOM     23  C   UNL     1       3.021  -3.487   1.377  0.00  0.00    +0.000 A 
ATOM     24  C   UNL     1       3.729  -2.743   0.451  0.00  0.00    +0.001 A 
ATOM     25  C   UNL     1       4.341  -3.366  -0.617  0.00  0.00    +0.011 A 
ENDBRANCH  18  20
ENDBRANCH  11  15
BRANCH   1  27
ATOM     26  N   UNL     1       4.668  -0.643  -6.272  0.00  0.00    -0.311 N 
ATOM     27  C   UNL     1       5.189  -1.808  -5.838  0.00  0.00    +0.218 C 
ATOM     28  O   UNL     1       4.467  -2.769  -5.669  0.00  0.00    -0.275 OA
ATOM     29  H   UNL     1       5.245   0.125  -6.407  0.00  0.00    +0.149 HD
BRANCH  26  30
ATOM     30  C   UNL     1       3.232  -0.536  -6.539  0.00  0.00    +0.139 C 
BRANCH  30  34
ATOM     31  C   UNL     1       2.321   3.421  -7.872  0.00  0.00    +0.008 A 
ATOM     32  C   UNL     1       2.656   2.436  -8.793  0.00  0.00    +0.015 A 
ATOM     33  C   UNL     1       2.950   1.158  -8.359  0.00  0.00    +0.006 A 
ATOM     34  C   UNL     1       2.911   0.859  -7.009  0.00  0.00    -0.030 A 
ATOM     35  C   UNL     1       2.577   1.837  -6.090  0.00  0.00    +0.006 A 
ATOM     36  C   UNL     1       2.288   3.118  -6.516  0.00  0.00    +0.015 A 
BRANCH  31  38
ATOM     37  C   UNL     1       2.116   4.958 -10.225  0.00  0.00    +0.090 C 
ATOM     38  S   UNL     1       1.945   5.052  -8.422  0.00  0.00    -0.129 S 
ENDBRANCH  31  38
ENDBRANCH  30  34
ENDBRANCH  26  30
ENDBRANCH   1  27
TORSDOF 6
