REMARK  Name = ZINC12557495
REMARK  7 active torsions:
REMARK  status: ('A' for Active; 'I' for Inactive)
REMARK    1  A    between atoms: C_1  and  C_2
REMARK    2  A    between atoms: C_2  and  C_4
REMARK    3  A    between atoms: C_2  and  S_18
REMARK    4  A    between atoms: C_4  and  C_6
REMARK    5  A    between atoms: C_6  and  C_16
REMARK    6  A    between atoms: S_18  and  C_19
REMARK    7  A    between atoms: C_22  and  C_24
REMARK                            x       y       z     vdW  Elec       q    Type
REMARK                         _______ _______ _______ _____ _____    ______ ____
ROOT
ATOM      1  C   UNL     1      -4.442  -4.521   1.456  0.00  0.00    +0.028 C 
ATOM      2  C   UNL     1      -4.203  -4.052   0.019  0.00  0.00    +0.124 C 
ENDROOT
BRANCH   2   3
ATOM      3  C   UNL     1      -3.181  -2.944   0.016  0.00  0.00    +0.189 C 
ATOM      4  O   UNL     1      -3.543  -1.784   0.026  0.00  0.00    -0.290 OA
BRANCH   3   5
ATOM      5  C   UNL     1      -1.811  -3.253   0.001  0.00  0.00    +0.123 C 
ATOM      6  C   UNL     1      -0.857  -2.218  -0.003  0.00  0.00    +0.091 C 
ATOM      7  N   UNL     1      -1.069  -0.876   0.007  0.00  0.00    -0.307 N 
ATOM      8  C   UNL     1       0.002  -0.004   0.002  0.00  0.00    +0.046 A 
ATOM      9  C   UNL     1      -0.017   1.400   0.010  0.00  0.00    +0.024 A 
ATOM     10  C   UNL     1       1.155   2.119   0.002  0.00  0.00    +0.002 A 
ATOM     11  C   UNL     1       2.386   1.485  -0.013  0.00  0.00    +0.001 A 
ATOM     12  C   UNL     1       2.434   0.102  -0.021  0.00  0.00    +0.017 A 
ATOM     13  C   UNL     1       1.263  -0.618  -0.013  0.00  0.00    +0.035 A 
ATOM     14  S   UNL     1       0.872  -2.349  -0.019  0.00  0.00    -0.071 S 
ATOM     15  H   UNL     1      -1.975  -0.530   0.018  0.00  0.00    +0.153 HD
BRANCH   5  16
ATOM     16  C   UNL     1      -1.385  -4.620  -0.012  0.00  0.00    +0.105 C 
ATOM     17  N   UNL     1      -1.047  -5.704  -0.021  0.00  0.00    -0.191 NA
ENDBRANCH   5  16
ENDBRANCH   3   5
ENDBRANCH   2   3
BRANCH   2  18
ATOM     18  S   UNL     1      -5.756  -3.443  -0.684  0.00  0.00    -0.054 S 
BRANCH  18  19
ATOM     19  C   UNL     1      -6.691  -4.936  -0.699  0.00  0.00    +0.278 A 
ATOM     20  N   UNL     1      -6.278  -6.116  -0.295  0.00  0.00    -0.101 NA
ATOM     21  N   UNL     1      -7.223  -6.976  -0.447  0.00  0.00    -0.106 NA
ATOM     22  C   UNL     1      -8.275  -6.382  -0.962  0.00  0.00    +0.257 A 
ATOM     23  O   UNL     1      -7.959  -5.078  -1.132  0.00  0.00    -0.410 OA
BRANCH  22  24
ATOM     24  C   UNL     1      -9.559  -7.017  -1.293  0.00  0.00    +0.095 A 
ATOM     25  C   UNL     1      -9.918  -8.319  -1.139  0.00  0.00    +0.068 A 
ATOM     26  C   UNL     1     -11.253  -8.730  -1.537  0.00  0.00    +0.008 A 
ATOM     27  C   UNL     1     -11.837 -10.020  -1.467  0.00  0.00    +0.010 A 
ATOM     28  C   UNL     1     -13.113 -10.227  -1.887  0.00  0.00    +0.001 A 
ATOM     29  C   UNL     1     -13.887  -9.192  -2.396  0.00  0.00    +0.001 A 
ATOM     30  C   UNL     1     -13.355  -7.921  -2.481  0.00  0.00    +0.016 A 
ATOM     31  C   UNL     1     -12.062  -7.696  -2.059  0.00  0.00    +0.021 A 
ATOM     32  S   UNL     1     -11.019  -6.263  -1.984  0.00  0.00    -0.082 S 
ATOM     33 CL   UNL     1      -8.800  -9.470  -0.478  0.00  0.00    -0.082 Cl
ENDBRANCH  22  24
ENDBRANCH  18  19
ENDBRANCH   2  18
TORSDOF 6
