REMARK  Name = ZINC66836102
REMARK  9 active torsions:
REMARK  status: ('A' for Active; 'I' for Inactive)
REMARK    1  A    between atoms: C_1  and  N_2
REMARK    2  A    between atoms: C_6  and  C_8
REMARK    3  A    between atoms: C_8  and  C_9
REMARK    4  A    between atoms: C_9  and  C_10
REMARK    5  A    between atoms: C_10  and  N_11
REMARK    6  A    between atoms: N_11  and  C_12
REMARK    7  A    between atoms: N_11  and  C_13
REMARK    8  A    between atoms: C_13  and  C_14
REMARK    9  A    between atoms: N_16  and  C_17
REMARK                            x       y       z     vdW  Elec       q    Type
REMARK                         _______ _______ _______ _____ _____    ______ ____
ROOT
ATOM      1  N   UNL     1       2.714  -6.724   4.412  0.00  0.00    +0.384 N 
ATOM      2  C   UNL     1       4.124  -6.320   4.331  0.00  0.00    -0.096 C 
ATOM      3  H   UNL     1       2.298  -6.330   5.242  0.00  0.00    -0.082 HD
ENDROOT
BRANCH   1   4
ATOM      4  C   UNL     1       1.996  -6.237   3.226  0.00  0.00    -0.078 C 
BRANCH   4   5
ATOM      5  C   UNL     1       1.980  -4.707   3.233  0.00  0.00    -0.009 C 
BRANCH   5   6
ATOM      6  C   UNL     1       1.232  -4.199   1.998  0.00  0.00    +0.094 C 
BRANCH   6  12
ATOM      7  C   UNL     1      -0.030   1.464   0.022  0.00  0.00    +0.129 C 
ATOM      8  N   UNL     1      -0.014  -0.001   0.016  0.00  0.00    -0.302 N 
ATOM      9  C   UNL     1       0.594  -0.673   1.014  0.00  0.00    +0.306 C 
ATOM     10  O   UNL     1       1.129  -0.064   1.919  0.00  0.00    -0.252 OA
ATOM     11  N   UNL     1       0.609  -2.021   1.007  0.00  0.00    -0.240 N 
ATOM     12  C   UNL     1       1.216  -2.693   2.005  0.00  0.00    +0.220 C 
ATOM     13  O   UNL     1       1.749  -2.085   2.909  0.00  0.00    -0.275 OA
ATOM     14  H   UNL     1      -0.441  -0.487  -0.707  0.00  0.00    +0.150 HD
ATOM     15  H   UNL     1       0.182  -2.507   0.285  0.00  0.00    +0.159 HD
ENDBRANCH   6  12
ENDBRANCH   5   6
ENDBRANCH   4   5
ENDBRANCH   1   4
BRANCH   1  16
ATOM     16  C   UNL     1       2.627  -8.190   4.468  0.00  0.00    +0.018 C 
BRANCH  16  17
ATOM     17  C   UNL     1       3.256  -8.681   5.747  0.00  0.00    +0.201 C 
ATOM     18  O   UNL     1       3.731  -7.888   6.533  0.00  0.00    -0.278 OA
ATOM     19  N   UNL     1       3.292 -10.001   6.016  0.00  0.00    -0.287 N 
ATOM     20  H   UNL     1       2.855 -10.630   5.421  0.00  0.00    +0.155 HD
BRANCH  19  21
ATOM     21  C   UNL     1       3.961 -10.465   7.154  0.00  0.00    +0.039 A 
ATOM     22  C   UNL     1       4.640 -11.675   7.117  0.00  0.00    +0.061 A 
ATOM     23  C   UNL     1       5.300 -12.132   8.243  0.00  0.00    +0.128 A 
ATOM     24  C   UNL     1       5.284 -11.383   9.408  0.00  0.00    +0.076 A 
ATOM     25  C   UNL     1       4.608 -10.175   9.447  0.00  0.00    +0.128 A 
ATOM     26  C   UNL     1       3.951  -9.712   8.321  0.00  0.00    +0.061 A 
ATOM     27  F   UNL     1       4.593  -9.447  10.585  0.00  0.00    -0.205 F 
ATOM     28  F   UNL     1       5.961 -13.310   8.208  0.00  0.00    -0.205 F 
ENDBRANCH  19  21
ENDBRANCH  16  17
ENDBRANCH   1  16
TORSDOF 7
