REMARK  Name = ZINC09952402
REMARK  6 active torsions:
REMARK  status: ('A' for Active; 'I' for Inactive)
REMARK    1  A    between atoms: C_3  and  C_7
REMARK    2  A    between atoms: C_10  and  S_18
REMARK    3  A    between atoms: N_11  and  C_12
REMARK    4  A    between atoms: C_12  and  C_13
REMARK    5  A    between atoms: S_18  and  C_19
REMARK    6  A    between atoms: C_20  and  N_34
REMARK                            x       y       z     vdW  Elec       q    Type
REMARK                         _______ _______ _______ _____ _____    ______ ____
ROOT
ATOM      1  S   UNL     1       8.826   2.231   0.595  0.00  0.00    -0.043 S 
ENDROOT
BRANCH   1   2
ATOM      2  C   UNL     1       8.920   3.959   0.264  0.00  0.00    +0.101 A 
ATOM      3  C   UNL     1       8.953   4.858   1.313  0.00  0.00    +0.054 A 
ATOM      4  C   UNL     1       9.032   6.304   1.017  0.00  0.00    +0.031 A 
ATOM      5  C   UNL     1       9.075   7.417   1.970  0.00  0.00    -0.026 A 
ATOM      6  C   UNL     1       9.146   8.661   1.455  0.00  0.00    -0.004 A 
ATOM      7  S   UNL     1       9.160   8.426  -0.302  0.00  0.00    -0.075 S 
ATOM      8  C   UNL     1       9.068   6.653  -0.333  0.00  0.00    +0.090 A 
ATOM      9  N   UNL     1       9.033   5.730  -1.331  0.00  0.00    -0.316 N 
ATOM     10  H   UNL     1       9.060   6.026  -2.254  0.00  0.00    +0.169 HD
ATOM     11  C   UNL     1       8.966   4.412  -1.061  0.00  0.00    +0.265 A 
ATOM     12  O   UNL     1       8.941   3.606  -1.978  0.00  0.00    -0.267 OA
ATOM     13  C   UNL     1       9.201   9.954   2.208  0.00  0.00    +0.043 C 
ATOM     14  C   UNL     1       8.789   9.684   3.663  0.00  0.00    +0.005 C 
ATOM     15  C   UNL     1       9.557   8.461   4.172  0.00  0.00    +0.005 C 
ATOM     16  C   UNL     1       9.043   7.199   3.480  0.00  0.00    +0.036 C 
BRANCH   3  17
ATOM     17  N   UNL     1       8.913   4.410   2.624  0.00  0.00    -0.356 N 
ATOM     18  H   UNL     1       9.081   3.476   2.823  0.00  0.00    +0.142 HD
ATOM     19  H   UNL     1       8.717   5.031   3.343  0.00  0.00    +0.142 HD
ENDBRANCH   3  17
ENDBRANCH   1   2
BRANCH   1  23
ATOM     20  C   UNL     1       5.456   0.634  -0.573  0.00  0.00    +0.167 A 
ATOM     21  N   UNL     1       5.350   1.873  -0.995  0.00  0.00    -0.128 NA
ATOM     22  N   UNL     1       6.404   2.537  -0.678  0.00  0.00    -0.122 NA
ATOM     23  C   UNL     1       7.249   1.762  -0.035  0.00  0.00    +0.197 A 
ATOM     24  N   UNL     1       6.673   0.526   0.060  0.00  0.00    -0.294 N 
BRANCH  20  27
ATOM     25  C   UNL     1       3.846  -2.751  -0.766  0.00  0.00    +0.020 A 
ATOM     26  C   UNL     1       4.822  -1.784  -0.598  0.00  0.00    +0.014 A 
ATOM     27  C   UNL     1       4.455  -0.440  -0.742  0.00  0.00    +0.037 A 
ATOM     28  C   UNL     1       3.128  -0.133  -1.046  0.00  0.00    +0.122 A 
ATOM     29  N   UNL     1       2.236  -1.090  -1.195  0.00  0.00    -0.263 NA
ATOM     30  C   UNL     1       2.553  -2.364  -1.066  0.00  0.00    +0.111 A 
ENDBRANCH  20  27
BRANCH  24  31
ATOM     31  C   UNL     1       7.235  -0.666   0.700  0.00  0.00    +0.200 C 
BRANCH  31  32
ATOM     32  C   UNL     1       8.137  -1.380  -0.274  0.00  0.00    +0.125 A 
ATOM     33  C   UNL     1       9.456  -1.168  -0.426  0.00  0.00    +0.046 A 
ATOM     34  C   UNL     1       9.899  -2.049  -1.440  0.00  0.00    +0.041 A 
ATOM     35  C   UNL     1       8.823  -2.746  -1.847  0.00  0.00    +0.195 A 
ATOM     36  O   UNL     1       7.760  -2.342  -1.133  0.00  0.00    -0.466 OA
ENDBRANCH  31  32
ENDBRANCH  24  31
ENDBRANCH   1  23
TORSDOF 6
