REMARK  Name = ZINC12039121
REMARK  7 active torsions:
REMARK  status: ('A' for Active; 'I' for Inactive)
REMARK    1  A    between atoms: C_1  and  C_2
REMARK    2  A    between atoms: C_6  and  C_13
REMARK    3  A    between atoms: C_13  and  C_14
REMARK    4  A    between atoms: N_16  and  C_17
REMARK    5  A    between atoms: C_17  and  C_18
REMARK    6  A    between atoms: C_18  and  N_63
REMARK    7  A    between atoms: C_27  and  C_30
REMARK                            x       y       z     vdW  Elec       q    Type
REMARK                         _______ _______ _______ _____ _____    ______ ____
ROOT
ATOM      1  C   UNL     1       4.795   4.555  -2.889  0.00  0.00    -0.059 C 
ENDROOT
BRANCH   1  12
ATOM      2  C   UNL     1       5.277   4.434  -0.521  0.00  0.00    -0.039 C 
ATOM      3  C   UNL     1       4.599   3.899   0.725  0.00  0.00    -0.022 A 
ATOM      4  C   UNL     1       4.784   2.586   1.106  0.00  0.00    +0.005 A 
ATOM      5  C   UNL     1       4.175   2.114   2.256  0.00  0.00    +0.000 A 
ATOM      6  C   UNL     1       3.388   2.956   3.020  0.00  0.00    +0.004 A 
ATOM      7  C   UNL     1       3.196   4.269   2.634  0.00  0.00    +0.046 A 
ATOM      8  C   UNL     1       3.799   4.740   1.476  0.00  0.00    +0.123 A 
ATOM      9  O   UNL     1       3.577   6.017   1.059  0.00  0.00    -0.486 OA
ATOM     10  C   UNL     1       2.782   6.146  -0.126  0.00  0.00    +0.190 C 
ATOM     11  C   UNL     1       3.643   6.031  -1.365  0.00  0.00    -0.028 C 
ATOM     12  N   UNL     1       4.227   4.684  -1.538  0.00  0.00    +0.386 N 
ATOM     13  H   UNL     1       3.483   3.985  -1.422  0.00  0.00    -0.081 HD
BRANCH  10  14
ATOM     14  C   UNL     1       2.098   7.489  -0.120  0.00  0.00    +0.026 A 
ATOM     15  C   UNL     1       2.659   8.547   0.570  0.00  0.00    +0.010 A 
ATOM     16  C   UNL     1       2.032   9.779   0.575  0.00  0.00    +0.001 A 
ATOM     17  C   UNL     1       0.846   9.956  -0.113  0.00  0.00    +0.003 A 
ATOM     18  C   UNL     1       0.281   8.898  -0.799  0.00  0.00    +0.039 A 
ATOM     19  C   UNL     1       0.908   7.663  -0.805  0.00  0.00    +0.130 A 
ATOM     20  F   UNL     1       0.359   6.629  -1.480  0.00  0.00    -0.205 F 
ENDBRANCH  10  14
ENDBRANCH   1  12
BRANCH   1  21
ATOM     21  C   UNL     1       5.968   5.517  -3.086  0.00  0.00    +0.085 C 
BRANCH  21  24
ATOM     22  C   UNL     1       7.475   6.197  -4.875  0.00  0.00    +0.217 C 
ATOM     23  O   UNL     1       8.013   6.954  -4.095  0.00  0.00    -0.275 OA
ATOM     24  N   UNL     1       6.441   5.434  -4.470  0.00  0.00    -0.317 N 
ATOM     25  H   UNL     1       6.011   4.829  -5.094  0.00  0.00    +0.149 HD
BRANCH  22  26
ATOM     26  C   UNL     1       7.962   6.112  -6.299  0.00  0.00    +0.131 C 
BRANCH  26  32
ATOM     27  C   UNL     1      14.494   5.535  -5.197  0.00  0.00    +0.044 C 
ATOM     28  C   UNL     1      13.083   5.937  -5.537  0.00  0.00    -0.047 A 
ATOM     29  C   UNL     1      12.046   5.036  -5.344  0.00  0.00    +0.004 A 
ATOM     30  C   UNL     1      10.759   5.383  -5.647  0.00  0.00    +0.012 A 
ATOM     31  C   UNL     1      10.486   6.659  -6.151  0.00  0.00    +0.021 A 
ATOM     32  C   UNL     1       9.117   7.059  -6.492  0.00  0.00    -0.021 A 
ATOM     33  C   UNL     1       8.919   8.309  -6.983  0.00  0.00    +0.096 A 
ATOM     34  C   UNL     1      10.019   9.178  -7.155  0.00  0.00    +0.337 A 
ATOM     35  O   UNL     1       9.828  10.297  -7.595  0.00  0.00    -0.245 OA
ATOM     36  O   UNL     1      11.270   8.802  -6.845  0.00  0.00    -0.422 OA
ATOM     37  C   UNL     1      11.534   7.573  -6.353  0.00  0.00    +0.140 A 
ATOM     38  C   UNL     1      12.835   7.198  -6.038  0.00  0.00    +0.050 A 
ENDBRANCH  26  32
ENDBRANCH  22  26
ENDBRANCH  21  24
ENDBRANCH   1  21
TORSDOF 6
