REMARK  Name = ZINC41513668
REMARK  14 active torsions:
REMARK  status: ('A' for Active; 'I' for Inactive)
REMARK    1  A    between atoms: C_1  and  C_2
REMARK    2  A    between atoms: C_4  and  O_33
REMARK    3  A    between atoms: C_5  and  C_23
REMARK    4  A    between atoms: C_11  and  C_12
REMARK    5  A    between atoms: N_14  and  C_21
REMARK    6  A    between atoms: C_23  and  N_24
REMARK    7  A    between atoms: N_24  and  C_25
REMARK    8  A    between atoms: N_24  and  C_29
REMARK    9  A    between atoms: C_25  and  C_26
REMARK   10  A    between atoms: C_26  and  C_27
REMARK   11  A    between atoms: C_26  and  C_28
REMARK   12  A    between atoms: C_29  and  C_30
REMARK   13  A    between atoms: C_30  and  C_31
REMARK   14  A    between atoms: C_30  and  C_32
REMARK                            x       y       z     vdW  Elec       q    Type
REMARK                         _______ _______ _______ _____ _____    ______ ____
ROOT
ATOM      1  C   UNL     1      -0.914  -0.003   0.325  0.00  0.00    +0.045 C 
ATOM      2  C   UNL     1      -0.320  -1.368   0.091  0.00  0.00    -0.033 A 
ATOM      3  C   UNL     1      -0.207  -1.858  -1.179  0.00  0.00    +0.050 A 
ATOM      4  C   UNL     1       0.341  -3.119  -1.399  0.00  0.00    +0.122 A 
ATOM      5  C   UNL     1       0.777  -3.892  -0.335  0.00  0.00    +0.020 A 
ATOM      6  C   UNL     1       0.670  -3.408   0.962  0.00  0.00    +0.145 A 
ATOM      7  C   UNL     1       0.121  -2.132   1.172  0.00  0.00    +0.071 A 
ATOM      8  C   UNL     1       0.150  -1.909   2.628  0.00  0.00    +0.232 C 
ATOM      9  O   UNL     1      -0.238  -0.925   3.235  0.00  0.00    -0.283 OA
ATOM     10  C   UNL     1       0.729  -3.086   3.173  0.00  0.00    +0.176 C 
ATOM     11  C   UNL     1       0.954  -3.323   4.495  0.00  0.00    +0.060 C 
ATOM     12  O   UNL     1       1.007  -3.938   2.157  0.00  0.00    -0.451 OA
ENDROOT
BRANCH  11  13
ATOM     13  C   UNL     1       0.748  -2.258   5.474  0.00  0.00    +0.004 A 
ATOM     14  C   UNL     1       1.109  -0.934   5.345  0.00  0.00    +0.094 A 
ATOM     15  N   UNL     1       0.750  -0.256   6.462  0.00  0.00    -0.349 N 
ATOM     16  C   UNL     1       0.141  -1.101   7.367  0.00  0.00    +0.049 A 
ATOM     17  C   UNL     1       0.105  -2.383   6.797  0.00  0.00    +0.007 A 
ATOM     18  C   UNL     1      -0.465  -3.443   7.496  0.00  0.00    +0.010 A 
ATOM     19  C   UNL     1      -0.997  -3.227   8.749  0.00  0.00    +0.001 A 
ATOM     20  C   UNL     1      -0.965  -1.961   9.313  0.00  0.00    +0.002 A 
ATOM     21  C   UNL     1      -0.397  -0.904   8.635  0.00  0.00    +0.026 A 
ATOM     22  C   UNL     1       0.978   1.175   6.679  0.00  0.00    +0.149 C 
ENDBRANCH  11  13
BRANCH   4  23
ATOM     23  O   UNL     1       0.448  -3.595  -2.665  0.00  0.00    -0.506 OA
ATOM     24  H   UNL     1       1.240  -3.295  -3.133  0.00  0.00    +0.292 HD
ENDBRANCH   4  23
BRANCH   5  25
ATOM     25  C   UNL     1       1.367  -5.255  -0.585  0.00  0.00    -0.036 C 
BRANCH  25  26
ATOM     26  N   UNL     1       2.830  -5.147  -0.673  0.00  0.00    +0.383 N 
ATOM     27  H   UNL     1       3.228  -6.066  -0.802  0.00  0.00    -0.081 HD
BRANCH  26  28
ATOM     28  C   UNL     1       3.190  -4.294  -1.813  0.00  0.00    -0.075 C 
BRANCH  28  29
ATOM     29  C   UNL     1       2.804  -4.995  -3.117  0.00  0.00    -0.034 C 
ATOM     30  C   UNL     1       3.155  -4.094  -4.303  0.00  0.00    +0.005 C 
ATOM     31  C   UNL     1       3.572  -6.313  -3.234  0.00  0.00    +0.005 C 
ENDBRANCH  28  29
ENDBRANCH  26  28
BRANCH  26  32
ATOM     32  C   UNL     1       3.353  -4.556   0.566  0.00  0.00    -0.075 C 
BRANCH  32  33
ATOM     33  C   UNL     1       3.120  -5.522   1.729  0.00  0.00    -0.034 C 
ATOM     34  C   UNL     1       3.886  -6.822   1.474  0.00  0.00    +0.005 C 
ATOM     35  C   UNL     1       3.617  -4.885   3.028  0.00  0.00    +0.005 C 
ENDBRANCH  32  33
ENDBRANCH  26  32
ENDBRANCH  25  26
ENDBRANCH   5  25
TORSDOF 8
