REMARK  Name = ZINC12178166
REMARK  11 active torsions:
REMARK  status: ('A' for Active; 'I' for Inactive)
REMARK    1  A    between atoms: C_1  and  C_2
REMARK    2  A    between atoms: C_5  and  C_8
REMARK    3  A    between atoms: C_8  and  N_9
REMARK    4  A    between atoms: C_10  and  C_12
REMARK    5  A    between atoms: C_12  and  C_14
REMARK    6  A    between atoms: C_12  and  O_15
REMARK    7  A    between atoms: O_15  and  C_16
REMARK    8  A    between atoms: C_16  and  C_18
REMARK    9  A    between atoms: C_20  and  C_28
REMARK   10  A    between atoms: C_24  and  C_27
REMARK   11  A    between atoms: C_31  and  C_34
REMARK                            x       y       z     vdW  Elec       q    Type
REMARK                         _______ _______ _______ _____ _____    ______ ____
ROOT
ATOM      1  C   UNL     1       4.761  -8.530  -0.595  0.00  0.00    +0.341 C 
ATOM      2  O   UNL     1       5.586  -7.842  -1.162  0.00  0.00    -0.245 OA
ENDROOT
BRANCH   1   3
ATOM      3  C   UNL     1       4.755  -9.995  -0.797  0.00  0.00    +0.075 A 
ATOM      4  C   UNL     1       4.420 -10.862   0.240  0.00  0.00    +0.044 A 
ATOM      5  C   UNL     1       4.427 -12.239   0.003  0.00  0.00    +0.076 A 
ATOM      6  N   UNL     1       4.745 -12.734  -1.183  0.00  0.00    -0.210 NA
ATOM      7  C   UNL     1       5.071 -11.956  -2.202  0.00  0.00    +0.260 A 
ATOM      8  C   UNL     1       5.083 -10.558  -2.048  0.00  0.00    +0.077 A 
ATOM      9  C   UNL     1       5.471  -9.998  -3.341  0.00  0.00    +0.091 A 
ATOM     10  N   UNL     1       5.657 -10.993  -4.154  0.00  0.00    -0.080 NA
ATOM     11  O   UNL     1       5.425 -12.212  -3.478  0.00  0.00    -0.334 OA
ATOM     12  C   UNL     1       5.627  -8.536  -3.670  0.00  0.00    +0.070 C 
BRANCH   5  13
ATOM     13  C   UNL     1       4.071 -13.166   1.105  0.00  0.00    +0.001 A 
ATOM     14  C   UNL     1       3.729 -12.663   2.359  0.00  0.00    +0.010 A 
ATOM     15  C   UNL     1       3.398 -13.530   3.380  0.00  0.00    +0.004 A 
ATOM     16  C   UNL     1       3.407 -14.896   3.161  0.00  0.00    -0.050 A 
ATOM     17  C   UNL     1       3.746 -15.401   1.919  0.00  0.00    +0.004 A 
ATOM     18  C   UNL     1       4.073 -14.543   0.888  0.00  0.00    +0.010 A 
ATOM     19  C   UNL     1       3.046 -15.838   4.281  0.00  0.00    +0.044 C 
ENDBRANCH   5  13
ENDBRANCH   1   3
BRANCH   1  20
ATOM     20  O   UNL     1       3.852  -7.959   0.219  0.00  0.00    -0.449 OA
BRANCH  20  21
ATOM     21  C   UNL     1       3.916  -6.539   0.368  0.00  0.00    +0.259 C 
ATOM     22  C   UNL     1       4.839  -6.190   1.537  0.00  0.00    +0.062 C 
BRANCH  21  24
ATOM     23  N   UNL     1       2.335  -4.669   0.715  0.00  0.00    -0.308 N 
ATOM     24  C   UNL     1       2.536  -6.000   0.639  0.00  0.00    +0.254 C 
ATOM     25  O   UNL     1       1.605  -6.763   0.789  0.00  0.00    -0.272 OA
ATOM     26  H   UNL     1       3.079  -4.059   0.595  0.00  0.00    +0.149 HD
BRANCH  23  27
ATOM     27  C   UNL     1       0.993  -4.144   0.979  0.00  0.00    +0.139 C 
BRANCH  27  32
ATOM     28  C   UNL     1       1.171   1.630   1.115  0.00  0.00    +0.044 C 
ATOM     29  C   UNL     1       1.124   0.124   1.079  0.00  0.00    -0.050 A 
ATOM     30  C   UNL     1       0.886  -0.532  -0.114  0.00  0.00    +0.003 A 
ATOM     31  C   UNL     1       0.844  -1.913  -0.147  0.00  0.00    +0.005 A 
ATOM     32  C   UNL     1       1.040  -2.639   1.014  0.00  0.00    -0.030 A 
ATOM     33  C   UNL     1       1.279  -1.982   2.207  0.00  0.00    +0.005 A 
ATOM     34  C   UNL     1       1.326  -0.601   2.239  0.00  0.00    +0.003 A 
ENDBRANCH  27  32
ENDBRANCH  23  27
ENDBRANCH  21  24
ENDBRANCH  20  21
ENDBRANCH   1  20
TORSDOF 7
