REMARK  Name = ZINC18198958
REMARK  8 active torsions:
REMARK  status: ('A' for Active; 'I' for Inactive)
REMARK    1  A    between atoms: C_1  and  C_2
REMARK    2  A    between atoms: C_5  and  C_9
REMARK    3  A    between atoms: C_7  and  C_8
REMARK    4  A    between atoms: C_14  and  C_19
REMARK    5  A    between atoms: C_22  and  O_27
REMARK    6  A    between atoms: C_23  and  O_25
REMARK    7  A    between atoms: O_25  and  C_26
REMARK    8  A    between atoms: O_27  and  C_28
REMARK                            x       y       z     vdW  Elec       q    Type
REMARK                         _______ _______ _______ _____ _____    ______ ____
ROOT
ATOM      1  C   UNL     1       6.574  -0.282  -0.069  0.00  0.00    +0.175 C 
ATOM      2  C   UNL     1       5.238   0.425   0.002  0.00  0.00    +0.041 C 
ATOM      3  C   UNL     1       4.644   0.720   1.178  0.00  0.00    +0.020 C 
ATOM      4  C   UNL     1       3.309   1.425   1.218  0.00  0.00    +0.060 C 
ATOM      5  C   UNL     1       2.489   1.046  -0.017  0.00  0.00    +0.032 C 
ATOM      6  C   UNL     1       3.286   1.440  -1.265  0.00  0.00    +0.088 C 
ATOM      7  C   UNL     1       4.629   0.765  -1.219  0.00  0.00    +0.164 C 
ATOM      8  O   UNL     1       5.200   0.507  -2.260  0.00  0.00    -0.292 OA
ATOM      9  N   UNL     1       5.224   0.400   2.383  0.00  0.00    -0.287 N 
ATOM     10  C   UNL     1       6.563   0.045   2.386  0.00  0.00    +0.220 A 
ATOM     11  N   UNL     1       7.214  -0.273   1.240  0.00  0.00    -0.219 N 
ATOM     12  N   UNL     1       8.529  -0.567   1.597  0.00  0.00    -0.132 NA
ATOM     13  C   UNL     1       8.609  -0.423   2.902  0.00  0.00    +0.233 A 
ATOM     14  N   UNL     1       7.410  -0.053   3.374  0.00  0.00    -0.180 NA
ATOM     15  N   UNL     1       9.757  -0.623   3.670  0.00  0.00    -0.326 N 
ATOM     16  H   UNL     1       4.711   0.423   3.206  0.00  0.00    +0.155 HD
ATOM     17  H   UNL     1      10.585  -0.891   3.244  0.00  0.00    +0.145 HD
ATOM     18  H   UNL     1       9.725  -0.494   4.631  0.00  0.00    +0.145 HD
ENDROOT
BRANCH   1  23
ATOM     19  C   UNL     1       5.764  -5.746  -1.767  0.00  0.00    +0.044 C 
ATOM     20  C   UNL     1       5.974  -4.321  -1.325  0.00  0.00    -0.048 A 
ATOM     21  C   UNL     1       5.389  -3.865  -0.158  0.00  0.00    +0.004 A 
ATOM     22  C   UNL     1       5.587  -2.560   0.251  0.00  0.00    +0.006 A 
ATOM     23  C   UNL     1       6.362  -1.707  -0.512  0.00  0.00    -0.018 A 
ATOM     24  C   UNL     1       6.947  -2.162  -1.679  0.00  0.00    +0.009 A 
ATOM     25  C   UNL     1       6.754  -3.469  -2.085  0.00  0.00    -0.047 A 
ATOM     26  C   UNL     1       7.392  -3.966  -3.357  0.00  0.00    +0.044 C 
ENDBRANCH   1  23
BRANCH   5  27
ATOM     27  C   UNL     1       1.175   1.783   0.000  0.00  0.00    -0.040 A 
ATOM     28  C   UNL     1       1.160   3.166   0.008  0.00  0.00    +0.008 A 
ATOM     29  C   UNL     1      -0.043   3.847   0.023  0.00  0.00    +0.049 A 
ATOM     30  C   UNL     1      -1.237   3.144   0.030  0.00  0.00    +0.161 A 
ATOM     31  C   UNL     1      -1.222   1.752   0.017  0.00  0.00    +0.162 A 
ATOM     32  C   UNL     1      -0.013   1.076   0.008  0.00  0.00    +0.053 A 
BRANCH  31  33
ATOM     33  O   UNL     1      -2.391   1.058   0.019  0.00  0.00    -0.491 OA
ATOM     34  C   UNL     1      -2.299  -0.368   0.011  0.00  0.00    +0.277 C 
ENDBRANCH  31  33
BRANCH  30  35
ATOM     35  O   UNL     1      -2.421   3.812   0.044  0.00  0.00    -0.491 OA
ATOM     36  C   UNL     1      -2.361   5.240   0.051  0.00  0.00    +0.277 C 
ENDBRANCH  30  35
ENDBRANCH   5  27
TORSDOF 4
