REMARK  Name = ZINC39929001
REMARK  14 active torsions:
REMARK  status: ('A' for Active; 'I' for Inactive)
REMARK    1  A    between atoms: C_1  and  C_2
REMARK    2  A    between atoms: C_5  and  N_9
REMARK    3  A    between atoms: C_7  and  C_8
REMARK    4  A    between atoms: N_9  and  C_10
REMARK    5  A    between atoms: C_10  and  C_11
REMARK    6  A    between atoms: C_17  and  O_23
REMARK    7  A    between atoms: O_23  and  C_24
REMARK    8  A    between atoms: C_25  and  C_27
REMARK    9  A    between atoms: C_29  and  O_37
REMARK   10  A    between atoms: C_30  and  O_35
REMARK   11  A    between atoms: C_31  and  O_33
REMARK   12  A    between atoms: O_33  and  C_34
REMARK   13  A    between atoms: O_35  and  C_36
REMARK   14  A    between atoms: O_37  and  C_38
REMARK                            x       y       z     vdW  Elec       q    Type
REMARK                         _______ _______ _______ _____ _____    ______ ____
ROOT
ATOM      1  N   UNL     1       3.250  -5.532   0.530  0.00  0.00    -0.266 N 
ATOM      2  C   UNL     1       2.342  -5.850   1.473  0.00  0.00    +0.251 C 
ATOM      3  O   UNL     1       2.694  -6.017   2.625  0.00  0.00    -0.270 OA
ENDROOT
BRANCH   1   8
ATOM      4  C   UNL     1       8.575  -4.278   2.031  0.00  0.00    +0.044 C 
ATOM      5  C   UNL     1       7.160  -4.611   1.632  0.00  0.00    -0.047 A 
ATOM      6  C   UNL     1       6.825  -4.708   0.294  0.00  0.00    +0.005 A 
ATOM      7  C   UNL     1       5.530  -5.013  -0.075  0.00  0.00    +0.024 A 
ATOM      8  C   UNL     1       4.563  -5.223   0.900  0.00  0.00    +0.037 A 
ATOM      9  C   UNL     1       4.903  -5.126   2.243  0.00  0.00    +0.027 A 
ATOM     10  C   UNL     1       6.202  -4.825   2.605  0.00  0.00    -0.046 A 
ATOM     11  C   UNL     1       6.573  -4.725   4.062  0.00  0.00    +0.044 C 
ENDBRANCH   1   8
BRANCH   2  12
ATOM     12  C   UNL     1       0.919  -5.996   1.108  0.00  0.00    +0.044 A 
ATOM     13  C   UNL     1       0.564  -6.645  -0.077  0.00  0.00    +0.062 A 
ATOM     14  C   UNL     1      -0.769  -6.780  -0.417  0.00  0.00    +0.166 A 
ATOM     15  C   UNL     1      -1.757  -6.270   0.420  0.00  0.00    +0.204 A 
ATOM     16  C   UNL     1      -1.406  -5.623   1.602  0.00  0.00    +0.166 A 
ATOM     17  C   UNL     1      -0.075  -5.490   1.950  0.00  0.00    +0.062 A 
BRANCH  16  18
ATOM     18  O   UNL     1      -2.374  -5.125   2.418  0.00  0.00    -0.491 OA
ATOM     19  C   UNL     1      -1.942  -4.474   3.614  0.00  0.00    +0.277 C 
ENDBRANCH  16  18
BRANCH  15  20
ATOM     20  O   UNL     1      -3.067  -6.403   0.084  0.00  0.00    -0.488 OA
ATOM     21  C   UNL     1      -3.739  -7.578   0.544  0.00  0.00    +0.277 C 
ENDBRANCH  15  20
BRANCH  14  22
ATOM     22  O   UNL     1      -1.115  -7.411  -1.571  0.00  0.00    -0.491 OA
ATOM     23  C   UNL     1      -0.373  -7.072  -2.744  0.00  0.00    +0.277 C 
ENDBRANCH  14  22
ENDBRANCH   2  12
BRANCH   1  24
ATOM     24  C   UNL     1       2.863  -5.510  -0.882  0.00  0.00    +0.131 C 
BRANCH  24  25
ATOM     25  C   UNL     1       3.615  -6.609  -1.635  0.00  0.00    +0.116 C 
ATOM     26  C   UNL     1       3.326  -6.442  -3.114  0.00  0.00    -0.003 C 
ATOM     27  C   UNL     1       2.764  -7.497  -3.764  0.00  0.00    -0.007 A 
ATOM     28  C   UNL     1       2.454  -7.414  -5.194  0.00  0.00    +0.013 A 
ATOM     29  C   UNL     1       1.895  -8.484  -5.808  0.00  0.00    +0.046 A 
ATOM     30  C   UNL     1       1.609  -9.662  -5.102  0.00  0.00    +0.122 A 
ATOM     31  C   UNL     1       1.877  -9.799  -3.758  0.00  0.00    +0.069 A 
ATOM     32  C   UNL     1       2.455  -8.743  -3.040  0.00  0.00    +0.044 A 
ATOM     33  N   UNL     1       2.711  -8.886  -1.737  0.00  0.00    -0.284 N 
ATOM     34  C   UNL     1       3.255  -7.934  -1.002  0.00  0.00    +0.226 C 
ATOM     35  O   UNL     1       3.465  -8.123   0.182  0.00  0.00    -0.275 OA
ATOM     36  H   UNL     1       2.487  -9.729  -1.312  0.00  0.00    +0.155 HD
BRANCH  30  37
ATOM     37  O   UNL     1       1.049 -10.702  -5.766  0.00  0.00    -0.495 OA
ATOM     38  C   UNL     1       0.788 -10.518  -7.159  0.00  0.00    +0.277 C 
ENDBRANCH  30  37
ENDBRANCH  24  25
ENDBRANCH   1  24
TORSDOF 8
