REMARK  Name = ZINC63374773
REMARK  10 active torsions:
REMARK  status: ('A' for Active; 'I' for Inactive)
REMARK    1  A    between atoms: C_1  and  C_2
REMARK    2  A    between atoms: C_2  and  C_3
REMARK    3  A    between atoms: C_2  and  O_4
REMARK    4  A    between atoms: O_4  and  C_5
REMARK    5  A    between atoms: C_8  and  C_13
REMARK    6  A    between atoms: C_10  and  O_11
REMARK    7  A    between atoms: O_11  and  C_12
REMARK    8  A    between atoms: N_20  and  C_35
REMARK    9  A    between atoms: C_23  and  C_34
REMARK   10  A    between atoms: C_35  and  C_36
REMARK                            x       y       z     vdW  Elec       q    Type
REMARK                         _______ _______ _______ _____ _____    ______ ____
ROOT
ATOM      1  C   UNL     1      -2.315  -0.983   5.900  0.00  0.00    +0.065 C 
ATOM      2  C   UNL     1      -3.029   0.343   6.212  0.00  0.00    +0.121 C 
ATOM      3  N   UNL     1      -4.064   0.110   7.238  0.00  0.00    -0.283 N 
ATOM      4  C   UNL     1      -3.979   0.793   8.385  0.00  0.00    +0.234 C 
ATOM      5  O   UNL     1      -3.039   1.546   8.521  0.00  0.00    -0.274 OA
ATOM      6  C   UNL     1      -4.957   0.698   9.509  0.00  0.00    +0.203 C 
ATOM      7  N   UNL     1      -6.038  -0.229   9.218  0.00  0.00    -0.288 N 
ATOM      8  C   UNL     1      -6.128  -0.924   8.086  0.00  0.00    +0.242 C 
ATOM      9  O   UNL     1      -7.077  -1.667   7.951  0.00  0.00    -0.273 OA
ATOM     10  C   UNL     1      -5.137  -0.851   6.972  0.00  0.00    +0.135 C 
ATOM     11  C   UNL     1      -4.503  -2.227   6.742  0.00  0.00    +0.139 C 
ATOM     12  C   UNL     1      -3.391  -2.025   5.718  0.00  0.00    -0.027 C 
ATOM     13  C   UNL     1      -3.620  -2.893   4.742  0.00  0.00    -0.000 A 
ATOM     14  C   UNL     1      -2.848  -3.243   3.539  0.00  0.00    +0.010 A 
ATOM     15  C   UNL     1      -3.399  -4.181   2.724  0.00  0.00    +0.001 A 
ATOM     16  C   UNL     1      -4.628  -4.797   2.981  0.00  0.00    +0.002 A 
ATOM     17  C   UNL     1      -5.401  -4.543   4.067  0.00  0.00    +0.026 A 
ATOM     18  C   UNL     1      -4.920  -3.583   5.004  0.00  0.00    +0.043 A 
ATOM     19  N   UNL     1      -5.443  -3.176   6.148  0.00  0.00    -0.375 N 
ATOM     20  C   UNL     1      -5.863  -0.438   5.690  0.00  0.00    +0.044 C 
ATOM     21  H   UNL     1      -6.292  -3.450   6.530  0.00  0.00    +0.160 HD
ENDROOT
BRANCH   1  25
ATOM     22  C   UNL     1      -0.032  -0.600   2.304  0.00  0.00    +0.162 A 
ATOM     23  C   UNL     1      -1.399  -0.377   2.287  0.00  0.00    +0.050 A 
ATOM     24  C   UNL     1      -2.134  -0.502   3.451  0.00  0.00    +0.008 A 
ATOM     25  C   UNL     1      -1.508  -0.849   4.634  0.00  0.00    -0.035 A 
ATOM     26  C   UNL     1      -0.144  -1.072   4.658  0.00  0.00    +0.053 A 
ATOM     27  C   UNL     1       0.598  -0.955   3.493  0.00  0.00    +0.162 A 
BRANCH  27  28
ATOM     28  O   UNL     1       1.939  -1.180   3.514  0.00  0.00    -0.491 OA
ATOM     29  C   UNL     1       2.517  -1.541   4.770  0.00  0.00    +0.277 C 
ENDBRANCH  27  28
BRANCH  22  30
ATOM     30  O   UNL     1       0.693  -0.477   1.160  0.00  0.00    -0.486 OA
BRANCH  30  32
ATOM     31  C   UNL     1      -0.294   1.265  -0.193  0.00  0.00    +0.051 C 
ATOM     32  C   UNL     1      -0.034  -0.235  -0.046  0.00  0.00    +0.167 C 
ATOM     33  C   UNL     1       0.781  -0.731  -1.242  0.00  0.00    +0.051 C 
ENDBRANCH  30  32
ENDBRANCH  22  30
ENDBRANCH   1  25
BRANCH   7  34
ATOM     34  C   UNL     1      -7.087  -0.407  10.225  0.00  0.00    +0.140 C 
BRANCH  34  35
ATOM     35  C   UNL     1      -8.210   0.603   9.977  0.00  0.00    +0.136 C 
ATOM     36  C   UNL     1      -9.261   0.504  11.103  0.00  0.00    +0.035 C 
ATOM     37  C   UNL     1     -10.594   0.679  10.325  0.00  0.00    +0.031 C 
ATOM     38  C   UNL     1     -10.247  -0.019   8.986  0.00  0.00    +0.160 C 
ATOM     39  O   UNL     1      -8.867   0.304   8.740  0.00  0.00    -0.375 OA
ENDBRANCH  34  35
ENDBRANCH   7  34
TORSDOF 6
