REMARK  Name = ZINC34709076
REMARK  6 active torsions:
REMARK  status: ('A' for Active; 'I' for Inactive)
REMARK    1  A    between atoms: C_1  and  C_2
REMARK    2  A    between atoms: C_6  and  C_8
REMARK    3  A    between atoms: C_11  and  C_21
REMARK    4  A    between atoms: C_16  and  C_18
REMARK    5  A    between atoms: N_23  and  C_24
REMARK    6  A    between atoms: C_24  and  C_25
REMARK                            x       y       z     vdW  Elec       q    Type
REMARK                         _______ _______ _______ _____ _____    ______ ____
ROOT
ATOM      1  C   UNL     1       0.054  -2.845   2.489  0.00  0.00    +0.037 C 
ATOM      2  C   UNL     1       1.314  -3.710   2.558  0.00  0.00    +0.024 C 
ATOM      3  C   UNL     1       1.348  -4.458   3.893  0.00  0.00    +0.093 C 
ATOM      4  C   UNL     1       0.125  -5.375   3.991  0.00  0.00    +0.120 C 
ATOM      5  N   UNL     1      -1.087  -4.572   3.780  0.00  0.00    -0.300 N 
ATOM      6  C   UNL     1      -1.184  -3.743   2.571  0.00  0.00    +0.116 C 
ATOM      7  C   UNL     1      -2.091  -4.595   4.679  0.00  0.00    +0.219 C 
ATOM      8  O   UNL     1      -3.086  -3.928   4.494  0.00  0.00    -0.275 OA
ENDROOT
BRANCH   1  14
ATOM      9  C   UNL     1      -0.018   1.503   0.010  0.00  0.00    +0.044 C 
ATOM     10  C   UNL     1       0.002  -0.004   0.002  0.00  0.00    -0.050 A 
ATOM     11  C   UNL     1       0.006  -0.689  -1.199  0.00  0.00    +0.003 A 
ATOM     12  C   UNL     1       0.025  -2.071  -1.207  0.00  0.00    +0.001 A 
ATOM     13  C   UNL     1       0.040  -2.768  -0.013  0.00  0.00    +0.004 A 
ATOM     14  C   UNL     1       0.037  -2.084   1.188  0.00  0.00    -0.043 A 
ATOM     15  C   UNL     1       0.023  -0.702   1.195  0.00  0.00    +0.007 A 
ENDBRANCH   1  14
BRANCH   3  16
ATOM     16  C   UNL     1       1.325  -3.465   5.027  0.00  0.00    +0.218 C 
ATOM     17  O   UNL     1       1.285  -2.276   4.790  0.00  0.00    -0.275 OA
ATOM     18  N   UNL     1       1.349  -3.898   6.303  0.00  0.00    -0.311 N 
ATOM     19  H   UNL     1       1.381  -4.849   6.491  0.00  0.00    +0.149 HD
BRANCH  18  20
ATOM     20  C   UNL     1       1.326  -2.933   7.404  0.00  0.00    +0.139 C 
BRANCH  20  21
ATOM     21  C   UNL     1       1.360  -3.670   8.719  0.00  0.00    -0.027 A 
ATOM     22  C   UNL     1       0.178  -4.050   9.326  0.00  0.00    +0.009 A 
ATOM     23  C   UNL     1       0.203  -4.727  10.531  0.00  0.00    +0.050 A 
ATOM     24  C   UNL     1       1.415  -5.025  11.134  0.00  0.00    +0.166 A 
ATOM     25  C   UNL     1       2.606  -4.641  10.521  0.00  0.00    +0.167 A 
ATOM     26  C   UNL     1       2.572  -3.968   9.311  0.00  0.00    +0.054 A 
ATOM     27  O   UNL     1       3.649  -5.046  11.304  0.00  0.00    -0.453 OA
ATOM     28  C   UNL     1       3.076  -5.318  12.597  0.00  0.00    +0.466 C 
ATOM     29  O   UNL     1       1.712  -5.670  12.300  0.00  0.00    -0.453 OA
ENDBRANCH  20  21
ENDBRANCH  18  20
ENDBRANCH   3  16
BRANCH   7  30
ATOM     30  C   UNL     1      -1.976  -5.450   5.915  0.00  0.00    +0.075 C 
ATOM     31  C   UNL     1      -2.902  -6.664   6.022  0.00  0.00    +0.013 C 
ATOM     32  C   UNL     1      -3.150  -5.433   6.897  0.00  0.00    +0.013 C 
ENDBRANCH   7  30
TORSDOF 5
