REMARK  Name = ZINC39887360
REMARK  9 active torsions:
REMARK  status: ('A' for Active; 'I' for Inactive)
REMARK    1  A    between atoms: C_1  and  C_2
REMARK    2  A    between atoms: C_2  and  C_3
REMARK    3  A    between atoms: C_3  and  C_4
REMARK    4  A    between atoms: C_4  and  C_5
REMARK    5  A    between atoms: C_8  and  N_11
REMARK    6  A    between atoms: C_12  and  C_22
REMARK    7  A    between atoms: C_17  and  C_20
REMARK    8  A    between atoms: C_25  and  C_27
REMARK    9  A    between atoms: C_31  and  C_33
REMARK                            x       y       z     vdW  Elec       q    Type
REMARK                         _______ _______ _______ _____ _____    ______ ____
ROOT
ATOM      1  N   UNL     1       3.394  -3.856  -5.932  0.00  0.00    -0.267 N 
ATOM      2  C   UNL     1       4.854  -3.992  -5.955  0.00  0.00    +0.234 C 
ATOM      3  N   UNL     1       5.386  -3.411  -7.190  0.00  0.00    -0.286 N 
ATOM      4  C   UNL     1       4.656  -3.422  -8.323  0.00  0.00    +0.258 C 
ATOM      5  O   UNL     1       5.122  -2.975  -9.356  0.00  0.00    -0.269 OA
ATOM      6  C   UNL     1       3.299  -3.973  -8.305  0.00  0.00    +0.142 C 
ATOM      7  C   UNL     1       2.681  -4.184  -7.058  0.00  0.00    +0.103 C 
ATOM      8  S   UNL     1       1.050  -4.841  -6.944  0.00  0.00    -0.033 SA
ATOM      9  H   UNL     1       6.271  -3.015  -7.192  0.00  0.00    +0.151 HD
ENDROOT
BRANCH   1  13
ATOM     10  C   UNL     1       1.445  -2.512  -2.505  0.00  0.00    -0.047 A 
ATOM     11  C   UNL     1       2.098  -3.731  -2.494  0.00  0.00    +0.005 A 
ATOM     12  C   UNL     1       2.745  -4.180  -3.629  0.00  0.00    +0.024 A 
ATOM     13  C   UNL     1       2.740  -3.405  -4.782  0.00  0.00    +0.037 A 
ATOM     14  C   UNL     1       2.083  -2.181  -4.789  0.00  0.00    +0.024 A 
ATOM     15  C   UNL     1       1.433  -1.741  -3.653  0.00  0.00    +0.005 A 
BRANCH  10  16
ATOM     16  C   UNL     1       0.740  -2.026  -1.265  0.00  0.00    +0.035 C 
BRANCH  16  17
ATOM     17  C   UNL     1      -0.708  -2.520  -1.276  0.00  0.00    +0.004 C 
BRANCH  17  19
ATOM     18  C   UNL     1      -2.872  -2.520  -0.027  0.00  0.00    +0.004 C 
ATOM     19  C   UNL     1      -1.424  -2.026  -0.017  0.00  0.00    -0.003 C 
ENDBRANCH  17  19
ENDBRANCH  16  17
ENDBRANCH  10  16
ENDBRANCH   1  13
BRANCH   2  20
ATOM     20  C   UNL     1       5.223  -5.452  -5.891  0.00  0.00    +0.144 A 
ATOM     21  C   UNL     1       6.325  -6.008  -6.429  0.00  0.00    +0.049 A 
ATOM     22  C   UNL     1       6.277  -7.386  -6.136  0.00  0.00    +0.050 A 
ATOM     23  C   UNL     1       5.136  -7.596  -5.428  0.00  0.00    +0.135 A 
ATOM     24  O   UNL     1       4.509  -6.413  -5.282  0.00  0.00    -0.456 OA
BRANCH  23  25
ATOM     25  C   UNL     1       4.667  -8.896  -4.904  0.00  0.00    +0.018 A 
ATOM     26  C   UNL     1       5.422 -10.051  -5.117  0.00  0.00    +0.011 A 
ATOM     27  C   UNL     1       4.980 -11.261  -4.625  0.00  0.00    +0.001 A 
ATOM     28  C   UNL     1       3.790 -11.332  -3.921  0.00  0.00    +0.012 A 
ATOM     29  C   UNL     1       3.037 -10.192  -3.707  0.00  0.00    +0.055 A 
ATOM     30  C   UNL     1       3.471  -8.974  -4.189  0.00  0.00    +0.024 A 
BRANCH  29  31
ATOM     31  C   UNL     1       1.742 -10.278  -2.941  0.00  0.00    +0.417 C 
ATOM     32  F   UNL     1       1.518 -11.604  -2.553  0.00  0.00    -0.166 F 
ATOM     33  F   UNL     1       1.818  -9.467  -1.804  0.00  0.00    -0.166 F 
ATOM     34  F   UNL     1       0.689  -9.846  -3.753  0.00  0.00    -0.166 F 
ENDBRANCH  29  31
ENDBRANCH  23  25
ENDBRANCH   2  20
BRANCH   6  35
ATOM     35  C   UNL     1       2.620  -4.295  -9.524  0.00  0.00    +0.107 C 
ATOM     36  N   UNL     1       2.082  -4.549 -10.492  0.00  0.00    -0.191 NA
ENDBRANCH   6  35
TORSDOF 8
