REMARK  Name = ZINC06481437
REMARK  15 active torsions:
REMARK  status: ('A' for Active; 'I' for Inactive)
REMARK    1  A    between atoms: C_1  and  C_2
REMARK    2  A    between atoms: C_2  and  C_3
REMARK    3  A    between atoms: C_3  and  C_4
REMARK    4  A    between atoms: C_4  and  C_5
REMARK    5  A    between atoms: C_8  and  C_12
REMARK    6  A    between atoms: C_8  and  C_13
REMARK    7  A    between atoms: N_18  and  C_19
REMARK    8  A    between atoms: C_19  and  C_20
REMARK    9  A    between atoms: C_20  and  N_21
REMARK   10  A    between atoms: C_24  and  C_27
REMARK   11  A    between atoms: C_27  and  C_38
REMARK   12  A    between atoms: C_29  and  C_34
REMARK   13  A    between atoms: C_34  and  C_35
REMARK   14  A    between atoms: C_35  and  C_36
REMARK   15  A    between atoms: C_36  and  C_37
REMARK                            x       y       z     vdW  Elec       q    Type
REMARK                         _______ _______ _______ _____ _____    ______ ____
ROOT
ATOM      1  C   UNL     1      -1.809 -10.610   1.216  0.00  0.00    +0.122 C 
ENDROOT
BRANCH   1   7
ATOM      2  C   UNL     1      -3.514  -6.192   0.830  0.00  0.00    +0.094 A 
ATOM      3  C   UNL     1      -3.049  -6.078   2.097  0.00  0.00    +0.075 A 
ATOM      4  S   UNL     1      -2.373  -7.711   2.353  0.00  0.00    -0.060 S 
ATOM      5  C   UNL     1      -2.748  -8.357   0.844  0.00  0.00    +0.159 A 
ATOM      6  N   UNL     1      -3.349  -7.359   0.232  0.00  0.00    -0.226 NA
ATOM      7  N   UNL     1      -2.491  -9.632   0.365  0.00  0.00    -0.322 N 
ATOM      8  H   UNL     1      -2.763  -9.877  -0.533  0.00  0.00    +0.148 HD
BRANCH   2  11
ATOM      9  C   UNL     1      -3.523  -3.107  -1.142  0.00  0.00    +0.102 C 
ATOM     10  C   UNL     1      -3.427  -4.652  -1.151  0.00  0.00    +0.069 C 
ATOM     11  C   UNL     1      -4.195  -5.041   0.135  0.00  0.00    +0.153 C 
ATOM     12  O   UNL     1      -4.133  -3.850   0.949  0.00  0.00    -0.452 OA
ATOM     13  C   UNL     1      -4.332  -2.800   0.108  0.00  0.00    +0.311 C 
ATOM     14  O   UNL     1      -5.012  -1.823   0.311  0.00  0.00    -0.251 OA
ATOM     15  C   UNL     1      -5.647  -5.393  -0.193  0.00  0.00    +0.063 C 
BRANCH   9  16
ATOM     16  C   UNL     1      -2.130  -2.482  -1.049  0.00  0.00    +0.015 C 
BRANCH  16  17
ATOM     17  C   UNL     1      -2.249  -0.958  -1.115  0.00  0.00    +0.001 C 
BRANCH  17  19
ATOM     18  C   UNL     1      -0.975   1.191  -1.088  0.00  0.00    +0.004 C 
ATOM     19  C   UNL     1      -0.856  -0.333  -1.021  0.00  0.00    -0.003 C 
ENDBRANCH  17  19
ENDBRANCH  16  17
ENDBRANCH   9  16
ENDBRANCH   2  11
ENDBRANCH   1   7
BRANCH   1  20
ATOM     20  C   UNL     1      -1.650 -11.927   0.453  0.00  0.00    +0.122 C 
BRANCH  20  21
ATOM     21  N   UNL     1      -0.968 -12.905   1.304  0.00  0.00    -0.322 N 
ATOM     22  C   UNL     1      -0.711 -14.180   0.825  0.00  0.00    +0.159 A 
ATOM     23  N   UNL     1      -0.119 -15.181   1.441  0.00  0.00    -0.226 NA
ATOM     24  C   UNL     1       0.051 -16.346   0.841  0.00  0.00    +0.094 A 
ATOM     25  C   UNL     1      -0.408 -16.458  -0.428  0.00  0.00    +0.075 A 
ATOM     26  S   UNL     1      -1.085 -14.826  -0.683  0.00  0.00    -0.060 S 
ATOM     27  H   UNL     1      -0.696 -12.660   2.202  0.00  0.00    +0.148 HD
BRANCH  24  28
ATOM     28  C   UNL     1       0.727 -17.499   1.538  0.00  0.00    +0.153 C 
ATOM     29  C   UNL     1       1.270 -17.062   2.925  0.00  0.00    +0.069 C 
ATOM     30  C   UNL     1       2.441 -18.061   3.105  0.00  0.00    +0.102 C 
ATOM     31  C   UNL     1       2.724 -18.550   1.698  0.00  0.00    +0.311 C 
ATOM     32  O   UNL     1       3.534 -19.395   1.398  0.00  0.00    -0.251 OA
ATOM     33  O   UNL     1       1.927 -17.888   0.836  0.00  0.00    -0.452 OA
ATOM     34  C   UNL     1      -0.230 -18.684   1.674  0.00  0.00    +0.063 C 
BRANCH  30  35
ATOM     35  C   UNL     1       2.019 -19.225   4.005  0.00  0.00    +0.015 C 
BRANCH  35  36
ATOM     36  C   UNL     1       1.754 -18.705   5.420  0.00  0.00    +0.001 C 
BRANCH  36  37
ATOM     37  C   UNL     1       1.333 -19.868   6.320  0.00  0.00    -0.003 C 
ATOM     38  C   UNL     1       1.068 -19.349   7.734  0.00  0.00    +0.004 C 
ENDBRANCH  36  37
ENDBRANCH  35  36
ENDBRANCH  30  35
ENDBRANCH  24  28
ENDBRANCH  20  21
ENDBRANCH   1  20
TORSDOF 11
