REMARK  Name = ZINC39665563
REMARK  10 active torsions:
REMARK  status: ('A' for Active; 'I' for Inactive)
REMARK    1  A    between atoms: C_1  and  C_2
REMARK    2  A    between atoms: C_2  and  C_4
REMARK    3  A    between atoms: C_2  and  O_31
REMARK    4  A    between atoms: C_4  and  N_5
REMARK    5  A    between atoms: C_6  and  C_8
REMARK    6  A    between atoms: C_19  and  C_21
REMARK    7  A    between atoms: C_24  and  C_27
REMARK    8  A    between atoms: O_31  and  C_32
REMARK    9  A    between atoms: C_35  and  O_38
REMARK   10  A    between atoms: O_38  and  C_39
REMARK                            x       y       z     vdW  Elec       q    Type
REMARK                         _______ _______ _______ _____ _____    ______ ____
ROOT
ATOM      1  C   UNL     1       1.733  -4.861   0.146  0.00  0.00    +0.100 C 
ATOM      2  C   UNL     1       2.578  -5.008  -1.139  0.00  0.00    +0.121 C 
ATOM      3  N   UNL     1       3.862  -5.587  -0.679  0.00  0.00    -0.296 N 
ATOM      4  C   UNL     1       3.472  -6.572   0.358  0.00  0.00    +0.115 C 
ATOM      5  C   UNL     1       2.321  -5.892   1.125  0.00  0.00    -0.004 C 
ATOM      6  C   UNL     1       1.261  -6.920   1.508  0.00  0.00    -0.010 C 
ATOM      7  C   UNL     1       1.851  -7.899   2.527  0.00  0.00    -0.082 C 
ATOM      8  N   UNL     1       2.299  -7.162   3.715  0.00  0.00    +0.379 N 
ATOM      9  C   UNL     1       3.383  -6.241   3.353  0.00  0.00    -0.082 C 
ATOM     10  C   UNL     1       2.857  -5.192   2.370  0.00  0.00    -0.010 C 
ATOM     11  C   UNL     1       5.105  -5.286  -1.106  0.00  0.00    +0.247 C 
ATOM     12  O   UNL     1       5.273  -4.373  -1.891  0.00  0.00    -0.270 OA
ATOM     13  H   UNL     1       1.525  -6.637   4.094  0.00  0.00    -0.086 HD
ATOM     14  H   UNL     1       2.631  -7.815   4.409  0.00  0.00    -0.086 HD
ENDROOT
BRANCH  11  15
ATOM     15  C   UNL     1       6.263  -6.066  -0.621  0.00  0.00    +0.037 A 
ATOM     16  C   UNL     1       6.077  -7.350  -0.104  0.00  0.00    +0.013 A 
ATOM     17  C   UNL     1       7.162  -8.072   0.347  0.00  0.00    +0.013 A 
ATOM     18  C   UNL     1       8.432  -7.528   0.289  0.00  0.00    +0.055 A 
ATOM     19  C   UNL     1       8.624  -6.256  -0.222  0.00  0.00    +0.013 A 
ATOM     20  C   UNL     1       7.548  -5.525  -0.682  0.00  0.00    +0.013 A 
BRANCH  18  21
ATOM     21  C   UNL     1       9.613  -8.323   0.784  0.00  0.00    +0.417 C 
ATOM     22  F   UNL     1      10.141  -9.078  -0.269  0.00  0.00    -0.166 F 
ATOM     23  F   UNL     1      10.592  -7.450   1.269  0.00  0.00    -0.166 F 
ATOM     24  F   UNL     1       9.200  -9.179   1.811  0.00  0.00    -0.166 F 
ENDBRANCH  18  21
ENDBRANCH  11  15
BRANCH   1  26
ATOM     25  N   UNL     1       0.863  -2.931   1.425  0.00  0.00    -0.312 N 
ATOM     26  C   UNL     1       1.869  -3.469   0.707  0.00  0.00    +0.218 C 
ATOM     27  O   UNL     1       2.882  -2.832   0.511  0.00  0.00    -0.275 OA
ATOM     28  H   UNL     1       0.053  -3.440   1.582  0.00  0.00    +0.149 HD
BRANCH  25  29
ATOM     29  C   UNL     1       0.995  -1.577   1.970  0.00  0.00    +0.148 C 
BRANCH  29  31
ATOM     30  C   UNL     1      -0.139   0.203   3.307  0.00  0.00    +0.053 C 
ATOM     31  C   UNL     1      -0.277  -1.211   2.738  0.00  0.00    +0.187 C 
BRANCH  31  32
ATOM     32  O   UNL     1      -1.398  -1.262   1.855  0.00  0.00    -0.488 OA
BRANCH  32  33
ATOM     33  C   UNL     1      -2.616  -1.487   2.415  0.00  0.00    +0.121 A 
ATOM     34  C   UNL     1      -2.746  -1.535   3.795  0.00  0.00    +0.049 A 
ATOM     35  C   UNL     1      -3.984  -1.764   4.365  0.00  0.00    +0.049 A 
ATOM     36  C   UNL     1      -5.096  -1.946   3.557  0.00  0.00    +0.120 A 
ATOM     37  C   UNL     1      -4.967  -1.897   2.177  0.00  0.00    +0.049 A 
ATOM     38  C   UNL     1      -3.730  -1.664   1.607  0.00  0.00    +0.049 A 
BRANCH  36  39
ATOM     39  O   UNL     1      -6.314  -2.172   4.118  0.00  0.00    -0.495 OA
ATOM     40  C   UNL     1      -7.416  -2.350   3.226  0.00  0.00    +0.277 C 
ENDBRANCH  36  39
ENDBRANCH  32  33
ENDBRANCH  31  32
ENDBRANCH  29  31
ENDBRANCH  25  29
ENDBRANCH   1  26
TORSDOF 8
