REMARK  Name = ZINC40758570
REMARK  7 active torsions:
REMARK  status: ('A' for Active; 'I' for Inactive)
REMARK    1  A    between atoms: C_1  and  C_2
REMARK    2  A    between atoms: C_9  and  N_12
REMARK    3  A    between atoms: C_14  and  N_33
REMARK    4  A    between atoms: C_15  and  N_19
REMARK    5  A    between atoms: N_19  and  N_20
REMARK    6  A    between atoms: N_20  and  C_21
REMARK    7  A    between atoms: N_20  and  C_27
REMARK                            x       y       z     vdW  Elec       q    Type
REMARK                         _______ _______ _______ _____ _____    ______ ____
ROOT
ATOM      1  N   UNL     1      -0.275  -2.963   3.553  0.00  0.00    -0.298 N 
ATOM      2  C   UNL     1      -0.365  -3.433   4.858  0.00  0.00    +0.126 A 
ATOM      3  C   UNL     1      -0.312  -2.546   5.936  0.00  0.00    +0.105 A 
ATOM      4  C   UNL     1      -0.407  -3.071   7.226  0.00  0.00    +0.161 A 
ATOM      5  N   UNL     1      -0.543  -4.386   7.379  0.00  0.00    -0.219 NA
ATOM      6  C   UNL     1      -0.588  -5.188   6.335  0.00  0.00    +0.200 A 
ATOM      7  N   UNL     1      -0.507  -4.734   5.101  0.00  0.00    -0.333 N 
ATOM      8  H   UNL     1      -0.085  -2.027   3.386  0.00  0.00    +0.154 HD
ATOM      9  H   UNL     1      -0.548  -5.356   4.358  0.00  0.00    +0.168 HD
ENDROOT
BRANCH   1  18
ATOM     10  C   UNL     1      -5.160  -4.052   3.527  0.00  0.00    +0.065 C 
ATOM     11  C   UNL     1      -3.999  -4.473   2.663  0.00  0.00    +0.039 A 
ATOM     12  C   UNL     1      -4.224  -5.350   1.605  0.00  0.00    +0.023 A 
ATOM     13  C   UNL     1      -3.183  -5.742   0.812  0.00  0.00    +0.012 A 
ATOM     14  C   UNL     1      -1.901  -5.236   1.100  0.00  0.00    +0.002 A 
ATOM     15  C   UNL     1      -0.785  -5.595   0.328  0.00  0.00    +0.010 A 
ATOM     16  C   UNL     1       0.442  -5.088   0.631  0.00  0.00    +0.003 A 
ATOM     17  C   UNL     1       0.612  -4.214   1.701  0.00  0.00    +0.025 A 
ATOM     18  C   UNL     1      -0.459  -3.839   2.483  0.00  0.00    +0.059 A 
ATOM     19  C   UNL     1      -1.744  -4.348   2.192  0.00  0.00    +0.092 A 
ATOM     20  N   UNL     1      -2.805  -4.000   2.925  0.00  0.00    -0.250 NA
ENDBRANCH   1  18
BRANCH   3  21
ATOM     21  N   UNL     1      -0.168  -1.165   5.727  0.00  0.00    -0.353 N 
ATOM     22  H   UNL     1      -0.103  -0.815   4.825  0.00  0.00    +0.143 HD
ATOM     23  H   UNL     1      -0.133  -0.561   6.485  0.00  0.00    +0.143 HD
ENDBRANCH   3  21
BRANCH   4  24
ATOM     24  N   UNL     1      -0.360  -2.232   8.334  0.00  0.00    -0.242 N 
ATOM     25  H   UNL     1      -0.260  -1.275   8.213  0.00  0.00    +0.172 HD
BRANCH  24  26
ATOM     26  N   UNL     1      -0.456  -2.770   9.624  0.00  0.00    -0.221 N 
BRANCH  26  27
ATOM     27  C   UNL     1       0.634  -3.442  10.184  0.00  0.00    +0.053 A 
ATOM     28  C   UNL     1       1.900  -2.873  10.139  0.00  0.00    +0.025 A 
ATOM     29  C   UNL     1       2.975  -3.539  10.693  0.00  0.00    +0.002 A 
ATOM     30  C   UNL     1       2.792  -4.772  11.293  0.00  0.00    +0.000 A 
ATOM     31  C   UNL     1       1.533  -5.341  11.339  0.00  0.00    +0.002 A 
ATOM     32  C   UNL     1       0.453  -4.678  10.791  0.00  0.00    +0.025 A 
ENDBRANCH  26  27
BRANCH  26  33
ATOM     33  C   UNL     1      -1.641  -2.635  10.350  0.00  0.00    +0.053 A 
ATOM     34  C   UNL     1      -1.608  -2.611  11.739  0.00  0.00    +0.025 A 
ATOM     35  C   UNL     1      -2.782  -2.476  12.454  0.00  0.00    +0.002 A 
ATOM     36  C   UNL     1      -3.989  -2.367  11.790  0.00  0.00    +0.000 A 
ATOM     37  C   UNL     1      -4.026  -2.391  10.407  0.00  0.00    +0.002 A 
ATOM     38  C   UNL     1      -2.856  -2.519   9.686  0.00  0.00    +0.025 A 
ENDBRANCH  26  33
ENDBRANCH  24  26
ENDBRANCH   4  24
TORSDOF 6
