REMARK  Name = ZINC11369590
REMARK  7 active torsions:
REMARK  status: ('A' for Active; 'I' for Inactive)
REMARK    1  A    between atoms: C_1  and  C_2
REMARK    2  A    between atoms: C_2  and  C_4
REMARK    3  A    between atoms: C_2  and  N_10
REMARK    4  A    between atoms: C_11  and  C_13
REMARK    5  A    between atoms: C_18  and  N_19
REMARK    6  A    between atoms: C_20  and  C_22
REMARK    7  A    between atoms: C_22  and  N_23
REMARK                            x       y       z     vdW  Elec       q    Type
REMARK                         _______ _______ _______ _____ _____    ______ ____
ROOT
ATOM      1  N   UNL     1       1.857   5.094   1.677  0.00  0.00    -0.284 N 
ATOM      2  C   UNL     1       1.606   3.794   1.427  0.00  0.00    +0.235 C 
ATOM      3  O   UNL     1       1.478   3.013   2.346  0.00  0.00    -0.274 OA
ATOM      4  H   UNL     1       2.039   5.703   0.945  0.00  0.00    +0.155 HD
ENDROOT
BRANCH   1  10
ATOM      5  C   UNL     1       2.601   6.702   3.331  0.00  0.00    +0.058 A 
ATOM      6  C   UNL     1       2.587   7.165   4.648  0.00  0.00    +0.015 A 
ATOM      7  C   UNL     1       1.852   6.499   5.604  0.00  0.00    +0.001 A 
ATOM      8  C   UNL     1       1.121   5.371   5.264  0.00  0.00    +0.002 A 
ATOM      9  C   UNL     1       1.122   4.904   3.965  0.00  0.00    +0.024 A 
ATOM     10  C   UNL     1       1.856   5.564   2.989  0.00  0.00    +0.046 A 
BRANCH   5  12
ATOM     11  N   UNL     1       4.184   8.439   2.655  0.00  0.00    -0.305 N 
ATOM     12  C   UNL     1       3.391   7.407   2.304  0.00  0.00    +0.246 C 
ATOM     13  O   UNL     1       3.326   7.058   1.141  0.00  0.00    -0.270 OA
ATOM     14  H   UNL     1       4.236   8.718   3.582  0.00  0.00    +0.150 HD
BRANCH  11  16
ATOM     15  C   UNL     1       4.104  10.219   0.979  0.00  0.00    +0.033 C 
ATOM     16  C   UNL     1       4.968   9.140   1.635  0.00  0.00    +0.100 C 
BRANCH  16  17
ATOM     17  C   UNL     1       6.170   9.783   2.279  0.00  0.00    -0.027 A 
ATOM     18  C   UNL     1       6.048  10.395   3.512  0.00  0.00    +0.005 A 
ATOM     19  C   UNL     1       7.152  10.980   4.105  0.00  0.00    +0.000 A 
ATOM     20  C   UNL     1       8.374  10.962   3.459  0.00  0.00    +0.000 A 
ATOM     21  C   UNL     1       8.494  10.354   2.224  0.00  0.00    +0.000 A 
ATOM     22  C   UNL     1       7.392   9.764   1.633  0.00  0.00    +0.005 A 
ENDBRANCH  16  17
ENDBRANCH  11  16
ENDBRANCH   5  12
ENDBRANCH   1  10
BRANCH   2  23
ATOM     23  C   UNL     1       1.483   3.310   0.005  0.00  0.00    +0.214 C 
BRANCH  23  24
ATOM     24  N   UNL     1       1.211   1.871   0.000  0.00  0.00    -0.215 N 
ATOM     25  C   UNL     1       2.166   0.919  -0.025  0.00  0.00    +0.251 C 
ATOM     26  O   UNL     1       3.367   1.085  -0.049  0.00  0.00    -0.272 OA
ATOM     27  C   UNL     1       1.425  -0.400  -0.020  0.00  0.00    +0.138 C 
ATOM     28  C   UNL     1       1.732  -1.183  -1.290  0.00  0.00    +0.040 C 
ATOM     29  C   UNL     1       1.121  -2.583  -1.157  0.00  0.00    +0.008 C 
ATOM     30  C   UNL     1       1.897  -3.351  -0.089  0.00  0.00    +0.035 C 
ATOM     31  C   UNL     1       1.987  -2.547   1.182  0.00  0.00    -0.042 A 
ATOM     32  C   UNL     1       1.776  -1.186   1.212  0.00  0.00    -0.012 A 
ATOM     33  C   UNL     1       1.885  -0.500   2.414  0.00  0.00    +0.006 A 
ATOM     34  C   UNL     1       2.199  -1.171   3.578  0.00  0.00    +0.000 A 
ATOM     35  C   UNL     1       2.409  -2.537   3.549  0.00  0.00    +0.000 A 
ATOM     36  C   UNL     1       2.302  -3.220   2.355  0.00  0.00    +0.004 A 
ATOM     37  N   UNL     1       0.009  -0.009   0.011  0.00  0.00    -0.281 N 
ATOM     38  C   UNL     1      -0.016   1.337   0.021  0.00  0.00    +0.310 C 
ATOM     39  O   UNL     1      -1.038   1.994   0.042  0.00  0.00    -0.252 OA
ATOM     40  H   UNL     1      -0.757  -0.604   0.022  0.00  0.00    +0.152 HD
ENDBRANCH  23  24
ENDBRANCH   2  23
TORSDOF 6
