REMARK  Name = ZINC64739436
REMARK  4 active torsions:
REMARK  status: ('A' for Active; 'I' for Inactive)
REMARK    1  A    between atoms: C_1  and  S_2
REMARK    2  A    between atoms: S_2  and  C_3
REMARK    3  A    between atoms: C_9  and  C_17
REMARK    4  A    between atoms: N_19  and  C_20
REMARK                            x       y       z     vdW  Elec       q    Type
REMARK                         _______ _______ _______ _____ _____    ______ ____
ROOT
ATOM      1  C   UNL     1      -1.703  -0.456   0.014  0.00  0.00    +0.182 C 
ATOM      2  N   UNL     1      -2.596   0.519   0.015  0.00  0.00    -0.155 NA
ATOM      3  C   UNL     1      -3.908   0.280  -0.040  0.00  0.00    +0.249 C 
ATOM      4  O   UNL     1      -4.723   1.181  -0.012  0.00  0.00    -0.273 OA
ATOM      5  C   UNL     1      -4.331  -1.171  -0.141  0.00  0.00    +0.153 C 
ATOM      6  C   UNL     1      -5.302  -1.468   1.003  0.00  0.00    +0.103 C 
ATOM      7  C   UNL     1      -5.868  -2.877   0.811  0.00  0.00    +0.110 C 
ATOM      8  C   UNL     1      -4.770  -3.867   0.552  0.00  0.00    +0.219 C 
ATOM      9  O   UNL     1      -5.000  -5.045   0.723  0.00  0.00    -0.275 OA
ATOM     10  N   UNL     1      -3.544  -3.506   0.137  0.00  0.00    -0.273 N 
ATOM     11  C   UNL     1      -3.217  -2.195  -0.027  0.00  0.00    +0.117 C 
ATOM     12  N   UNL     1      -1.989  -1.763   0.017  0.00  0.00    -0.212 NA
ATOM     13  H   UNL     1      -2.884  -4.189  -0.062  0.00  0.00    +0.156 HD
ENDROOT
BRANCH   6  14
ATOM     14  C   UNL     1      -4.573  -1.387   2.320  0.00  0.00    +0.222 C 
ATOM     15  O   UNL     1      -3.390  -1.117   2.342  0.00  0.00    -0.275 OA
ATOM     16  N   UNL     1      -5.234  -1.613   3.472  0.00  0.00    -0.284 N 
ATOM     17  H   UNL     1      -6.195  -1.749   3.461  0.00  0.00    +0.155 HD
BRANCH  16  18
ATOM     18  C   UNL     1      -4.536  -1.652   4.684  0.00  0.00    +0.047 A 
ATOM     19  C   UNL     1      -3.185  -1.974   4.699  0.00  0.00    +0.024 A 
ATOM     20  C   UNL     1      -2.499  -2.011   5.896  0.00  0.00    +0.002 A 
ATOM     21  C   UNL     1      -3.155  -1.728   7.081  0.00  0.00    +0.001 A 
ATOM     22  C   UNL     1      -4.499  -1.408   7.070  0.00  0.00    +0.017 A 
ATOM     23  C   UNL     1      -5.191  -1.363   5.874  0.00  0.00    +0.039 A 
ATOM     24 BR   UNL     1      -7.029  -0.917   5.860  0.00  0.00    -0.048 Br
ENDBRANCH  16  18
ENDBRANCH   6  14
BRANCH   1  26
ATOM     25  C   UNL     1      -0.036   1.817  -0.001  0.00  0.00    +0.093 C 
ATOM     26  S   UNL     1      -0.001   0.003   0.000  0.00  0.00    -0.092 S 
ENDBRANCH   1  26
TORSDOF 3
