REMARK  Name = ZINC00628484
REMARK  13 active torsions:
REMARK  status: ('A' for Active; 'I' for Inactive)
REMARK    1  A    between atoms: C_1  and  C_2
REMARK    2  A    between atoms: C_2  and  O_3
REMARK    3  A    between atoms: O_3  and  C_4
REMARK    4  A    between atoms: C_4  and  C_6
REMARK    5  A    between atoms: C_7  and  C_36
REMARK    6  A    between atoms: C_8  and  C_13
REMARK    7  A    between atoms: C_11  and  C_12
REMARK    8  A    between atoms: C_13  and  C_15
REMARK    9  A    between atoms: C_15  and  S_16
REMARK   10  A    between atoms: S_16  and  C_17
REMARK   11  A    between atoms: C_25  and  C_29
REMARK   12  A    between atoms: N_32  and  C_33
REMARK   13  A    between atoms: C_33  and  C_34
REMARK                            x       y       z     vdW  Elec       q    Type
REMARK                         _______ _______ _______ _____ _____    ______ ____
ROOT
ATOM      1  C   UNL     1       3.807   2.262   5.931  0.00  0.00    +0.173 A 
ATOM      2  N   UNL     1       2.799   2.650   6.685  0.00  0.00    -0.216 NA
ATOM      3  C   UNL     1       2.991   3.001   7.951  0.00  0.00    +0.117 A 
ATOM      4  C   UNL     1       4.263   2.977   8.547  0.00  0.00    +0.076 A 
ATOM      5  C   UNL     1       4.319   3.393   9.950  0.00  0.00    -0.023 A 
ATOM      6  C   UNL     1       3.156   3.754  10.529  0.00  0.00    -0.004 A 
ATOM      7  S   UNL     1       1.933   3.565   9.259  0.00  0.00    -0.073 S 
ATOM      8  C   UNL     1       2.948   4.214  11.939  0.00  0.00    +0.046 C 
ATOM      9  C   UNL     1       4.202   3.864  12.753  0.00  0.00    -0.009 C 
ATOM     10  C   UNL     1       5.438   4.314  11.969  0.00  0.00    +0.008 C 
ATOM     11  C   UNL     1       5.625   3.423  10.740  0.00  0.00    +0.037 C 
ATOM     12  C   UNL     1       4.156   4.585  14.102  0.00  0.00    +0.008 C 
ATOM     13  C   UNL     1       5.339   2.551   7.706  0.00  0.00    +0.263 A 
ATOM     14  O   UNL     1       6.478   2.499   8.137  0.00  0.00    -0.267 OA
ATOM     15  N   UNL     1       5.075   2.205   6.432  0.00  0.00    -0.283 N 
ENDROOT
BRANCH   1  16
ATOM     16  S   UNL     1       3.514   1.803   4.255  0.00  0.00    -0.080 S 
BRANCH  16  17
ATOM     17  C   UNL     1       1.725   2.062   4.167  0.00  0.00    +0.158 C 
BRANCH  17  18
ATOM     18  C   UNL     1       1.235   1.723   2.783  0.00  0.00    +0.190 C 
ATOM     19  O   UNL     1       2.020   1.343   1.938  0.00  0.00    -0.290 OA
BRANCH  18  22
ATOM     20  C   UNL     1      -2.098   1.838   1.381  0.00  0.00    +0.083 A 
ATOM     21  C   UNL     1      -0.718   1.572   1.248  0.00  0.00    -0.008 A 
ATOM     22  C   UNL     1      -0.139   1.847   2.468  0.00  0.00    +0.087 A 
ATOM     23  N   UNL     1      -1.134   2.265   3.329  0.00  0.00    -0.355 N 
ATOM     24  H   UNL     1      -1.003   2.524   4.254  0.00  0.00    +0.166 HD
ATOM     25  C   UNL     1      -2.309   2.258   2.683  0.00  0.00    +0.028 A 
ATOM     26  C   UNL     1      -3.639   2.649   3.275  0.00  0.00    +0.064 C 
ATOM     27  C   UNL     1      -0.013   1.086   0.008  0.00  0.00    +0.047 C 
BRANCH  20  28
ATOM     28  C   UNL     1      -3.121   1.694   0.332  0.00  0.00    +0.341 C 
ATOM     29  O   UNL     1      -3.707   0.638   0.196  0.00  0.00    -0.245 OA
BRANCH  28  30
ATOM     30  O   UNL     1      -3.408   2.732  -0.477  0.00  0.00    -0.461 OA
BRANCH  30  32
ATOM     31  C   UNL     1      -4.614   3.799  -2.304  0.00  0.00    +0.048 C 
ATOM     32  C   UNL     1      -4.428   2.518  -1.489  0.00  0.00    +0.229 C 
ENDBRANCH  30  32
ENDBRANCH  28  30
ENDBRANCH  20  28
ENDBRANCH  18  22
ENDBRANCH  17  18
ENDBRANCH  16  17
ENDBRANCH   1  16
BRANCH  15  33
ATOM     33  C   UNL     1       6.171   1.762   5.566  0.00  0.00    +0.154 C 
BRANCH  33  34
ATOM     34  C   UNL     1       6.768   2.954   4.863  0.00  0.00    -0.013 C 
ATOM     35  C   UNL     1       8.052   3.195   4.958  0.00  0.00    +0.005 C 
ENDBRANCH  33  34
ENDBRANCH  15  33
TORSDOF 9
