REMARK  Name = ZINC10066170
REMARK  10 active torsions:
REMARK  status: ('A' for Active; 'I' for Inactive)
REMARK    1  A    between atoms: C_1  and  C_2
REMARK    2  A    between atoms: C_4  and  C_28
REMARK    3  A    between atoms: N_11  and  C_12
REMARK    4  A    between atoms: C_12  and  C_13
REMARK    5  A    between atoms: C_13  and  N_52
REMARK    6  A    between atoms: C_14  and  N_52
REMARK    7  A    between atoms: C_15  and  N_52
REMARK    8  A    between atoms: C_16  and  C_18
REMARK    9  A    between atoms: C_18  and  O_19
REMARK   10  A    between atoms: O_19  and  C_20
REMARK                            x       y       z     vdW  Elec       q    Type
REMARK                         _______ _______ _______ _____ _____    ______ ____
ROOT
ATOM      1  C   UNL     1      -2.519   0.997   0.020  0.00  0.00    +0.044 C 
ATOM      2  C   UNL     1      -1.217   1.755   0.017  0.00  0.00    -0.049 A 
ATOM      3  C   UNL     1      -1.214   3.143   0.031  0.00  0.00    +0.009 A 
ATOM      4  C   UNL     1      -0.044   3.857   0.023  0.00  0.00    -0.024 A 
ATOM      5  C   UNL     1       1.206   3.196   0.007  0.00  0.00    +0.083 A 
ATOM      6  C   UNL     1       1.164   1.782   0.001  0.00  0.00    +0.041 A 
ATOM      7  C   UNL     1      -0.013   1.076   0.008  0.00  0.00    +0.020 A 
ATOM      8  S   UNL     1       2.888   1.354  -0.018  0.00  0.00    -0.052 S 
ATOM      9  C   UNL     1       3.534   3.020  -0.015  0.00  0.00    +0.168 A 
ATOM     10  N   UNL     1       2.439   3.745  -0.002  0.00  0.00    -0.224 NA
ATOM     11  N   UNL     1       4.854   3.441  -0.026  0.00  0.00    -0.249 N 
ATOM     12  C   UNL     1       5.142   4.758  -0.022  0.00  0.00    +0.259 C 
ATOM     13  O   UNL     1       4.245   5.574  -0.010  0.00  0.00    -0.271 OA
ATOM     14  C   UNL     1      -0.091   5.363   0.031  0.00  0.00    +0.046 C 
ENDROOT
BRANCH  11  15
ATOM     15  C   UNL     1       5.937   2.454  -0.041  0.00  0.00    +0.097 C 
BRANCH  15  16
ATOM     16  C   UNL     1       6.300   2.118  -1.489  0.00  0.00    -0.060 C 
BRANCH  16  19
ATOM     17  C   UNL     1       6.936  -0.155  -0.949  0.00  0.00    -0.097 C 
ATOM     18  C   UNL     1       7.923   0.956  -2.860  0.00  0.00    -0.097 C 
ATOM     19  N   UNL     1       7.407   1.138  -1.487  0.00  0.00    +0.377 N 
ATOM     20  H   UNL     1       8.164   1.492  -0.891  0.00  0.00    -0.083 HD
ENDBRANCH  16  19
ENDBRANCH  15  16
ENDBRANCH  11  15
BRANCH  12  21
ATOM     21  C   UNL     1       6.578   5.215  -0.034  0.00  0.00    +0.325 C 
BRANCH  21  22
ATOM     22  O   UNL     1       6.623   6.643  -0.028  0.00  0.00    -0.481 OA
BRANCH  22  23
ATOM     23  C   UNL     1       7.853   7.222  -0.037  0.00  0.00    +0.140 A 
ATOM     24  C   UNL     1       8.992   6.431  -0.051  0.00  0.00    +0.048 A 
ATOM     25  C   UNL     1      10.242   7.021  -0.060  0.00  0.00    +0.023 A 
ATOM     26  C   UNL     1      10.357   8.400  -0.055  0.00  0.00    +0.043 A 
ATOM     27  C   UNL     1       9.223   9.191  -0.040  0.00  0.00    +0.043 A 
ATOM     28  C   UNL     1       7.970   8.605  -0.037  0.00  0.00    +0.084 A 
ATOM     29 CL   UNL     1       6.546   9.598  -0.027  0.00  0.00    -0.080 Cl
ATOM     30 CL   UNL     1      11.928   9.138  -0.066  0.00  0.00    -0.083 Cl
ENDBRANCH  22  23
ENDBRANCH  21  22
ENDBRANCH  12  21
TORSDOF 6
