REMARK  Name = ZINC50523889
REMARK  2 active torsions:
REMARK  status: ('A' for Active; 'I' for Inactive)
REMARK    1  A    between atoms: C_11  and  C_20
REMARK    2  A    between atoms: C_20  and  N_21
REMARK                            x       y       z     vdW  Elec       q    Type
REMARK                         _______ _______ _______ _____ _____    ______ ____
ROOT
ATOM      1  C   UNL     1      -0.016   1.361   0.009  0.00  0.00    +0.001 A 
ATOM      2  C   UNL     1       1.169   2.085   0.002  0.00  0.00    +0.002 A 
ATOM      3  C   UNL     1       2.378   1.447  -0.013  0.00  0.00    +0.028 A 
ATOM      4  C   UNL     1       2.428   0.056  -0.021  0.00  0.00    +0.076 A 
ATOM      5  C   UNL     1       1.227  -0.679  -0.013  0.00  0.00    +0.020 A 
ATOM      6  C   UNL     1       0.002  -0.004   0.002  0.00  0.00    +0.011 A 
ATOM      7  C   UNL     1       1.609  -2.088  -0.025  0.00  0.00    +0.143 A 
ATOM      8  N   UNL     1       2.910  -2.149  -0.038  0.00  0.00    -0.172 NA
ATOM      9  N   UNL     1       3.452  -0.859  -0.036  0.00  0.00    -0.214 N 
ATOM     10  C   UNL     1       4.813  -0.552  -0.049  0.00  0.00    +0.156 A 
ATOM     11  C   UNL     1       5.752  -1.577  -0.069  0.00  0.00    -0.020 A 
ATOM     12  C   UNL     1       7.094  -1.250  -0.079  0.00  0.00    +0.010 A 
ATOM     13  C   UNL     1       7.461   0.094  -0.070  0.00  0.00    -0.026 A 
ATOM     14  C   UNL     1       6.481   1.059  -0.055  0.00  0.00    +0.047 A 
ATOM     15  N   UNL     1       5.201   0.710  -0.047  0.00  0.00    -0.232 NA
ATOM     16  C   UNL     1       6.800   2.533  -0.062  0.00  0.00    +0.056 C 
ATOM     17  C   UNL     1       8.249   2.771   0.357  0.00  0.00    +0.006 C 
ATOM     18  C   UNL     1       9.154   1.874  -0.496  0.00  0.00    +0.005 C 
ATOM     19  C   UNL     1       8.930   0.423  -0.073  0.00  0.00    +0.037 C 
ENDROOT
BRANCH  11  20
ATOM     20  C   UNL     1       5.314  -3.019  -0.080  0.00  0.00    -0.047 C 
BRANCH  20  21
ATOM     21  N   UNL     1       4.928  -3.403  -1.445  0.00  0.00    +0.381 N 
ATOM     22  H   UNL     1       5.717  -3.287  -2.063  0.00  0.00    -0.090 HD
ATOM     23  H   UNL     1       4.634  -4.368  -1.452  0.00  0.00    -0.090 HD
ATOM     24  H   UNL     1       4.167  -2.818  -1.756  0.00  0.00    -0.090 HD
ENDBRANCH  20  21
ENDBRANCH  11  20
TORSDOF 2
