REMARK  Name = ZINC33051993
REMARK  7 active torsions:
REMARK  status: ('A' for Active; 'I' for Inactive)
REMARK    1  A    between atoms: C_1  and  C_2
REMARK    2  A    between atoms: C_2  and  C_3
REMARK    3  A    between atoms: C_6  and  C_9
REMARK    4  A    between atoms: C_18  and  C_27
REMARK    5  A    between atoms: N_20  and  C_21
REMARK    6  A    between atoms: N_32  and  C_33
REMARK    7  A    between atoms: C_33  and  C_34
REMARK                            x       y       z     vdW  Elec       q    Type
REMARK                         _______ _______ _______ _____ _____    ______ ____
ROOT
ATOM      1  C   UNL     1       1.347   4.233   0.066  0.00  0.00    +0.155 C 
ATOM      2  C   UNL     1       0.165   3.338  -0.162  0.00  0.00    +0.050 A 
ATOM      3  C   UNL     1      -1.143   3.634  -0.092  0.00  0.00    +0.025 A 
ATOM      4  C   UNL     1      -1.859   2.479  -0.476  0.00  0.00    +0.020 A 
ATOM      5  C   UNL     1      -0.955   1.509  -0.745  0.00  0.00    +0.093 A 
ATOM      6  N   UNL     1       0.279   2.020  -0.529  0.00  0.00    -0.303 N 
ATOM      7  C   UNL     1       1.539   1.415  -0.590  0.00  0.00    +0.146 A 
ATOM      8  C   UNL     1       2.468   1.644   0.385  0.00  0.00    +0.035 A 
ATOM      9  C   UNL     1       3.630   0.969   0.023  0.00  0.00    +0.067 A 
ATOM     10  N   UNL     1       3.408   0.337  -1.105  0.00  0.00    -0.169 NA
ATOM     11  N   UNL     1       2.083   0.589  -1.502  0.00  0.00    -0.215 N 
ATOM     12  C   UNL     1       4.924   0.966   0.795  0.00  0.00    +0.068 C 
ATOM     13  C   UNL     1       2.184   2.443   1.623  0.00  0.00    +0.151 C 
ATOM     14  N   UNL     1       2.057   3.889   1.320  0.00  0.00    -0.269 N 
ATOM     15  C   UNL     1       2.559   4.835   2.138  0.00  0.00    +0.304 C 
ATOM     16  O   UNL     1       2.435   6.011   1.855  0.00  0.00    -0.253 OA
ATOM     17  N   UNL     1       3.199   4.477   3.269  0.00  0.00    -0.295 N 
ATOM     18  H   UNL     1       3.311   3.413   3.524  0.00  0.00    +0.151 HD
ENDROOT
BRANCH   1  22
ATOM     19  C   UNL     1       4.048   3.843  -3.220  0.00  0.00    -0.048 A 
ATOM     20  C   UNL     1       2.684   3.857  -3.444  0.00  0.00    +0.004 A 
ATOM     21  C   UNL     1       1.810   3.983  -2.381  0.00  0.00    +0.006 A 
ATOM     22  C   UNL     1       2.300   4.096  -1.093  0.00  0.00    -0.021 A 
ATOM     23  C   UNL     1       3.664   4.087  -0.869  0.00  0.00    +0.006 A 
ATOM     24  C   UNL     1       4.538   3.956  -1.932  0.00  0.00    +0.004 A 
BRANCH  19  26
ATOM     25  C   UNL     1       5.361   5.094  -4.912  0.00  0.00    +0.009 C 
ATOM     26  C   UNL     1       5.001   3.705  -4.379  0.00  0.00    +0.032 C 
ENDBRANCH  19  26
ENDBRANCH   1  22
BRANCH  11  27
ATOM     27  C   UNL     1       1.446   0.073  -2.640  0.00  0.00    +0.068 A 
ATOM     28  C   UNL     1       1.647  -1.250  -3.010  0.00  0.00    +0.028 A 
ATOM     29  C   UNL     1       1.014  -1.756  -4.128  0.00  0.00    +0.002 A 
ATOM     30  C   UNL     1       0.190  -0.943  -4.885  0.00  0.00    +0.000 A 
ATOM     31  C   UNL     1      -0.008   0.376  -4.522  0.00  0.00    +0.002 A 
ATOM     32  C   UNL     1       0.618   0.887  -3.401  0.00  0.00    +0.028 A 
ENDBRANCH  11  27
BRANCH  17  33
ATOM     33  C   UNL     1       3.745   5.506   4.158  0.00  0.00    +0.141 C 
BRANCH  33  34
ATOM     34  C   UNL     1       4.405   4.848   5.342  0.00  0.00    -0.030 A 
ATOM     35  C   UNL     1       3.672   4.585   6.484  0.00  0.00    +0.005 A 
ATOM     36  C   UNL     1       4.277   3.977   7.568  0.00  0.00    +0.000 A 
ATOM     37  C   UNL     1       5.616   3.640   7.514  0.00  0.00    +0.000 A 
ATOM     38  C   UNL     1       6.350   3.908   6.374  0.00  0.00    +0.000 A 
ATOM     39  C   UNL     1       5.745   4.511   5.287  0.00  0.00    +0.005 A 
ENDBRANCH  33  34
ENDBRANCH  17  33
TORSDOF 5
