REMARK  Name = ZINC24213412
REMARK  10 active torsions:
REMARK  status: ('A' for Active; 'I' for Inactive)
REMARK    1  A    between atoms: C_1  and  C_2
REMARK    2  A    between atoms: C_2  and  N_3
REMARK    3  A    between atoms: N_3  and  C_4
REMARK    4  A    between atoms: N_3  and  C_18
REMARK    5  A    between atoms: C_4  and  C_5
REMARK    6  A    between atoms: N_7  and  C_8
REMARK    7  A    between atoms: C_18  and  C_19
REMARK    8  A    between atoms: N_21  and  C_22
REMARK    9  A    between atoms: N_21  and  C_24
REMARK   10  A    between atoms: C_22  and  C_23
REMARK                            x       y       z     vdW  Elec       q    Type
REMARK                         _______ _______ _______ _____ _____    ______ ____
ROOT
ATOM      1  N   UNL     1       4.479  -4.262   0.065  0.00  0.00    +0.391 N 
ATOM      2  H   UNL     1       3.770  -4.440  -0.757  0.00  0.00    -0.080 HD
ENDROOT
BRANCH   1   4
ATOM      3  C   UNL     1       2.385  -4.361   1.332  0.00  0.00    -0.017 C 
ATOM      4  C   UNL     1       3.864  -4.753   1.306  0.00  0.00    -0.081 C 
ENDBRANCH   1   4
BRANCH   1   5
ATOM      5  C   UNL     1       4.730  -2.816   0.139  0.00  0.00    +0.020 C 
BRANCH   5   6
ATOM      6  C   UNL     1       4.884  -2.261  -1.254  0.00  0.00    +0.201 C 
ATOM      7  O   UNL     1       4.690  -2.974  -2.216  0.00  0.00    -0.278 OA
ATOM      8  N   UNL     1       5.237  -0.973  -1.430  0.00  0.00    -0.287 N 
ATOM      9  H   UNL     1       5.497  -0.350  -0.562  0.00  0.00    +0.155 HD
BRANCH   8  10
ATOM     10  C   UNL     1       5.271  -0.426  -2.720  0.00  0.00    +0.037 A 
ATOM     11  C   UNL     1       4.897   0.895  -2.925  0.00  0.00    +0.027 A 
ATOM     12  C   UNL     1       4.929   1.434  -4.196  0.00  0.00    +0.051 A 
ATOM     13  C   UNL     1       5.336   0.658  -5.272  0.00  0.00    +0.162 A 
ATOM     14  C   UNL     1       5.714  -0.664  -5.069  0.00  0.00    +0.164 A 
ATOM     15  C   UNL     1       5.679  -1.205  -3.793  0.00  0.00    +0.072 A 
ATOM     16  O   UNL     1       6.124  -1.438  -6.111  0.00  0.00    -0.485 OA
ATOM     17  C   UNL     1       5.790  -0.979  -7.425  0.00  0.00    +0.270 C 
ATOM     18  C   UNL     1       6.124   0.516  -7.511  0.00  0.00    +0.270 C 
ATOM     19  O   UNL     1       5.353   1.204  -6.519  0.00  0.00    -0.485 OA
ENDBRANCH   8  10
ENDBRANCH   5   6
ENDBRANCH   1   5
BRANCH   1  20
ATOM     20  C   UNL     1       5.715  -4.996  -0.237  0.00  0.00    +0.020 C 
BRANCH  20  21
ATOM     21  C   UNL     1       5.382  -6.433  -0.547  0.00  0.00    +0.203 C 
ATOM     22  O   UNL     1       4.229  -6.808  -0.518  0.00  0.00    -0.277 OA
ATOM     23  N   UNL     1       6.366  -7.301  -0.855  0.00  0.00    -0.277 N 
BRANCH  23  24
ATOM     24  C   UNL     1       6.052  -8.601  -1.242  0.00  0.00    +0.009 C 
ATOM     25  C   UNL     1       5.386  -8.765  -2.352  0.00  0.00    -0.008 C 
ATOM     26  C   UNL     1       4.971 -10.104  -2.889  0.00  0.00    +0.029 C 
ATOM     27  C   UNL     1       5.777 -11.216  -2.214  0.00  0.00    +0.004 C 
ATOM     28  C   UNL     1       5.723 -11.002  -0.696  0.00  0.00    +0.006 C 
ATOM     29  C   UNL     1       6.504  -9.728  -0.361  0.00  0.00    +0.051 C 
ENDBRANCH  23  24
BRANCH  23  30
ATOM     30  C   UNL     1       7.766  -6.876  -0.783  0.00  0.00    +0.110 C 
ATOM     31  C   UNL     1       8.322  -7.185   0.609  0.00  0.00    +0.025 C 
ENDBRANCH  23  30
ENDBRANCH  20  21
ENDBRANCH   1  20
TORSDOF 8
