REMARK  Name = ZINC09881504
REMARK  9 active torsions:
REMARK  status: ('A' for Active; 'I' for Inactive)
REMARK    1  A    between atoms: C_1  and  C_2
REMARK    2  A    between atoms: C_2  and  C_3
REMARK    3  A    between atoms: C_2  and  C_4
REMARK    4  A    between atoms: C_4  and  C_6
REMARK    5  A    between atoms: C_4  and  S_12
REMARK    6  A    between atoms: S_12  and  C_13
REMARK    7  A    between atoms: C_16  and  C_25
REMARK    8  A    between atoms: N_17  and  C_18
REMARK    9  A    between atoms: C_25  and  N_57
REMARK                            x       y       z     vdW  Elec       q    Type
REMARK                         _______ _______ _______ _____ _____    ______ ____
ROOT
ATOM      1  C   UNL     1       0.739  -0.105  -1.686  0.00  0.00    +0.197 A 
ATOM      2  N   UNL     1       1.026   0.828  -2.564  0.00  0.00    -0.122 NA
ATOM      3  N   UNL     1       1.397   0.288  -3.670  0.00  0.00    -0.135 NA
ATOM      4  C   UNL     1       1.370  -1.010  -3.567  0.00  0.00    +0.122 A 
ATOM      5  N   UNL     1       0.955  -1.310  -2.297  0.00  0.00    -0.276 N 
ENDROOT
BRANCH   5   6
ATOM      6  C   UNL     1       0.784  -2.586  -1.739  0.00  0.00    +0.050 A 
ATOM      7  C   UNL     1       1.880  -3.419  -1.562  0.00  0.00    +0.029 A 
ATOM      8  C   UNL     1       1.711  -4.673  -1.008  0.00  0.00    +0.040 A 
ATOM      9  C   UNL     1       0.448  -5.103  -0.639  0.00  0.00    +0.124 A 
ATOM     10  C   UNL     1      -0.647  -4.275  -0.819  0.00  0.00    +0.040 A 
ATOM     11  C   UNL     1      -0.481  -3.018  -1.368  0.00  0.00    +0.029 A 
ATOM     12  F   UNL     1       0.283  -6.332  -0.103  0.00  0.00    -0.205 F 
ENDBRANCH   5   6
BRANCH   1  13
ATOM     13  S   UNL     1       0.188   0.148  -0.032  0.00  0.00    -0.073 S 
BRANCH  13  14
ATOM     14  C   UNL     1       0.042   1.952  -0.021  0.00  0.00    +0.143 C 
BRANCH  14  15
ATOM     15  C   UNL     1      -1.092   2.369  -0.922  0.00  0.00    +0.234 C 
ATOM     16  O   UNL     1      -2.000   1.599  -1.150  0.00  0.00    -0.274 OA
ATOM     17  N   UNL     1      -1.095   3.598  -1.475  0.00  0.00    -0.239 N 
ATOM     18  C   UNL     1      -2.108   3.971  -2.282  0.00  0.00    +0.303 C 
ATOM     19  O   UNL     1      -3.019   3.200  -2.510  0.00  0.00    -0.253 OA
ATOM     20  N   UNL     1      -2.112   5.200  -2.835  0.00  0.00    -0.313 N 
ATOM     21  H   UNL     1      -0.368   4.214  -1.293  0.00  0.00    +0.159 HD
ATOM     22  H   UNL     1      -1.385   5.816  -2.653  0.00  0.00    +0.146 HD
ATOM     23  H   UNL     1      -2.841   5.469  -3.415  0.00  0.00    +0.146 HD
ENDBRANCH  14  15
BRANCH  14  25
ATOM     24  C   UNL     1       0.913   2.009   2.320  0.00  0.00    +0.009 C 
ATOM     25  C   UNL     1      -0.237   2.432   1.405  0.00  0.00    +0.005 C 
ATOM     26  C   UNL     1      -0.361   3.957   1.414  0.00  0.00    +0.009 C 
ENDBRANCH  14  25
ENDBRANCH  13  14
ENDBRANCH   1  13
BRANCH   4  27
ATOM     27  C   UNL     1       1.734  -2.000  -4.644  0.00  0.00    -0.001 C 
BRANCH  27  33
ATOM     28  C   UNL     1       3.983  -1.133  -4.869  0.00  0.00    -0.078 C 
ATOM     29  C   UNL     1       5.460  -1.455  -4.628  0.00  0.00    -0.019 C 
ATOM     30  C   UNL     1       5.872  -2.633  -5.515  0.00  0.00    -0.004 C 
ATOM     31  C   UNL     1       4.974  -3.834  -5.205  0.00  0.00    -0.019 C 
ATOM     32  C   UNL     1       3.512  -3.443  -5.429  0.00  0.00    -0.078 C 
ATOM     33  N   UNL     1       3.172  -2.321  -4.529  0.00  0.00    +0.384 N 
ATOM     34  H   UNL     1       3.375  -2.598  -3.561  0.00  0.00    -0.081 HD
ENDBRANCH  27  33
ENDBRANCH   4  27
TORSDOF 7
