REMARK  Name = ZINC35523163
REMARK  5 active torsions:
REMARK  status: ('A' for Active; 'I' for Inactive)
REMARK    1  A    between atoms: C_4  and  C_7
REMARK    2  A    between atoms: C_7  and  C_8
REMARK    3  A    between atoms: C_14  and  C_16
REMARK    4  A    between atoms: C_16  and  N_17
REMARK    5  A    between atoms: C_25  and  C_27
REMARK                            x       y       z     vdW  Elec       q    Type
REMARK                         _______ _______ _______ _____ _____    ______ ____
ROOT
ATOM      1  N   UNL     1       9.442  -0.924   4.924  0.00  0.00    +0.395 N 
ATOM      2  C   UNL     1       9.932   0.283   4.247  0.00  0.00    -0.055 C 
ATOM      3  C   UNL     1      10.880   1.053   5.176  0.00  0.00    +0.103 C 
ATOM      4  N   UNL     1      11.883   0.110   5.684  0.00  0.00    -0.353 N 
ATOM      5  C   UNL     1      13.070   0.387   6.280  0.00  0.00    +0.086 A 
ATOM      6  C   UNL     1      13.673  -0.784   6.581  0.00  0.00    +0.019 A 
ATOM      7  C   UNL     1      12.819  -1.823   6.153  0.00  0.00    +0.021 A 
ATOM      8  C   UNL     1      11.733  -1.251   5.612  0.00  0.00    +0.009 A 
ATOM      9  C   UNL     1      10.521  -1.922   5.016  0.00  0.00    +0.011 C 
ATOM     10  H   UNL     1       9.130  -0.682   5.853  0.00  0.00    -0.080 HD
ENDROOT
BRANCH   9  11
ATOM     11  C   UNL     1      10.085  -3.063   5.898  0.00  0.00    -0.054 A 
ATOM     12  C   UNL     1       9.357  -2.810   7.046  0.00  0.00    +0.004 A 
ATOM     13  C   UNL     1       8.958  -3.855   7.857  0.00  0.00    +0.021 A 
ATOM     14  C   UNL     1       9.285  -5.156   7.520  0.00  0.00    +0.059 A 
ATOM     15  C   UNL     1      10.013  -5.410   6.370  0.00  0.00    +0.059 A 
ATOM     16  C   UNL     1      10.408  -4.363   5.557  0.00  0.00    +0.023 A 
ATOM     17 CL   UNL     1      10.425  -7.042   5.946  0.00  0.00    -0.082 Cl
ATOM     18 CL   UNL     1       8.784  -6.470   8.538  0.00  0.00    -0.082 Cl
ENDBRANCH   9  11
BRANCH   1  19
ATOM     19  C   UNL     1       8.319  -1.488   4.164  0.00  0.00    +0.020 C 
BRANCH  19  26
ATOM     20  C   UNL     1       4.171  -0.963   1.399  0.00  0.00    -0.004 C 
ATOM     21  C   UNL     1       4.462   0.372   2.087  0.00  0.00    +0.023 C 
ATOM     22  C   UNL     1       4.889   0.114   3.535  0.00  0.00    +0.108 C 
ATOM     23  N   UNL     1       6.021  -0.823   3.534  0.00  0.00    -0.303 N 
ATOM     24  C   UNL     1       5.879  -2.101   2.823  0.00  0.00    +0.108 C 
ATOM     25  C   UNL     1       5.441  -1.818   1.383  0.00  0.00    +0.023 C 
ATOM     26  C   UNL     1       7.167  -0.516   4.174  0.00  0.00    +0.199 C 
ATOM     27  O   UNL     1       7.271   0.542   4.757  0.00  0.00    -0.278 OA
BRANCH  20  28
ATOM     28  C   UNL     1       3.711  -0.707  -0.038  0.00  0.00    +0.038 C 
BRANCH  28  32
ATOM     29  C   UNL     1      -0.017   1.378   0.010  0.00  0.00    +0.000 A 
ATOM     30  C   UNL     1       1.171   2.086   0.002  0.00  0.00    +0.000 A 
ATOM     31  C   UNL     1       2.377   1.411  -0.013  0.00  0.00    +0.003 A 
ATOM     32  C   UNL     1       2.396   0.029  -0.020  0.00  0.00    -0.047 A 
ATOM     33  C   UNL     1       1.208  -0.679  -0.012  0.00  0.00    +0.003 A 
ATOM     34  C   UNL     1       0.002  -0.004   0.002  0.00  0.00    +0.000 A 
ENDBRANCH  28  32
ENDBRANCH  20  28
ENDBRANCH  19  26
ENDBRANCH   1  19
TORSDOF 5
