REMARK  Name = ZINC33040575
REMARK  8 active torsions:
REMARK  status: ('A' for Active; 'I' for Inactive)
REMARK    1  A    between atoms: C_1  and  C_2
REMARK    2  A    between atoms: C_2  and  O_3
REMARK    3  A    between atoms: O_3  and  C_4
REMARK    4  A    between atoms: C_9  and  N_10
REMARK    5  A    between atoms: C_25  and  C_27
REMARK    6  A    between atoms: C_30  and  N_33
REMARK    7  A    between atoms: N_33  and  C_34
REMARK    8  A    between atoms: N_33  and  C_35
REMARK                            x       y       z     vdW  Elec       q    Type
REMARK                         _______ _______ _______ _____ _____    ______ ____
ROOT
ATOM      1  N   UNL     1      -0.430   2.486   0.018  0.00  0.00    -0.266 N 
ATOM      2  C   UNL     1      -0.777   3.786   0.097  0.00  0.00    +0.308 C 
ATOM      3  O   UNL     1       0.075   4.649   0.013  0.00  0.00    -0.252 OA
ATOM      4  N   UNL     1      -2.069   4.129   0.269  0.00  0.00    -0.268 N 
ATOM      5  C   UNL     1      -3.131   3.112   0.375  0.00  0.00    +0.148 C 
ATOM      6  C   UNL     1      -4.174   3.462   1.414  0.00  0.00    +0.005 A 
ATOM      7  C   UNL     1      -4.321   2.754   2.624  0.00  0.00    -0.030 A 
ATOM      8  C   UNL     1      -5.311   3.145   3.469  0.00  0.00    -0.005 A 
ATOM      9  S   UNL     1      -6.064   4.518   2.633  0.00  0.00    -0.075 S 
ATOM     10  C   UNL     1      -5.026   4.502   1.204  0.00  0.00    +0.090 A 
ATOM     11  N   UNL     1      -4.988   5.327   0.087  0.00  0.00    -0.312 N 
ATOM     12  C   UNL     1      -5.970   5.785  -0.723  0.00  0.00    +0.092 A 
ATOM     13  C   UNL     1      -5.394   6.501  -1.715  0.00  0.00    +0.020 A 
ATOM     14  C   UNL     1      -4.000   6.497  -1.489  0.00  0.00    +0.025 A 
ATOM     15  C   UNL     1      -3.778   5.795  -0.368  0.00  0.00    +0.049 A 
ATOM     16  C   UNL     1      -2.490   5.547   0.367  0.00  0.00    +0.155 C 
ATOM     17  C   UNL     1      -5.670   2.552   4.792  0.00  0.00    +0.043 C 
ATOM     18  C   UNL     1      -4.970   1.190   4.917  0.00  0.00    +0.005 C 
ATOM     19  C   UNL     1      -3.504   1.352   4.504  0.00  0.00    +0.005 C 
ATOM     20  C   UNL     1      -3.409   1.587   2.996  0.00  0.00    +0.036 C 
ATOM     21  H   UNL     1      -1.208   1.708   0.004  0.00  0.00    +0.156 HD
ENDROOT
BRANCH   1  27
ATOM     22  C   UNL     1       1.289   0.872  -0.532  0.00  0.00    +0.142 A 
ATOM     23  C   UNL     1       2.628   0.522  -0.598  0.00  0.00    +0.047 A 
ATOM     24  C   UNL     1       3.598   1.416  -0.183  0.00  0.00    +0.004 A 
ATOM     25  C   UNL     1       3.235   2.660   0.299  0.00  0.00    +0.002 A 
ATOM     26  C   UNL     1       1.901   3.017   0.368  0.00  0.00    +0.027 A 
ATOM     27  C   UNL     1       0.923   2.125  -0.046  0.00  0.00    +0.077 A 
BRANCH  22  28
ATOM     28  O   UNL     1       0.334  -0.007  -0.939  0.00  0.00    -0.490 OA
BRANCH  28  30
ATOM     29  C   UNL     1      -0.424  -2.120  -1.833  0.00  0.00    +0.048 C 
ATOM     30  C   UNL     1       0.783  -1.273  -1.425  0.00  0.00    +0.226 C 
ENDBRANCH  28  30
ENDBRANCH  22  28
ENDBRANCH   1  27
BRANCH  16  31
ATOM     31  C   UNL     1      -2.672   5.906   1.819  0.00  0.00    -0.021 A 
ATOM     32  C   UNL     1      -3.515   6.943   2.174  0.00  0.00    +0.007 A 
ATOM     33  C   UNL     1      -3.688   7.271   3.504  0.00  0.00    +0.023 A 
ATOM     34  C   UNL     1      -3.005   6.565   4.486  0.00  0.00    +0.029 A 
ATOM     35  C   UNL     1      -2.155   5.527   4.127  0.00  0.00    +0.023 A 
ATOM     36  C   UNL     1      -1.991   5.201   2.795  0.00  0.00    +0.007 A 
BRANCH  34  37
ATOM     37  N   UNL     1      -3.174   6.897   5.832  0.00  0.00    -0.336 N 
ATOM     38  C   UNL     1      -2.538   6.085   6.872  0.00  0.00    +0.129 C 
ATOM     39  C   UNL     1      -3.986   8.058   6.204  0.00  0.00    +0.129 C 
ENDBRANCH  34  37
ENDBRANCH  16  31
TORSDOF 5
