REMARK  Name = ZINC39687689
REMARK  7 active torsions:
REMARK  status: ('A' for Active; 'I' for Inactive)
REMARK    1  A    between atoms: C_1  and  C_2
REMARK    2  A    between atoms: C_7  and  N_8
REMARK    3  A    between atoms: C_11  and  N_14
REMARK    4  A    between atoms: C_15  and  C_17
REMARK    5  A    between atoms: C_28  and  C_30
REMARK    6  A    between atoms: C_32  and  C_39
REMARK    7  A    between atoms: C_34  and  C_35
REMARK                            x       y       z     vdW  Elec       q    Type
REMARK                         _______ _______ _______ _____ _____    ______ ____
ROOT
ATOM      1  C   UNL     1       3.836   1.879   6.909  0.00  0.00    +0.100 C 
ATOM      2  C   UNL     1       4.179   3.385   6.889  0.00  0.00    +0.121 C 
ATOM      3  N   UNL     1       3.514   3.937   8.093  0.00  0.00    -0.296 N 
ATOM      4  C   UNL     1       3.712   2.899   9.132  0.00  0.00    +0.115 C 
ATOM      5  C   UNL     1       3.534   1.563   8.384  0.00  0.00    -0.004 C 
ATOM      6  C   UNL     1       4.518   0.525   8.914  0.00  0.00    -0.010 C 
ATOM      7  C   UNL     1       4.160   0.183  10.364  0.00  0.00    -0.082 C 
ATOM      8  N   UNL     1       2.789  -0.338  10.422  0.00  0.00    +0.379 N 
ATOM      9  C   UNL     1       1.841   0.699   9.998  0.00  0.00    -0.082 C 
ATOM     10  C   UNL     1       2.100   1.062   8.533  0.00  0.00    -0.010 C 
ATOM     11  C   UNL     1       2.874   5.117   8.215  0.00  0.00    +0.250 C 
ATOM     12  O   UNL     1       2.790   5.865   7.260  0.00  0.00    -0.270 OA
ATOM     13  H   UNL     1       2.708  -1.137   9.810  0.00  0.00    -0.086 HD
ATOM     14  H   UNL     1       2.578  -0.619  11.367  0.00  0.00    -0.086 HD
ENDROOT
BRANCH  11  15
ATOM     15  C   UNL     1       2.276   5.500   9.506  0.00  0.00    +0.087 A 
ATOM     16  C   UNL     1       2.443   4.822  10.800  0.00  0.00    +0.058 A 
ATOM     17  C   UNL     1       1.717   5.525  11.682  0.00  0.00    +0.103 A 
ATOM     18  O   UNL     1       1.133   6.555  11.049  0.00  0.00    -0.455 OA
ATOM     19  C   UNL     1       1.457   6.563   9.752  0.00  0.00    +0.220 A 
ATOM     20  C   UNL     1       1.579   5.209  13.149  0.00  0.00    +0.086 C 
BRANCH  19  21
ATOM     21  C   UNL     1       0.993   7.573   8.735  0.00  0.00    +0.451 C 
ATOM     22  F   UNL     1      -0.203   7.135   8.155  0.00  0.00    -0.163 F 
ATOM     23  F   UNL     1       0.783   8.805   9.362  0.00  0.00    -0.163 F 
ATOM     24  F   UNL     1       1.967   7.715   7.741  0.00  0.00    -0.163 F 
ENDBRANCH  19  21
ENDBRANCH  11  15
BRANCH   1  26
ATOM     25  N   UNL     1       2.399   0.362   5.585  0.00  0.00    -0.312 N 
ATOM     26  C   UNL     1       2.626   1.605   6.055  0.00  0.00    +0.218 C 
ATOM     27  O   UNL     1       1.855   2.503   5.789  0.00  0.00    -0.275 OA
ATOM     28  H   UNL     1       3.016  -0.356   5.797  0.00  0.00    +0.149 HD
BRANCH  25  32
ATOM     29  N   UNL     1      -0.921  -1.499   3.826  0.00  0.00    -0.316 N 
ATOM     30  C   UNL     1       0.270  -1.376   2.975  0.00  0.00    +0.108 C 
ATOM     31  C   UNL     1       1.490  -1.122   3.867  0.00  0.00    +0.041 C 
ATOM     32  C   UNL     1       1.222   0.096   4.754  0.00  0.00    +0.076 C 
ATOM     33  C   UNL     1       0.015  -0.180   5.654  0.00  0.00    +0.041 C 
ATOM     34  C   UNL     1      -1.224  -0.422   4.778  0.00  0.00    +0.108 C 
BRANCH  29  41
ATOM     35  C   UNL     1      -2.944  -1.480   1.827  0.00  0.00    +0.047 C 
ATOM     36  C   UNL     1      -2.751  -2.643   2.765  0.00  0.00    -0.012 A 
ATOM     37  C   UNL     1      -3.564  -3.759   2.676  0.00  0.00    +0.008 A 
ATOM     38  C   UNL     1      -3.350  -4.807   3.561  0.00  0.00    +0.018 A 
ATOM     39  C   UNL     1      -2.340  -4.706   4.497  0.00  0.00    +0.084 A 
ATOM     40  N   UNL     1      -1.580  -3.630   4.560  0.00  0.00    -0.349 N 
ATOM     41  C   UNL     1      -1.749  -2.612   3.729  0.00  0.00    +0.102 A 
ATOM     42  H   UNL     1      -0.878  -3.584   5.227  0.00  0.00    +0.167 HD
ENDBRANCH  29  41
ENDBRANCH  25  32
ENDBRANCH   1  26
TORSDOF 5
