REMARK  Name = ZINC20326480
REMARK  10 active torsions:
REMARK  status: ('A' for Active; 'I' for Inactive)
REMARK    1  A    between atoms: C_1  and  O_2
REMARK    2  A    between atoms: O_2  and  C_3
REMARK    3  A    between atoms: C_6  and  O_9
REMARK    4  A    between atoms: O_9  and  C_10
REMARK    5  A    between atoms: C_10  and  C_11
REMARK    6  A    between atoms: C_11  and  C_12
REMARK    7  A    between atoms: C_12  and  O_13
REMARK    8  A    between atoms: O_13  and  C_14
REMARK    9  A    between atoms: C_17  and  C_20
REMARK   10  A    between atoms: C_30  and  C_32
REMARK                            x       y       z     vdW  Elec       q    Type
REMARK                         _______ _______ _______ _____ _____    ______ ____
ROOT
ATOM      1  C   UNL     1       3.713  -7.810   7.484  0.00  0.00    +0.121 A 
ATOM      2  C   UNL     1       3.377  -8.487   6.316  0.00  0.00    +0.046 A 
ATOM      3  C   UNL     1       3.618  -9.827   6.207  0.00  0.00    +0.011 A 
ATOM      4  C   UNL     1       4.206 -10.520   7.275  0.00  0.00    -0.024 A 
ATOM      5  C   UNL     1       4.542  -9.832   8.449  0.00  0.00    +0.011 A 
ATOM      6  C   UNL     1       4.301  -8.491   8.544  0.00  0.00    +0.046 A 
ENDROOT
BRANCH   4   7
ATOM      7  C   UNL     1       4.467 -11.957   7.164  0.00  0.00    +0.024 C 
ATOM      8  C   UNL     1       5.600 -12.496   7.730  0.00  0.00    +0.079 C 
ATOM      9  C   UNL     1       5.817 -13.969   7.802  0.00  0.00    +0.132 C 
ATOM     10  N   UNL     1       5.389 -14.803   6.892  0.00  0.00    -0.385 N 
ATOM     11  N   UNL     1       6.531 -14.375   8.950  0.00  0.00    -0.153 N 
ATOM     12  C   UNL     1       7.338 -13.439   9.561  0.00  0.00    +0.181 C 
ATOM     13  N   UNL     1       7.457 -12.170   9.261  0.00  0.00    -0.152 NA
ATOM     14  C   UNL     1       6.674 -11.643   8.296  0.00  0.00    +0.273 C 
ATOM     15  O   UNL     1       6.839 -10.499   7.904  0.00  0.00    -0.268 OA
ATOM     16  S   UNL     1       8.125 -14.393  10.832  0.00  0.00    -0.032 S 
ATOM     17  C   UNL     1       7.264 -15.932  10.539  0.00  0.00    +0.136 C 
ATOM     18  N   UNL     1       6.501 -15.633   9.512  0.00  0.00    -0.164 NA
ATOM     19  H   UNL     1       4.903 -14.471   6.121  0.00  0.00    +0.157 HD
ATOM     20  H   UNL     1       5.557 -15.754   6.987  0.00  0.00    +0.157 HD
BRANCH  17  21
ATOM     21  C   UNL     1       7.380 -17.209  11.264  0.00  0.00    +0.046 A 
ATOM     22  C   UNL     1       8.171 -17.523  12.339  0.00  0.00    +0.018 A 
ATOM     23  C   UNL     1       8.110 -18.798  12.855  0.00  0.00    +0.008 A 
ATOM     24  C   UNL     1       7.271 -19.703  12.285  0.00  0.00    +0.046 A 
ATOM     25  S   UNL     1       6.523 -18.748  10.975  0.00  0.00    -0.095 S 
ENDBRANCH  17  21
ENDBRANCH   4   7
BRANCH   1  26
ATOM     26  O   UNL     1       3.470  -6.479   7.586  0.00  0.00    -0.492 OA
BRANCH  26  27
ATOM     27  C   UNL     1       2.864  -5.841   6.461  0.00  0.00    +0.232 C 
BRANCH  27  28
ATOM     28  C   UNL     1       2.670  -4.353   6.760  0.00  0.00    +0.082 C 
BRANCH  28  29
ATOM     29  C   UNL     1       2.021  -3.670   5.555  0.00  0.00    +0.232 C 
BRANCH  29  30
ATOM     30  O   UNL     1       1.840  -2.281   5.835  0.00  0.00    -0.492 OA
BRANCH  30  34
ATOM     31  C   UNL     1       0.114   0.019   2.873  0.00  0.00    +0.120 A 
ATOM     32  C   UNL     1       0.489   0.603   4.074  0.00  0.00    +0.049 A 
ATOM     33  C   UNL     1       1.066  -0.167   5.065  0.00  0.00    +0.049 A 
ATOM     34  C   UNL     1       1.271  -1.523   4.860  0.00  0.00    +0.121 A 
ATOM     35  C   UNL     1       0.895  -2.107   3.659  0.00  0.00    +0.049 A 
ATOM     36  C   UNL     1       0.314  -1.338   2.669  0.00  0.00    +0.049 A 
BRANCH  31  38
ATOM     37  C   UNL     1      -0.630   2.167   2.175  0.00  0.00    +0.277 C 
ATOM     38  O   UNL     1      -0.455   0.776   1.897  0.00  0.00    -0.495 OA
ENDBRANCH  31  38
ENDBRANCH  30  34
ENDBRANCH  29  30
ENDBRANCH  28  29
ENDBRANCH  27  28
ENDBRANCH  26  27
ENDBRANCH   1  26
TORSDOF 9
