REMARK  Name = ZINC12583505
REMARK  9 active torsions:
REMARK  status: ('A' for Active; 'I' for Inactive)
REMARK    1  A    between atoms: C_1  and  C_2
REMARK    2  A    between atoms: C_6  and  N_8
REMARK    3  A    between atoms: C_13  and  C_19
REMARK    4  A    between atoms: C_16  and  C_18
REMARK    5  A    between atoms: C_22  and  O_27
REMARK    6  A    between atoms: C_23  and  O_25
REMARK    7  A    between atoms: O_25  and  C_26
REMARK    8  A    between atoms: C_31  and  C_33
REMARK    9  A    between atoms: C_31  and  C_34
REMARK                            x       y       z     vdW  Elec       q    Type
REMARK                         _______ _______ _______ _____ _____    ______ ____
ROOT
ATOM      1  N   UNL     1       0.052  -2.797   2.391  0.00  0.00    -0.206 N 
ATOM      2  C   UNL     1      -0.019  -4.165   2.534  0.00  0.00    +0.126 C 
ATOM      3  N   UNL     1      -0.116  -5.147   1.654  0.00  0.00    -0.345 N 
ATOM      4  C   UNL     1      -0.177  -6.441   1.938  0.00  0.00    +0.025 C 
ATOM      5  C   UNL     1      -0.146  -6.899   3.240  0.00  0.00    +0.026 C 
ATOM      6  C   UNL     1      -0.034  -5.879   4.358  0.00  0.00    +0.089 C 
ATOM      7  C   UNL     1       0.030  -4.431   3.921  0.00  0.00    +0.022 C 
ATOM      8  C   UNL     1       0.128  -3.265   4.583  0.00  0.00    +0.027 C 
ATOM      9  N   UNL     1       0.150  -2.245   3.676  0.00  0.00    -0.262 N 
ATOM     10  C   UNL     1       0.207  -3.111   6.080  0.00  0.00    +0.062 C 
ATOM     11  C   UNL     1      -0.216  -8.250   3.547  0.00  0.00    +0.162 C 
ATOM     12  O   UNL     1      -0.180  -8.604   4.711  0.00  0.00    -0.292 OA
ATOM     13  C   UNL     1      -0.338  -9.284   2.459  0.00  0.00    +0.086 C 
ATOM     14  C   UNL     1      -1.059  -8.661   1.260  0.00  0.00    -0.023 C 
ATOM     15  C   UNL     1      -0.281  -7.428   0.798  0.00  0.00    +0.060 C 
ATOM     16  C   UNL     1      -2.474  -8.250   1.670  0.00  0.00    +0.011 C 
ATOM     17  C   UNL     1      -1.130  -9.679   0.119  0.00  0.00    +0.011 C 
ATOM     18  H   UNL     1       0.220  -1.300   3.885  0.00  0.00    +0.170 HD
ATOM     19  H   UNL     1      -0.144  -4.899   0.717  0.00  0.00    +0.167 HD
ENDROOT
BRANCH   1  25
ATOM     20  C   UNL     1       1.960   0.704  -0.485  0.00  0.00    +0.044 C 
ATOM     21  C   UNL     1       0.950  -0.387  -0.235  0.00  0.00    -0.049 A 
ATOM     22  C   UNL     1       0.006  -0.688  -1.200  0.00  0.00    +0.003 A 
ATOM     23  C   UNL     1      -0.923  -1.688  -0.975  0.00  0.00    +0.002 A 
ATOM     24  C   UNL     1      -0.910  -2.389   0.215  0.00  0.00    +0.025 A 
ATOM     25  C   UNL     1       0.037  -2.089   1.186  0.00  0.00    +0.055 A 
ATOM     26  C   UNL     1       0.971  -1.087   0.955  0.00  0.00    +0.028 A 
ENDBRANCH   1  25
BRANCH   6  27
ATOM     27  C   UNL     1      -1.226  -6.041   5.266  0.00  0.00    -0.032 A 
ATOM     28  C   UNL     1      -2.503  -5.882   4.762  0.00  0.00    +0.008 A 
ATOM     29  C   UNL     1      -3.600  -6.030   5.591  0.00  0.00    +0.049 A 
ATOM     30  C   UNL     1      -3.419  -6.339   6.930  0.00  0.00    +0.158 A 
ATOM     31  C   UNL     1      -2.133  -6.500   7.436  0.00  0.00    +0.162 A 
ATOM     32  C   UNL     1      -1.039  -6.355   6.599  0.00  0.00    +0.054 A 
BRANCH  31  33
ATOM     33  O   UNL     1      -1.951  -6.804   8.750  0.00  0.00    -0.491 OA
ATOM     34  C   UNL     1      -0.603  -6.954   9.200  0.00  0.00    +0.277 C 
ENDBRANCH  31  33
BRANCH  30  35
ATOM     35  O   UNL     1      -4.497  -6.485   7.747  0.00  0.00    -0.503 OA
ATOM     36  H   UNL     1      -4.840  -7.388   7.788  0.00  0.00    +0.292 HD
ENDBRANCH  30  35
ENDBRANCH   6  27
TORSDOF 4
