REMARK  Name = ZINC39143118
REMARK  4 active torsions:
REMARK  status: ('A' for Active; 'I' for Inactive)
REMARK    1  A    between atoms: C_4  and  C_7
REMARK    2  A    between atoms: C_7  and  N_8
REMARK    3  A    between atoms: N_19  and  N_20
REMARK    4  A    between atoms: C_21  and  C_22
REMARK                            x       y       z     vdW  Elec       q    Type
REMARK                         _______ _______ _______ _____ _____    ______ ____
ROOT
ATOM      1  N   UNL     1       4.153  -0.953   1.342  0.00  0.00    -0.296 NA
ATOM      2  C   UNL     1       4.405   0.307   2.045  0.00  0.00    +0.089 C 
ATOM      3  C   UNL     1       4.632   0.053   3.543  0.00  0.00    +0.048 C 
ATOM      4  C   UNL     1       5.713  -1.023   3.633  0.00  0.00    -0.039 C 
ATOM      5  C   UNL     1       6.832  -0.929   4.344  0.00  0.00    +0.071 C 
ATOM      6  C   UNL     1       7.879  -1.969   4.147  0.00  0.00    +0.113 C 
ATOM      7  N   UNL     1       9.032  -1.931   4.764  0.00  0.00    -0.208 NA
ATOM      8  C   UNL     1       9.257  -0.909   5.604  0.00  0.00    +0.228 C 
ATOM      9  N   UNL     1       8.406   0.066   5.855  0.00  0.00    -0.142 NA
ATOM     10  C   UNL     1       7.189   0.173   5.301  0.00  0.00    +0.273 C 
ATOM     11  O   UNL     1       6.430   1.094   5.555  0.00  0.00    -0.268 OA
ATOM     12  N   UNL     1      10.467  -0.876   6.253  0.00  0.00    -0.207 N 
ATOM     13  S   UNL     1       7.172  -3.106   2.997  0.00  0.00    -0.096 S 
ATOM     14  C   UNL     1       5.531  -2.308   2.820  0.00  0.00    +0.093 C 
ATOM     15  C   UNL     1       5.303  -1.870   1.371  0.00  0.00    +0.103 C 
ATOM     16  H   UNL     1      11.121  -1.576   6.096  0.00  0.00    +0.177 HD
ENDROOT
BRANCH  12  17
ATOM     17  N   UNL     1      10.758   0.167   7.142  0.00  0.00    -0.188 NA
ATOM     18  C   UNL     1      11.902   0.197   7.755  0.00  0.00    +0.138 C 
BRANCH  18  19
ATOM     19  C   UNL     1      12.207   1.295   8.691  0.00  0.00    -0.005 A 
ATOM     20  C   UNL     1      11.265   2.300   8.924  0.00  0.00    +0.012 A 
ATOM     21  C   UNL     1      11.557   3.324   9.801  0.00  0.00    +0.039 A 
ATOM     22  C   UNL     1      12.781   3.357  10.450  0.00  0.00    +0.123 A 
ATOM     23  C   UNL     1      13.719   2.362  10.223  0.00  0.00    +0.039 A 
ATOM     24  C   UNL     1      13.437   1.331   9.353  0.00  0.00    +0.012 A 
ATOM     25  F   UNL     1      13.061   4.363  11.307  0.00  0.00    -0.205 F 
ENDBRANCH  18  19
ENDBRANCH  12  17
BRANCH   1  26
ATOM     26  C   UNL     1       3.711  -0.707  -0.038  0.00  0.00    +0.119 C 
BRANCH  26  30
ATOM     27  C   UNL     1      -0.017   1.378   0.010  0.00  0.00    +0.000 A 
ATOM     28  C   UNL     1       1.171   2.086   0.002  0.00  0.00    +0.000 A 
ATOM     29  C   UNL     1       2.377   1.411  -0.013  0.00  0.00    +0.005 A 
ATOM     30  C   UNL     1       2.396   0.029  -0.020  0.00  0.00    -0.033 A 
ATOM     31  C   UNL     1       1.208  -0.679  -0.012  0.00  0.00    +0.005 A 
ATOM     32  C   UNL     1       0.002  -0.004   0.002  0.00  0.00    +0.000 A 
ENDBRANCH  26  30
ENDBRANCH   1  26
TORSDOF 4
