REMARK  Name = ZINC17828941
REMARK  6 active torsions:
REMARK  status: ('A' for Active; 'I' for Inactive)
REMARK    1  A    between atoms: C_4  and  C_7
REMARK    2  A    between atoms: C_10  and  S_18
REMARK    3  A    between atoms: N_11  and  C_12
REMARK    4  A    between atoms: S_18  and  C_19
REMARK    5  A    between atoms: C_19  and  C_20
REMARK    6  A    between atoms: N_22  and  C_23
REMARK                            x       y       z     vdW  Elec       q    Type
REMARK                         _______ _______ _______ _____ _____    ______ ____
ROOT
ATOM      1  C   UNL     1       2.047   0.588  -0.068  0.00  0.00    +0.169 A 
ATOM      2  N   UNL     1       1.214  -0.427  -0.062  0.00  0.00    -0.128 NA
ATOM      3  N   UNL     1       0.002  -0.002  -0.038  0.00  0.00    -0.122 NA
ATOM      4  C   UNL     1      -0.016   1.312  -0.028  0.00  0.00    +0.197 A 
ATOM      5  N   UNL     1       1.285   1.735  -0.046  0.00  0.00    -0.270 N 
ENDROOT
BRANCH   1   9
ATOM      6  C   UNL     1       6.288   0.375  -0.143  0.00  0.00    +0.000 A 
ATOM      7  C   UNL     1       5.537  -0.746  -0.450  0.00  0.00    +0.001 A 
ATOM      8  C   UNL     1       4.159  -0.684  -0.427  0.00  0.00    +0.011 A 
ATOM      9  C   UNL     1       3.523   0.514  -0.094  0.00  0.00    +0.020 A 
ATOM     10  C   UNL     1       4.287   1.642   0.209  0.00  0.00    +0.011 A 
ATOM     11  C   UNL     1       5.664   1.564   0.188  0.00  0.00    +0.001 A 
ENDBRANCH   1   9
BRANCH   5  12
ATOM     12  C   UNL     1       1.746   3.059  -0.043  0.00  0.00    +0.051 A 
ATOM     13  C   UNL     1       2.440   3.556  -1.138  0.00  0.00    +0.026 A 
ATOM     14  C   UNL     1       2.888   4.862  -1.135  0.00  0.00    +0.002 A 
ATOM     15  C   UNL     1       2.656   5.672  -0.038  0.00  0.00    +0.000 A 
ATOM     16  C   UNL     1       1.969   5.178   1.056  0.00  0.00    +0.002 A 
ATOM     17  C   UNL     1       1.514   3.874   1.056  0.00  0.00    +0.026 A 
ENDBRANCH   5  12
BRANCH   4  18
ATOM     18  S   UNL     1      -1.449   2.338  -0.002  0.00  0.00    -0.076 S 
BRANCH  18  19
ATOM     19  C   UNL     1      -2.742   1.071   0.005  0.00  0.00    +0.173 C 
BRANCH  19  20
ATOM     20  C   UNL     1      -4.095   1.735   0.027  0.00  0.00    +0.228 C 
ATOM     21  O   UNL     1      -4.177   2.945   0.037  0.00  0.00    -0.275 OA
ATOM     22  N   UNL     1      -5.214   0.984   0.035  0.00  0.00    -0.284 N 
ATOM     23  H   UNL     1      -5.151   0.019  -0.039  0.00  0.00    +0.155 HD
BRANCH  22  24
ATOM     24  C   UNL     1      -6.467   1.596   0.150  0.00  0.00    +0.047 A 
ATOM     25  C   UNL     1      -6.692   2.836  -0.434  0.00  0.00    +0.024 A 
ATOM     26  C   UNL     1      -7.931   3.436  -0.322  0.00  0.00    +0.002 A 
ATOM     27  C   UNL     1      -8.944   2.808   0.379  0.00  0.00    +0.001 A 
ATOM     28  C   UNL     1      -8.723   1.576   0.966  0.00  0.00    +0.017 A 
ATOM     29  C   UNL     1      -7.487   0.968   0.854  0.00  0.00    +0.039 A 
ATOM     30 BR   UNL     1      -7.184  -0.717   1.657  0.00  0.00    -0.048 Br
ENDBRANCH  22  24
ENDBRANCH  19  20
ENDBRANCH  18  19
ENDBRANCH   4  18
TORSDOF 6
