REMARK  Name = ZINC39898201
REMARK  12 active torsions:
REMARK  status: ('A' for Active; 'I' for Inactive)
REMARK    1  A    between atoms: C_1  and  C_2
REMARK    2  A    between atoms: C_2  and  O_3
REMARK    3  A    between atoms: O_3  and  C_4
REMARK    4  A    between atoms: C_6  and  C_14
REMARK    5  A    between atoms: C_9  and  O_10
REMARK    6  A    between atoms: O_10  and  C_11
REMARK    7  A    between atoms: C_11  and  C_12
REMARK    8  A    between atoms: C_17  and  C_29
REMARK    9  A    between atoms: N_24  and  C_25
REMARK   10  A    between atoms: C_25  and  C_26
REMARK   11  A    between atoms: C_26  and  O_27
REMARK   12  A    between atoms: O_27  and  C_28
REMARK                            x       y       z     vdW  Elec       q    Type
REMARK                         _______ _______ _______ _____ _____    ______ ____
ROOT
ATOM      1  C   UNL     1      -0.139  -4.798   0.232  0.00  0.00    +0.141 C 
ATOM      2  C   UNL     1       0.935  -5.302   1.157  0.00  0.00    +0.035 A 
ATOM      3  C   UNL     1       2.002  -5.009   1.945  0.00  0.00    +0.075 A 
ATOM      4  N   UNL     1       2.433  -6.190   2.478  0.00  0.00    -0.276 N 
ATOM      5  N   UNL     1       1.694  -7.155   2.058  0.00  0.00    -0.168 NA
ATOM      6  H   UNL     1       3.185  -6.287   3.082  0.00  0.00    +0.189 HD
ATOM      7  C   UNL     1       0.757  -6.701   1.250  0.00  0.00    +0.153 A 
ATOM      8  C   UNL     1      -0.396  -7.067   0.407  0.00  0.00    +0.268 C 
ATOM      9  O   UNL     1      -0.818  -8.198   0.263  0.00  0.00    -0.268 OA
ATOM     10  N   UNL     1      -0.915  -5.974  -0.180  0.00  0.00    -0.283 N 
ENDROOT
BRANCH   3  11
ATOM     11  C   UNL     1       2.586  -3.669   2.179  0.00  0.00    +0.048 A 
ATOM     12  C   UNL     1       3.877  -3.381   1.740  0.00  0.00    +0.033 A 
ATOM     13  C   UNL     1       4.416  -2.129   1.961  0.00  0.00    +0.042 A 
ATOM     14  C   UNL     1       3.678  -1.159   2.618  0.00  0.00    +0.024 A 
ATOM     15  C   UNL     1       2.397  -1.434   3.057  0.00  0.00    +0.053 A 
ATOM     16  C   UNL     1       1.841  -2.684   2.837  0.00  0.00    +0.188 A 
ATOM     17  O   UNL     1       0.580  -2.953   3.264  0.00  0.00    -0.287 OA
ATOM     18 CL   UNL     1       6.024  -1.771   1.414  0.00  0.00    -0.084 Cl
ENDBRANCH   3  11
BRANCH   1  21
ATOM     19  C   UNL     1       1.001  -2.159  -2.218  0.00  0.00    +0.162 A 
ATOM     20  C   UNL     1       0.430  -2.766  -1.111  0.00  0.00    +0.055 A 
ATOM     21  C   UNL     1       0.483  -4.140  -0.972  0.00  0.00    -0.019 A 
ATOM     22  C   UNL     1       1.106  -4.912  -1.936  0.00  0.00    +0.009 A 
ATOM     23  C   UNL     1       1.678  -4.312  -3.042  0.00  0.00    +0.050 A 
ATOM     24  C   UNL     1       1.623  -2.936  -3.191  0.00  0.00    +0.162 A 
BRANCH  19  25
ATOM     25  O   UNL     1       0.949  -0.807  -2.357  0.00  0.00    -0.489 OA
BRANCH  25  27
ATOM     26  C   UNL     1       0.336   1.421  -1.648  0.00  0.00    +0.048 C 
ATOM     27  C   UNL     1       0.295  -0.073  -1.320  0.00  0.00    +0.226 C 
ENDBRANCH  25  27
ENDBRANCH  19  25
BRANCH  24  28
ATOM     28  O   UNL     1       2.180  -2.345  -4.282  0.00  0.00    -0.484 OA
BRANCH  28  29
ATOM     29  C   UNL     1       2.801  -3.206  -5.239  0.00  0.00    +0.256 C 
BRANCH  29  30
ATOM     30  C   UNL     1       3.358  -2.380  -6.370  0.00  0.00    +0.006 C 
ATOM     31  C   UNL     1       4.562  -2.622  -6.826  0.00  0.00    +0.007 C 
ENDBRANCH  29  30
ENDBRANCH  28  29
ENDBRANCH  24  28
ENDBRANCH   1  21
BRANCH  10  32
ATOM     32  C   UNL     1      -2.067  -5.958  -1.084  0.00  0.00    +0.137 C 
BRANCH  32  33
ATOM     33  C   UNL     1      -3.358  -5.897  -0.265  0.00  0.00    +0.178 C 
BRANCH  33  34
ATOM     34  O   UNL     1      -3.420  -4.652   0.434  0.00  0.00    -0.381 OA
ATOM     35  C   UNL     1      -4.593  -4.492   1.234  0.00  0.00    +0.194 C 
ENDBRANCH  33  34
ENDBRANCH  32  33
ENDBRANCH  10  32
TORSDOF 10
