REMARK  Name = ZINC15087890
REMARK  3 active torsions:
REMARK  status: ('A' for Active; 'I' for Inactive)
REMARK    1  A    between atoms: N_12  and  C_16
REMARK    2  A    between atoms: C_16  and  C_17
REMARK    3  A    between atoms: N_19  and  N_20
REMARK                            x       y       z     vdW  Elec       q    Type
REMARK                         _______ _______ _______ _____ _____    ______ ____
ROOT
ATOM      1  C   UNL     1      -6.997   2.919   3.135  0.00  0.00    +0.019 A 
ATOM      2  C   UNL     1      -7.048   1.553   3.325  0.00  0.00    +0.047 A 
ATOM      3  C   UNL     1      -5.876   0.828   3.514  0.00  0.00    +0.124 A 
ATOM      4  C   UNL     1      -4.656   1.484   3.514  0.00  0.00    +0.004 A 
ATOM      5  C   UNL     1      -4.611   2.855   3.322  0.00  0.00    +0.023 A 
ATOM      6  C   UNL     1      -5.778   3.571   3.133  0.00  0.00    +0.018 A 
ATOM      7 BR   UNL     1      -5.706   5.443   2.873  0.00  0.00    -0.050 Br
ATOM      8  C   UNL     1      -3.368   0.734   3.720  0.00  0.00    +0.069 C 
ATOM      9  C   UNL     1      -2.276   1.301   2.885  0.00  0.00    +0.033 A 
ATOM     10  C   UNL     1      -1.694   0.796   1.778  0.00  0.00    +0.090 A 
ATOM     11  N   UNL     1      -0.698   1.558   1.213  0.00  0.00    -0.288 N 
ATOM     12  C   UNL     1      -0.347   2.736   1.768  0.00  0.00    +0.292 A 
ATOM     13  O   UNL     1       0.507   3.526   1.406  0.00  0.00    -0.259 OA
ATOM     14  S   UNL     1      -1.421   2.841   3.126  0.00  0.00    -0.030 S 
ATOM     15  S   UNL     1      -2.219  -0.774   1.122  0.00  0.00    -0.106 S 
ATOM     16  C   UNL     1      -3.793  -1.037   1.994  0.00  0.00    +0.083 C 
ATOM     17  C   UNL     1      -3.580  -0.756   3.485  0.00  0.00    +0.049 C 
ATOM     18  C   UNL     1      -4.838  -1.193   4.250  0.00  0.00    +0.234 C 
ATOM     19  O   UNL     1      -5.963  -0.516   3.688  0.00  0.00    -0.491 OA
ENDROOT
BRANCH  11  20
ATOM     20  C   UNL     1      -0.013   1.086   0.008  0.00  0.00    +0.223 C 
BRANCH  20  21
ATOM     21  C   UNL     1      -0.742   1.585  -1.213  0.00  0.00    +0.246 C 
ATOM     22  O   UNL     1      -1.736   2.268  -1.088  0.00  0.00    -0.273 OA
ATOM     23  N   UNL     1      -0.288   1.272  -2.443  0.00  0.00    -0.252 N 
ATOM     24  H   UNL     1       0.507   0.726  -2.543  0.00  0.00    +0.169 HD
BRANCH  23  25
ATOM     25  N   UNL     1      -0.949   1.725  -3.550  0.00  0.00    -0.254 NA
ATOM     26  H   UNL     1      -0.495   1.412  -4.395  0.00  0.00    +0.140 HD
ATOM     27  H   UNL     1      -1.918   1.442  -3.534  0.00  0.00    +0.140 HD
ENDBRANCH  23  25
ENDBRANCH  20  21
ENDBRANCH  11  20
TORSDOF 3
