REMARK  Name = ZINC40035331
REMARK  8 active torsions:
REMARK  status: ('A' for Active; 'I' for Inactive)
REMARK    1  A    between atoms: C_1  and  C_2
REMARK    2  A    between atoms: C_2  and  C_3
REMARK    3  A    between atoms: C_3  and  C_37
REMARK    4  A    between atoms: N_15  and  C_30
REMARK    5  A    between atoms: N_18  and  N_19
REMARK    6  A    between atoms: C_20  and  C_21
REMARK    7  A    between atoms: C_25  and  N_27
REMARK    8  A    between atoms: C_33  and  C_36
REMARK                            x       y       z     vdW  Elec       q    Type
REMARK                         _______ _______ _______ _____ _____    ______ ____
ROOT
ATOM      1  C   UNL     1      -1.876  -1.190  -0.217  0.00  0.00    +0.004 C 
ATOM      2  C   UNL     1      -2.023  -2.652  -0.631  0.00  0.00    +0.047 C 
ATOM      3  C   UNL     1      -1.294  -2.912  -1.921  0.00  0.00    -0.037 A 
ATOM      4  C   UNL     1      -0.659  -4.118  -2.135  0.00  0.00    +0.004 A 
ATOM      5  C   UNL     1       0.005  -4.350  -3.326  0.00  0.00    +0.000 A 
ATOM      6  C   UNL     1       0.040  -3.378  -4.310  0.00  0.00    +0.001 A 
ATOM      7  C   UNL     1      -0.590  -2.166  -4.108  0.00  0.00    +0.010 A 
ATOM      8  C   UNL     1      -1.258  -1.928  -2.911  0.00  0.00    +0.004 A 
ATOM      9  C   UNL     1      -1.935  -0.635  -2.661  0.00  0.00    +0.084 A 
ATOM     10  C   UNL     1      -2.239  -0.279  -1.355  0.00  0.00    +0.050 A 
ATOM     11  C   UNL     1      -2.886   0.941  -1.121  0.00  0.00    +0.264 A 
ATOM     12  O   UNL     1      -3.171   1.288   0.014  0.00  0.00    -0.267 OA
ATOM     13  N   UNL     1      -3.187   1.726  -2.178  0.00  0.00    -0.248 N 
ATOM     14  C   UNL     1      -2.860   1.331  -3.442  0.00  0.00    +0.223 A 
ATOM     15  N   UNL     1      -2.253   0.184  -3.668  0.00  0.00    -0.214 NA
ATOM     16  N   UNL     1      -3.171   2.146  -4.500  0.00  0.00    -0.206 N 
ATOM     17  C   UNL     1      -2.801  -0.908   0.969  0.00  0.00    +0.016 C 
ATOM     18  H   UNL     1      -3.551   3.024  -4.341  0.00  0.00    +0.177 HD
ENDROOT
BRANCH  13  19
ATOM     19  C   UNL     1      -3.837   2.950  -1.975  0.00  0.00    +0.053 A 
ATOM     20  C   UNL     1      -5.223   3.019  -2.032  0.00  0.00    +0.026 A 
ATOM     21  C   UNL     1      -5.861   4.228  -1.831  0.00  0.00    +0.005 A 
ATOM     22  C   UNL     1      -5.121   5.368  -1.574  0.00  0.00    -0.050 A 
ATOM     23  C   UNL     1      -3.741   5.302  -1.518  0.00  0.00    +0.005 A 
ATOM     24  C   UNL     1      -3.098   4.095  -1.711  0.00  0.00    +0.026 A 
ATOM     25  C   UNL     1      -5.821   6.685  -1.356  0.00  0.00    +0.044 C 
ENDBRANCH  13  19
BRANCH   1  27
ATOM     26  C   UNL     1      -0.282   0.530   0.643  0.00  0.00    +0.005 C 
ATOM     27  C   UNL     1      -0.428  -0.927   0.199  0.00  0.00    +0.008 C 
ENDBRANCH   1  27
BRANCH  16  28
ATOM     28  N   UNL     1      -2.940   1.710  -5.811  0.00  0.00    -0.188 NA
ATOM     29  C   UNL     1      -3.235   2.480  -6.813  0.00  0.00    +0.138 C 
BRANCH  29  30
ATOM     30  C   UNL     1      -2.992   2.021  -8.193  0.00  0.00    -0.003 A 
ATOM     31  C   UNL     1      -2.450   0.755  -8.426  0.00  0.00    +0.009 A 
ATOM     32  C   UNL     1      -2.226   0.332  -9.720  0.00  0.00    +0.003 A 
ATOM     33  C   UNL     1      -2.536   1.159 -10.785  0.00  0.00    +0.033 A 
ATOM     34  C   UNL     1      -3.073   2.414 -10.562  0.00  0.00    +0.127 A 
ATOM     35  C   UNL     1      -3.308   2.848  -9.273  0.00  0.00    +0.042 A 
BRANCH  34  36
ATOM     36  N   UNL     1      -3.402   3.291 -11.708  0.00  0.00    +0.056 N 
ATOM     37  O   UNL     1      -3.201   2.910 -12.838  0.00  0.00    -0.126 OA
ATOM     38  O   UNL     1      -3.871   4.388 -11.514  0.00  0.00    -0.126 OA
ENDBRANCH  34  36
ENDBRANCH  29  30
ENDBRANCH  16  28
TORSDOF 5
