REMARK  Name = ZINC13245599
REMARK  10 active torsions:
REMARK  status: ('A' for Active; 'I' for Inactive)
REMARK    1  A    between atoms: C_2  and  C_3
REMARK    2  A    between atoms: C_3  and  S_4
REMARK    3  A    between atoms: S_4  and  C_5
REMARK    4  A    between atoms: C_10  and  N_11
REMARK    5  A    between atoms: C_12  and  C_14
REMARK    6  A    between atoms: C_14  and  N_15
REMARK    7  A    between atoms: N_18  and  CA_19
REMARK    8  A    between atoms: CA_19  and  C_21
REMARK    9  A    between atoms: CA_19  and  C_29
REMARK   10  A    between atoms: C_21  and  C_22
REMARK                            x       y       z     vdW  Elec       q    Type
REMARK                         _______ _______ _______ _____ _____    ______ ____
ROOT
ATOM      1  N   UNL     1       5.452   1.345  -5.880  0.00  0.00    -0.291 N 
ATOM      2  C   UNL     1       5.799   1.454  -4.582  0.00  0.00    +0.301 C 
ATOM      3  O   UNL     1       6.862   1.007  -4.197  0.00  0.00    -0.253 OA
ATOM      4  N   UNL     1       4.967   2.059  -3.711  0.00  0.00    -0.286 N 
ATOM      5  H   UNL     1       4.604   1.702  -6.187  0.00  0.00    +0.151 HD
ATOM      6  H   UNL     1       4.119   2.417  -4.018  0.00  0.00    +0.151 HD
ENDROOT
BRANCH   1   7
ATOM      7  C   UNL     1       6.356   0.688  -6.827  0.00  0.00    +0.202 C 
BRANCH   7   9
ATOM      8  N   UNL     1       6.394   0.144  -9.240  0.00  0.00    -0.283 N 
ATOM      9  C   UNL     1       5.738   0.698  -8.201  0.00  0.00    +0.234 C 
ATOM     10  O   UNL     1       4.649   1.205  -8.373  0.00  0.00    -0.274 OA
ATOM     11  H   UNL     1       7.292  -0.203  -9.117  0.00  0.00    +0.155 HD
BRANCH   8  17
ATOM     12  C   UNL     1       6.020  -1.026 -11.329  0.00  0.00    +0.029 A 
ATOM     13  C   UNL     1       5.409  -1.093 -12.573  0.00  0.00    +0.016 A 
ATOM     14  C   UNL     1       4.567  -0.077 -12.985  0.00  0.00    +0.001 A 
ATOM     15  C   UNL     1       4.330   1.008 -12.161  0.00  0.00    +0.002 A 
ATOM     16  C   UNL     1       4.931   1.081 -10.917  0.00  0.00    +0.024 A 
ATOM     17  C   UNL     1       5.781   0.069 -10.498  0.00  0.00    +0.047 A 
BRANCH  12  18
ATOM     18  S   UNL     1       7.093  -2.319 -10.800  0.00  0.00    -0.119 S 
BRANCH  18  19
ATOM     19  C   UNL     1       7.087  -3.489 -12.186  0.00  0.00    +0.101 C 
BRANCH  19  21
ATOM     20  C   UNL     1       7.464  -5.857 -11.725  0.00  0.00    +0.005 C 
ATOM     21  C   UNL     1       7.978  -4.659 -11.860  0.00  0.00    -0.024 C 
ENDBRANCH  19  21
ENDBRANCH  18  19
ENDBRANCH  12  18
ENDBRANCH   8  17
ENDBRANCH   7   9
ENDBRANCH   1   7
BRANCH   4  22
ATOM     22  CA  UNL     1       5.344   2.178  -2.300  0.00  0.00    +0.196 C 
BRANCH  22  23
ATOM     23  C   UNL     1       6.201   3.403  -2.110  0.00  0.00    +0.376 C 
ATOM     24  O   UNL     1       6.469   4.105  -3.056  0.00  0.00    -0.244 OA
ATOM     25  OXT UNL     1       6.666   3.714  -0.890  0.00  0.00    -0.244 OA
ENDBRANCH  22  23
BRANCH  22  26
ATOM     26  C   UNL     1       4.082   2.300  -1.444  0.00  0.00    +0.130 C 
BRANCH  26  27
ATOM     27  C   UNL     1       3.285   1.025  -1.538  0.00  0.00    +0.218 C 
ATOM     28  O   UNL     1       3.687   0.108  -2.223  0.00  0.00    -0.276 OA
ATOM     29  N   UNL     1       2.126   0.903  -0.862  0.00  0.00    -0.301 N 
ATOM     30  C   UNL     1       1.523   1.934   0.002  0.00  0.00    +0.108 C 
ATOM     31  C   UNL     1       0.010   1.600   0.023  0.00  0.00    +0.020 C 
ATOM     32  C   UNL     1       0.034   0.049   0.025  0.00  0.00    +0.020 C 
ATOM     33  C   UNL     1       1.252  -0.280  -0.864  0.00  0.00    +0.108 C 
ENDBRANCH  26  27
ENDBRANCH  22  26
ENDBRANCH   4  22
TORSDOF 10
