REMARK  Name = ZINC52095170
REMARK  2 active torsions:
REMARK  status: ('A' for Active; 'I' for Inactive)
REMARK    1  A    between atoms: C_3  and  C_6
REMARK    2  A    between atoms: C_6  and  C_8
REMARK                            x       y       z     vdW  Elec       q    Type
REMARK                         _______ _______ _______ _____ _____    ______ ____
ROOT
ATOM      1  C   UNL     1       4.074   0.020  -1.325  0.00  0.00    -0.011 A 
ATOM      2  C   UNL     1       4.317   0.832  -2.416  0.00  0.00    +0.034 A 
ATOM      3  C   UNL     1       4.755   0.275  -3.607  0.00  0.00    +0.067 A 
ATOM      4  C   UNL     1       4.948  -1.105  -3.701  0.00  0.00    +0.068 A 
ATOM      5  C   UNL     1       4.702  -1.913  -2.602  0.00  0.00    +0.043 A 
ATOM      6  C   UNL     1       4.272  -1.348  -1.416  0.00  0.00    +0.025 A 
ATOM      7 BR   UNL     1       3.944  -2.449   0.087  0.00  0.00    -0.050 Br
ATOM      8  N   UNL     1       5.383  -1.363  -4.999  0.00  0.00    -0.306 N 
ATOM      9  H   UNL     1       5.600  -2.236  -5.361  0.00  0.00    +0.170 HD
ATOM     10  C   UNL     1       5.451  -0.194  -5.664  0.00  0.00    +0.325 A 
ATOM     11  O   UNL     1       5.796  -0.068  -6.824  0.00  0.00    -0.247 OA
ATOM     12  N   UNL     1       5.078   0.812  -4.851  0.00  0.00    -0.306 N 
ATOM     13  H   UNL     1       5.040   1.751  -5.092  0.00  0.00    +0.170 HD
ENDROOT
BRANCH   1  14
ATOM     14  C   UNL     1       3.599   0.625  -0.029  0.00  0.00    +0.153 C 
ATOM     15 BR   UNL     1       2.646   2.304  -0.401  0.00  0.00    -0.075 Br
BRANCH  14  18
ATOM     16  C   UNL     1       6.244   0.874   2.525  0.00  0.00    +0.041 A 
ATOM     17  C   UNL     1       5.040   0.315   2.039  0.00  0.00    +0.046 A 
ATOM     18  C   UNL     1       4.784   0.906   0.859  0.00  0.00    +0.123 A 
ATOM     19  O   UNL     1       5.763   1.789   0.605  0.00  0.00    -0.466 OA
ATOM     20  C   UNL     1       6.652   1.774   1.612  0.00  0.00    +0.195 A 
ENDBRANCH  14  18
ENDBRANCH   1  14
TORSDOF 2
