REMARK  Name = ZINC06720058
REMARK  6 active torsions:
REMARK  status: ('A' for Active; 'I' for Inactive)
REMARK    1  A    between atoms: C_1  and  C_2
REMARK    2  A    between atoms: C_2  and  C_3
REMARK    3  A    between atoms: C_3  and  C_4
REMARK    4  A    between atoms: C_11  and  N_28
REMARK    5  A    between atoms: C_12  and  C_26
REMARK    6  A    between atoms: C_13  and  C_15
REMARK                            x       y       z     vdW  Elec       q    Type
REMARK                         _______ _______ _______ _____ _____    ______ ____
ROOT
ATOM      1  C   UNL     1       0.762  -2.018   1.233  0.00  0.00    +0.071 A 
ATOM      2  C   UNL     1      -0.197  -2.849   1.795  0.00  0.00    +0.050 A 
ATOM      3  C   UNL     1       0.183  -4.144   1.575  0.00  0.00    +0.222 A 
ATOM      4  N   UNL     1       1.343  -4.117   0.900  0.00  0.00    -0.246 N 
ATOM      5  H   UNL     1       1.851  -4.889   0.606  0.00  0.00    +0.192 HD
ATOM      6  N   UNL     1       1.687  -2.773   0.689  0.00  0.00    -0.176 NA
ATOM      7  O   UNL     1      -0.548  -5.204   2.001  0.00  0.00    -0.423 OA
ATOM      8  C   UNL     1      -1.810  -4.967   2.414  0.00  0.00    +0.200 C 
ATOM      9  C   UNL     1      -2.297  -3.734   2.675  0.00  0.00    +0.098 C 
ATOM     10  C   UNL     1      -1.460  -2.486   2.532  0.00  0.00    +0.104 C 
ENDROOT
BRANCH  10  11
ATOM     11  C   UNL     1      -1.115  -1.946   3.897  0.00  0.00    +0.003 A 
ATOM     12  C   UNL     1      -0.426  -2.722   4.784  0.00  0.00    +0.017 A 
ATOM     13  C   UNL     1      -0.125  -2.178   6.047  0.00  0.00    +0.001 A 
ATOM     14  C   UNL     1       0.582  -2.916   7.011  0.00  0.00    +0.010 A 
ATOM     15  C   UNL     1       0.854  -2.355   8.221  0.00  0.00    +0.001 A 
ATOM     16  C   UNL     1       0.441  -1.057   8.517  0.00  0.00    +0.002 A 
ATOM     17  C   UNL     1      -0.246  -0.314   7.607  0.00  0.00    +0.028 A 
ATOM     18  C   UNL     1      -0.546  -0.859   6.346  0.00  0.00    +0.073 A 
ATOM     19  N   UNL     1      -1.218  -0.151   5.432  0.00  0.00    -0.235 NA
ATOM     20  C   UNL     1      -1.496  -0.652   4.252  0.00  0.00    +0.134 A 
ATOM     21 CL   UNL     1      -2.365   0.318   3.104  0.00  0.00    -0.062 Cl
ENDBRANCH  10  11
BRANCH   8  22
ATOM     22  N   UNL     1      -2.649  -6.041   2.578  0.00  0.00    -0.328 N 
ATOM     23  H   UNL     1      -2.328  -6.939   2.398  0.00  0.00    +0.145 HD
ATOM     24  H   UNL     1      -3.562  -5.902   2.873  0.00  0.00    +0.145 HD
ENDBRANCH   8  22
BRANCH   9  25
ATOM     25  C   UNL     1      -3.657  -3.606   3.103  0.00  0.00    +0.101 C 
ATOM     26  N   UNL     1      -4.737  -3.505   3.443  0.00  0.00    -0.191 NA
ENDBRANCH   9  25
BRANCH   1  27
ATOM     27  C   UNL     1       0.742  -0.511   1.242  0.00  0.00    +0.057 C 
BRANCH  27  29
ATOM     28  C   UNL     1      -0.019   1.526   0.010  0.00  0.00    +0.004 C 
ATOM     29  C   UNL     1       0.002  -0.004   0.002  0.00  0.00    +0.003 C 
ENDBRANCH  27  29
ENDBRANCH   1  27
TORSDOF 5
