REMARK  Name = ZINC64516904
REMARK  7 active torsions:
REMARK  status: ('A' for Active; 'I' for Inactive)
REMARK    1  A    between atoms: C_1  and  C_2
REMARK    2  A    between atoms: C_2  and  C_3
REMARK    3  A    between atoms: C_3  and  N_4
REMARK    4  A    between atoms: C_8  and  C_20
REMARK    5  A    between atoms: C_22  and  C_25
REMARK    6  A    between atoms: C_25  and  C_26
REMARK    7  A    between atoms: C_26  and  C_27
REMARK                            x       y       z     vdW  Elec       q    Type
REMARK                         _______ _______ _______ _____ _____    ______ ____
ROOT
ATOM      1  N   UNL     1       0.762  -1.976   1.234  0.00  0.00    -0.266 N 
ATOM      2  C   UNL     1      -0.317  -2.573   1.865  0.00  0.00    +0.050 A 
ATOM      3  C   UNL     1      -0.719  -2.077   3.106  0.00  0.00    +0.025 A 
ATOM      4  C   UNL     1      -1.788  -2.636   3.772  0.00  0.00    +0.013 A 
ATOM      5  C   UNL     1      -2.480  -3.707   3.211  0.00  0.00    +0.024 A 
ATOM      6  C   UNL     1      -2.084  -4.209   1.972  0.00  0.00    +0.028 A 
ATOM      7  C   UNL     1      -1.008  -3.644   1.306  0.00  0.00    +0.035 A 
ATOM      8  S   UNL     1      -0.522  -4.299  -0.256  0.00  0.00    -0.087 S 
ATOM      9  C   UNL     1       1.134  -4.836   0.016  0.00  0.00    +0.025 A 
ATOM     10  C   UNL     1       1.468  -6.171  -0.170  0.00  0.00    +0.016 A 
ATOM     11  C   UNL     1       2.764  -6.596   0.039  0.00  0.00    +0.001 A 
ATOM     12  C   UNL     1       3.737  -5.691   0.435  0.00  0.00    +0.001 A 
ATOM     13  C   UNL     1       3.421  -4.365   0.625  0.00  0.00    +0.014 A 
ATOM     14  C   UNL     1       2.110  -3.915   0.419  0.00  0.00    +0.051 A 
ATOM     15  C   UNL     1       1.791  -2.505   0.627  0.00  0.00    +0.252 C 
ATOM     16  O   UNL     1       2.599  -1.714   0.179  0.00  0.00    -0.270 OA
ENDROOT
BRANCH   5  17
ATOM     17  C   UNL     1      -3.631  -4.309   3.926  0.00  0.00    +0.202 A 
ATOM     18  N   UNL     1      -4.109  -3.911   5.120  0.00  0.00    -0.191 NA
ATOM     19  C   UNL     1      -5.125  -4.651   5.462  0.00  0.00    +0.228 A 
ATOM     20  O   UNL     1      -5.337  -5.555   4.497  0.00  0.00    -0.338 OA
ATOM     21  N   UNL     1      -4.356  -5.315   3.500  0.00  0.00    -0.056 NA
BRANCH  19  22
ATOM     22  C   UNL     1      -5.926  -4.513   6.731  0.00  0.00    +0.103 C 
BRANCH  22  23
ATOM     23  C   UNL     1      -7.089  -3.548   6.498  0.00  0.00    +0.042 C 
BRANCH  23  24
ATOM     24  C   UNL     1      -7.890  -3.410   7.767  0.00  0.00    -0.041 C 
ATOM     25  C   UNL     1      -7.762  -2.448   8.709  0.00  0.00    -0.001 A 
ATOM     26  C   UNL     1      -6.871  -1.288   8.830  0.00  0.00    +0.010 A 
ATOM     27  C   UNL     1      -6.980  -0.487   9.915  0.00  0.00    +0.001 A 
ATOM     28  C   UNL     1      -7.920  -0.738  10.924  0.00  0.00    +0.002 A 
ATOM     29  C   UNL     1      -8.773  -1.784  10.883  0.00  0.00    +0.026 A 
ATOM     30  C   UNL     1      -8.746  -2.690   9.788  0.00  0.00    +0.043 A 
ATOM     31  N   UNL     1      -9.456  -3.760   9.523  0.00  0.00    -0.380 N 
ATOM     32  C   UNL     1      -9.005  -4.315   8.241  0.00  0.00    +0.144 C 
ATOM     33  H   UNL     1     -10.163  -4.122  10.079  0.00  0.00    +0.160 HD
ENDBRANCH  23  24
ENDBRANCH  22  23
ENDBRANCH  19  22
ENDBRANCH   5  17
BRANCH   1  34
ATOM     34  C   UNL     1       0.742  -0.511   1.242  0.00  0.00    +0.114 C 
BRANCH  34  36
ATOM     35  C   UNL     1      -0.019   1.526   0.010  0.00  0.00    +0.005 C 
ATOM     36  C   UNL     1       0.002  -0.004   0.002  0.00  0.00    +0.016 C 
ENDBRANCH  34  36
ENDBRANCH   1  34
TORSDOF 6
