REMARK  Name = ZINC20705054
REMARK  4 active torsions:
REMARK  status: ('A' for Active; 'I' for Inactive)
REMARK    1  A    between atoms: C_1  and  C_2
REMARK    2  A    between atoms: C_5  and  O_27
REMARK    3  A    between atoms: C_15  and  C_18
REMARK    4  A    between atoms: C_22  and  N_24
REMARK                            x       y       z     vdW  Elec       q    Type
REMARK                         _______ _______ _______ _____ _____    ______ ____
ROOT
ATOM      1  C   UNL     1       5.096   3.329   0.004  0.00  0.00    +0.044 C 
ATOM      2  C   UNL     1       3.727   2.698   0.000  0.00  0.00    -0.045 A 
ATOM      3  C   UNL     1       3.099   2.419   1.199  0.00  0.00    +0.007 A 
ATOM      4  C   UNL     1       1.841   1.844   1.195  0.00  0.00    +0.047 A 
ATOM      5  C   UNL     1       1.224   1.533  -0.001  0.00  0.00    +0.138 A 
ATOM      6  C   UNL     1       1.853   1.803  -1.222  0.00  0.00    +0.074 A 
ATOM      7  C   UNL     1       3.113   2.404  -1.200  0.00  0.00    -0.013 A 
ATOM      8  C   UNL     1       3.744   2.730  -2.497  0.00  0.00    +0.049 C 
ATOM      9  C   UNL     1       5.215   2.765  -2.686  0.00  0.00    -0.023 C 
ATOM     10  C   UNL     1       5.500   2.416  -3.925  0.00  0.00    -0.030 C 
ATOM     11  C   UNL     1       4.213   2.043  -4.665  0.00  0.00    +0.033 C 
ATOM     12  C   UNL     1       3.304   1.622  -3.504  0.00  0.00    +0.029 C 
ATOM     13  C   UNL     1       1.808   1.806  -3.646  0.00  0.00    +0.105 C 
ATOM     14  N   UNL     1       1.184   1.432  -2.390  0.00  0.00    -0.334 N 
ATOM     15  H   UNL     1       0.231   0.883  -2.391  0.00  0.00    +0.147 HD
ENDROOT
BRANCH  13  16
ATOM     16  C   UNL     1       1.286   0.934  -4.759  0.00  0.00    -0.025 A 
ATOM     17  C   UNL     1       1.059  -0.411  -4.534  0.00  0.00    +0.005 A 
ATOM     18  C   UNL     1       0.580  -1.212  -5.554  0.00  0.00    +0.003 A 
ATOM     19  C   UNL     1       0.329  -0.667  -6.800  0.00  0.00    +0.033 A 
ATOM     20  C   UNL     1       0.556   0.678  -7.025  0.00  0.00    +0.127 A 
ATOM     21  C   UNL     1       1.030   1.479  -6.003  0.00  0.00    +0.038 A 
BRANCH  20  22
ATOM     22  N   UNL     1       0.287   1.261  -8.358  0.00  0.00    +0.056 N 
ATOM     23  O   UNL     1      -0.136   0.556  -9.257  0.00  0.00    -0.126 OA
ATOM     24  O   UNL     1       0.487   2.446  -8.556  0.00  0.00    -0.126 OA
ENDBRANCH  20  22
ENDBRANCH  13  16
BRANCH   5  25
ATOM     25  O   UNL     1      -0.011   0.963   0.008  0.00  0.00    -0.505 OA
ATOM     26  H   UNL     1      -0.508   0.713  -0.941  0.00  0.00    +0.292 HD
ENDBRANCH   5  25
TORSDOF 3
