REMARK  Name = ZINC12497968
REMARK  13 active torsions:
REMARK  status: ('A' for Active; 'I' for Inactive)
REMARK    1  A    between atoms: C_1  and  C_2
REMARK    2  A    between atoms: C_2  and  C_3
REMARK    3  A    between atoms: C_3  and  C_4
REMARK    4  A    between atoms: C_4  and  C_36
REMARK    5  A    between atoms: C_9  and  C_11
REMARK    6  A    between atoms: C_14  and  O_19
REMARK    7  A    between atoms: C_16  and  O_17
REMARK    8  A    between atoms: O_17  and  C_18
REMARK    9  A    between atoms: O_19  and  C_20
REMARK   10  A    between atoms: N_23  and  C_26
REMARK   11  A    between atoms: C_36  and  O_38
REMARK   12  A    between atoms: O_38  and  C_39
REMARK   13  A    between atoms: C_39  and  C_40
REMARK                            x       y       z     vdW  Elec       q    Type
REMARK                         _______ _______ _______ _____ _____    ______ ____
ROOT
ATOM      1  C   UNL     1       0.145   0.983   4.903  0.00  0.00    +0.044 C 
ATOM      2  C   UNL     1      -0.095   1.953   6.003  0.00  0.00    +0.086 C 
ATOM      3  C   UNL     1       1.173   1.701   6.912  0.00  0.00    +0.077 C 
ATOM      4  C   UNL     1       2.224   1.803   5.833  0.00  0.00    -0.023 C 
ATOM      5  C   UNL     1       0.883   2.708   7.957  0.00  0.00    +0.229 C 
ATOM      6  O   UNL     1       1.682   3.389   8.563  0.00  0.00    -0.275 OA
ATOM      7  N   UNL     1      -0.480   2.706   8.094  0.00  0.00    -0.210 N 
ATOM      8  C   UNL     1      -1.113   2.086   7.046  0.00  0.00    +0.229 C 
ATOM      9  O   UNL     1      -2.267   1.715   6.994  0.00  0.00    -0.275 OA
ATOM     10  N   UNL     1       1.627   0.980   4.738  0.00  0.00    +0.395 N 
ATOM     11  H   UNL     1       1.876   1.382   3.827  0.00  0.00    -0.083 HD
ATOM     12  H   UNL     1       1.980   0.017   4.795  0.00  0.00    -0.083 HD
ENDROOT
BRANCH   7  13
ATOM     13  C   UNL     1      -1.154   3.274   9.185  0.00  0.00    +0.048 A 
ATOM     14  C   UNL     1      -2.541   3.234   9.242  0.00  0.00    +0.028 A 
ATOM     15  C   UNL     1      -3.205   3.790  10.318  0.00  0.00    +0.051 A 
ATOM     16  C   UNL     1      -2.490   4.400  11.339  0.00  0.00    +0.162 A 
ATOM     17  C   UNL     1      -1.102   4.444  11.283  0.00  0.00    +0.164 A 
ATOM     18  C   UNL     1      -0.436   3.882  10.205  0.00  0.00    +0.073 A 
ATOM     19  O   UNL     1      -0.383   5.029  12.280  0.00  0.00    -0.485 OA
ATOM     20  C   UNL     1      -1.095   5.908  13.157  0.00  0.00    +0.270 C 
ATOM     21  C   UNL     1      -2.403   5.219  13.570  0.00  0.00    +0.270 C 
ATOM     22  O   UNL     1      -3.163   4.952  12.386  0.00  0.00    -0.485 OA
ENDBRANCH   7  13
BRANCH   4  23
ATOM     23  C   UNL     1       3.531   1.218   6.302  0.00  0.00    -0.019 A 
ATOM     24  C   UNL     1       3.839  -0.099   6.021  0.00  0.00    +0.009 A 
ATOM     25  C   UNL     1       5.039  -0.637   6.446  0.00  0.00    +0.046 A 
ATOM     26  C   UNL     1       5.934   0.143   7.165  0.00  0.00    +0.124 A 
ATOM     27  C   UNL     1       5.625   1.463   7.454  0.00  0.00    +0.091 A 
ATOM     28  C   UNL     1       4.423   2.002   7.022  0.00  0.00    +0.125 A 
BRANCH  28  29
ATOM     29  O   UNL     1       4.117   3.296   7.302  0.00  0.00    -0.495 OA
ATOM     30  C   UNL     1       5.081   4.043   8.047  0.00  0.00    +0.277 C 
ENDBRANCH  28  29
BRANCH  26  31
ATOM     31  O   UNL     1       7.112  -0.388   7.587  0.00  0.00    -0.495 OA
ATOM     32  C   UNL     1       7.364  -1.754   7.254  0.00  0.00    +0.277 C 
ENDBRANCH  26  31
ENDBRANCH   4  23
BRANCH   1  33
ATOM     33  C   UNL     1      -0.530   1.446   3.638  0.00  0.00    +0.297 C 
ATOM     34  O   UNL     1      -1.525   2.129   3.699  0.00  0.00    -0.252 OA
BRANCH  33  35
ATOM     35  O   UNL     1      -0.027   1.098   2.443  0.00  0.00    -0.466 OA
BRANCH  35  36
ATOM     36  C   UNL     1      -0.729   1.579   1.267  0.00  0.00    +0.228 C 
ATOM     37  C   UNL     1      -0.013   1.086   0.008  0.00  0.00    +0.048 C 
ENDBRANCH  35  36
ENDBRANCH  33  35
ENDBRANCH   1  33
BRANCH   1  38
ATOM     38  C   UNL     1      -0.355  -0.408   5.296  0.00  0.00    -0.001 C 
BRANCH  38  40
ATOM     39  C   UNL     1      -0.448  -2.810   4.616  0.00  0.00    +0.004 C 
ATOM     40  C   UNL     1       0.052  -1.419   4.223  0.00  0.00    -0.004 C 
ENDBRANCH  38  40
ENDBRANCH   1  38
TORSDOF 9
