REMARK  Name = ZINC37302597
REMARK  8 active torsions:
REMARK  status: ('A' for Active; 'I' for Inactive)
REMARK    1  A    between atoms: C_1  and  C_2
REMARK    2  A    between atoms: C_2  and  C_4
REMARK    3  A    between atoms: C_2  and  N_13
REMARK    4  A    between atoms: N_13  and  C_14
REMARK    5  A    between atoms: C_14  and  C_16
REMARK    6  A    between atoms: C_14  and  C_21
REMARK    7  A    between atoms: C_21  and  C_22
REMARK    8  A    between atoms: C_21  and  C_23
REMARK                            x       y       z     vdW  Elec       q    Type
REMARK                         _______ _______ _______ _____ _____    ______ ____
ROOT
ATOM      1  N   UNL     1       0.673  -0.503  -1.335  0.00  0.00    +0.388 N 
ATOM      2  H   UNL     1       0.413   0.089  -0.561  0.00  0.00    -0.084 HD
ATOM      3  H   UNL     1       1.637  -0.333  -1.580  0.00  0.00    -0.084 HD
ENDROOT
BRANCH   1   5
ATOM      4  C   UNL     1      -0.914  -2.135  -0.432  0.00  0.00    -0.009 C 
ATOM      5  C   UNL     1       0.508  -1.911  -0.950  0.00  0.00    -0.042 C 
BRANCH   5   6
ATOM      6  C   UNL     1       1.497  -2.255   0.134  0.00  0.00    -0.040 A 
ATOM      7  C   UNL     1       1.989  -1.262   0.961  0.00  0.00    +0.043 A 
ATOM      8  C   UNL     1       2.897  -1.578   1.956  0.00  0.00    +0.142 A 
ATOM      9  C   UNL     1       3.313  -2.889   2.124  0.00  0.00    +0.077 A 
ATOM     10  C   UNL     1       2.819  -3.881   1.297  0.00  0.00    +0.043 A 
ATOM     11  C   UNL     1       1.907  -3.565   0.305  0.00  0.00    +0.044 A 
ATOM     12 CL   UNL     1       1.283  -4.812  -0.729  0.00  0.00    -0.083 Cl
ATOM     13 CL   UNL     1       4.452  -3.286   3.372  0.00  0.00    -0.081 Cl
ATOM     14  F   UNL     1       3.380  -0.608   2.763  0.00  0.00    -0.204 F 
ENDBRANCH   5   6
ENDBRANCH   1   5
BRANCH   1  15
ATOM     15  C   UNL     1      -0.186  -0.207  -2.489  0.00  0.00    -0.031 C 
BRANCH  15  16
ATOM     16  C   UNL     1       0.292  -0.989  -3.685  0.00  0.00    -0.024 A 
ATOM     17  C   UNL     1      -0.435  -1.619  -4.639  0.00  0.00    +0.009 A 
ATOM     18  C   UNL     1       0.225  -2.282  -5.657  0.00  0.00    +0.008 A 
ATOM     19  C   UNL     1       1.580  -2.283  -5.670  0.00  0.00    +0.045 A 
ATOM     20  S   UNL     1       1.964  -1.319  -4.217  0.00  0.00    -0.103 S 
ENDBRANCH  15  16
BRANCH  15  21
ATOM     21  C   UNL     1      -0.124   1.290  -2.800  0.00  0.00    -0.027 C 
ATOM     22  C   UNL     1      -0.739   2.077  -1.641  0.00  0.00    +0.006 C 
ATOM     23  C   UNL     1       1.335   1.712  -2.986  0.00  0.00    +0.006 C 
ENDBRANCH  15  21
ENDBRANCH   1  15
TORSDOF 5
