REMARK  Name = ZINC41004103
REMARK  12 active torsions:
REMARK  status: ('A' for Active; 'I' for Inactive)
REMARK    1  A    between atoms: C_1  and  C_2
REMARK    2  A    between atoms: C_2  and  O_3
REMARK    3  A    between atoms: O_3  and  C_4
REMARK    4  A    between atoms: C_6  and  C_14
REMARK    5  A    between atoms: C_9  and  O_10
REMARK    6  A    between atoms: O_10  and  C_11
REMARK    7  A    between atoms: C_11  and  C_12
REMARK    8  A    between atoms: C_19  and  C_23
REMARK    9  A    between atoms: C_19  and  C_24
REMARK   10  A    between atoms: C_29  and  S_31
REMARK   11  A    between atoms: S_31  and  C_32
REMARK   12  A    between atoms: C_32  and  C_33
REMARK                            x       y       z     vdW  Elec       q    Type
REMARK                         _______ _______ _______ _____ _____    ______ ____
ROOT
ATOM      1  C   UNL     1       0.655  -4.954  -0.020  0.00  0.00    +0.176 C 
ATOM      2  C   UNL     1       0.640  -5.828   1.214  0.00  0.00    +0.041 C 
ATOM      3  C   UNL     1       0.328  -7.141   1.160  0.00  0.00    +0.020 C 
ATOM      4  C   UNL     1       0.304  -7.985   2.412  0.00  0.00    +0.058 C 
ATOM      5  C   UNL     1       1.337  -7.456   3.409  0.00  0.00    -0.023 C 
ATOM      6  C   UNL     1       1.001  -5.995   3.722  0.00  0.00    +0.086 C 
ATOM      7  C   UNL     1       0.968  -5.215   2.437  0.00  0.00    +0.164 C 
ATOM      8  O   UNL     1       1.231  -4.029   2.455  0.00  0.00    -0.292 OA
ATOM      9  C   UNL     1       1.284  -8.284   4.695  0.00  0.00    +0.011 C 
ATOM     10  C   UNL     1       2.736  -7.544   2.796  0.00  0.00    +0.011 C 
ATOM     11  N   UNL     1       0.026  -7.765  -0.027  0.00  0.00    -0.287 N 
ATOM     12  C   UNL     1       0.328  -7.104  -1.206  0.00  0.00    +0.219 A 
ATOM     13  N   UNL     1       0.628  -5.784  -1.217  0.00  0.00    -0.220 N 
ATOM     14  N   UNL     1       0.882  -5.448  -2.546  0.00  0.00    -0.141 NA
ATOM     15  C   UNL     1       0.721  -6.546  -3.252  0.00  0.00    +0.210 A 
ATOM     16  N   UNL     1       0.385  -7.545  -2.433  0.00  0.00    -0.187 NA
ATOM     17  H   UNL     1      -0.385  -8.643  -0.038  0.00  0.00    +0.155 HD
ENDROOT
BRANCH   1  20
ATOM     18  C   UNL     1      -1.498  -1.849   0.006  0.00  0.00    +0.163 A 
ATOM     19  C   UNL     1      -0.389  -2.680  -0.003  0.00  0.00    +0.055 A 
ATOM     20  C   UNL     1      -0.553  -4.052  -0.009  0.00  0.00    -0.014 A 
ATOM     21  C   UNL     1      -1.822  -4.600  -0.006  0.00  0.00    +0.025 A 
ATOM     22  C   UNL     1      -2.934  -3.777   0.003  0.00  0.00    +0.063 A 
ATOM     23  C   UNL     1      -2.776  -2.400   0.016  0.00  0.00    +0.176 A 
ATOM     24 BR   UNL     1      -4.668  -4.531   0.006  0.00  0.00    -0.046 Br
BRANCH  18  25
ATOM     25  O   UNL     1      -1.339  -0.499   0.012  0.00  0.00    -0.489 OA
BRANCH  25  27
ATOM     26  C   UNL     1      -0.019   1.526   0.010  0.00  0.00    +0.048 C 
ATOM     27  C   UNL     1       0.002  -0.004   0.002  0.00  0.00    +0.226 C 
ENDBRANCH  25  27
ENDBRANCH  18  25
BRANCH  23  28
ATOM     28  O   UNL     1      -3.868  -1.589   0.030  0.00  0.00    -0.487 OA
BRANCH  28  29
ATOM     29  C   UNL     1      -4.401  -1.195  -1.236  0.00  0.00    +0.226 C 
ATOM     30  C   UNL     1      -5.616  -0.292  -1.019  0.00  0.00    +0.048 C 
ENDBRANCH  28  29
ENDBRANCH  23  28
ENDBRANCH   1  20
BRANCH  15  31
ATOM     31  S   UNL     1       0.919  -6.679  -4.998  0.00  0.00    -0.085 S 
BRANCH  31  32
ATOM     32  C   UNL     1       0.563  -8.423  -5.349  0.00  0.00    +0.074 C 
ATOM     33  C   UNL     1       0.700  -8.679  -6.851  0.00  0.00    +0.016 C 
ENDBRANCH  31  32
ENDBRANCH  15  31
TORSDOF 7
