REMARK  Name = ZINC48303074
REMARK  16 active torsions:
REMARK  status: ('A' for Active; 'I' for Inactive)
REMARK    1  A    between atoms: C_1  and  C_2
REMARK    2  A    between atoms: C_4  and  C_22
REMARK    3  A    between atoms: C_5  and  C_21
REMARK    4  A    between atoms: N_6  and  C_7
REMARK    5  A    between atoms: C_9  and  C_17
REMARK    6  A    between atoms: C_11  and  C_13
REMARK    7  A    between atoms: C_13  and  O_15
REMARK    8  A    between atoms: O_15  and  C_16
REMARK    9  A    between atoms: C_17  and  O_19
REMARK   10  A    between atoms: O_19  and  C_20
REMARK   11  A    between atoms: C_22  and  C_24
REMARK   12  A    between atoms: C_24  and  S_25
REMARK   13  A    between atoms: S_25  and  C_26
REMARK   14  A    between atoms: C_27  and  C_34
REMARK   15  A    between atoms: C_28  and  N_33
REMARK   16  A    between atoms: C_30  and  N_32
REMARK                            x       y       z     vdW  Elec       q    Type
REMARK                         _______ _______ _______ _____ _____    ______ ____
ROOT
ATOM      1  C   UNL     1      -0.018   1.503   0.010  0.00  0.00    +0.064 C 
ATOM      2  C   UNL     1       0.002  -0.004   0.002  0.00  0.00    +0.022 A 
ATOM      3  C   UNL     1       0.008  -0.777  -1.097  0.00  0.00    +0.034 A 
ATOM      4  C   UNL     1       0.029  -2.168  -0.626  0.00  0.00    +0.039 A 
ATOM      5  C   UNL     1       0.034  -2.101   0.755  0.00  0.00    +0.031 A 
ATOM      6  N   UNL     1       0.024  -0.802   1.112  0.00  0.00    -0.317 N 
ATOM      7  C   UNL     1       0.053  -3.277   1.697  0.00  0.00    +0.064 C 
ENDROOT
BRANCH   6   8
ATOM      8  C   UNL     1       0.030  -0.335   2.434  0.00  0.00    +0.048 A 
ATOM      9  C   UNL     1       1.133  -0.564   3.242  0.00  0.00    +0.041 A 
ATOM     10  C   UNL     1       1.143  -0.100   4.560  0.00  0.00    +0.062 A 
ATOM     11  C   UNL     1       0.043   0.593   5.061  0.00  0.00    +0.030 A 
ATOM     12  C   UNL     1      -1.064   0.821   4.245  0.00  0.00    +0.062 A 
ATOM     13  C   UNL     1      -1.064   0.359   2.927  0.00  0.00    +0.041 A 
BRANCH  12  14
ATOM     14  C   UNL     1      -2.233   1.555   4.772  0.00  0.00    +0.339 C 
ATOM     15  O   UNL     1      -3.197   1.753   4.061  0.00  0.00    -0.245 OA
BRANCH  14  16
ATOM     16  O   UNL     1      -2.229   2.004   6.042  0.00  0.00    -0.464 OA
ATOM     17  C   UNL     1      -3.393   2.706   6.485  0.00  0.00    +0.280 C 
ENDBRANCH  14  16
ENDBRANCH  12  14
BRANCH  10  18
ATOM     18  C   UNL     1       2.319  -0.345   5.421  0.00  0.00    +0.339 C 
ATOM     19  O   UNL     1       3.277  -0.950   4.983  0.00  0.00    -0.245 OA
BRANCH  18  20
ATOM     20  O   UNL     1       2.328   0.103   6.691  0.00  0.00    -0.464 OA
ATOM     21  C   UNL     1       3.497  -0.169   7.467  0.00  0.00    +0.280 C 
ENDBRANCH  18  20
ENDBRANCH  10  18
ENDBRANCH   6   8
BRANCH   4  22
ATOM     22  C   UNL     1       0.041  -3.378  -1.450  0.00  0.00    +0.175 C 
ATOM     23  O   UNL     1       0.058  -4.471  -0.923  0.00  0.00    -0.291 OA
BRANCH  22  24
ATOM     24  C   UNL     1       0.034  -3.267  -2.953  0.00  0.00    +0.155 C 
BRANCH  24  25
ATOM     25  S   UNL     1       0.053  -4.927  -3.683  0.00  0.00    -0.097 S 
BRANCH  25  26
ATOM     26  C   UNL     1       0.042  -4.629  -5.420  0.00  0.00    +0.119 A 
ATOM     27  C   UNL     1       0.046  -5.714  -6.314  0.00  0.00    +0.104 A 
ATOM     28  C   UNL     1       0.037  -5.452  -7.700  0.00  0.00    +0.048 A 
ATOM     29  C   UNL     1       0.024  -4.128  -8.120  0.00  0.00    +0.067 A 
ATOM     30  C   UNL     1       0.020  -3.113  -7.172  0.00  0.00    +0.119 A 
ATOM     31  N   UNL     1       0.023  -3.385  -5.873  0.00  0.00    -0.225 NA
BRANCH  30  32
ATOM     32  N   UNL     1       0.007  -1.791  -7.590  0.00  0.00    -0.343 N 
ATOM     33  H   UNL     1       0.001  -1.582  -8.537  0.00  0.00    +0.144 HD
ATOM     34  H   UNL     1       0.004  -1.075  -6.935  0.00  0.00    +0.144 HD
ENDBRANCH  30  32
BRANCH  28  35
ATOM     35  N   UNL     1       0.042  -6.490  -8.620  0.00  0.00    -0.357 N 
ATOM     36  H   UNL     1       0.052  -7.410  -8.313  0.00  0.00    +0.142 HD
ATOM     37  H   UNL     1       0.036  -6.296  -9.570  0.00  0.00    +0.142 HD
ENDBRANCH  28  35
BRANCH  27  38
ATOM     38  C   UNL     1       0.061  -7.061  -5.826  0.00  0.00    +0.104 C 
ATOM     39  N   UNL     1       0.072  -8.129  -5.440  0.00  0.00    -0.191 NA
ENDBRANCH  27  38
ENDBRANCH  25  26
ENDBRANCH  24  25
ENDBRANCH  22  24
ENDBRANCH   4  22
TORSDOF 12
