REMARK  Name = ZINC57568048
REMARK  10 active torsions:
REMARK  status: ('A' for Active; 'I' for Inactive)
REMARK    1  A    between atoms: C_1  and  C_2
REMARK    2  A    between atoms: C_2  and  C_3
REMARK    3  A    between atoms: C_6  and  C_9
REMARK    4  A    between atoms: C_9  and  C_11
REMARK    5  A    between atoms: C_9  and  N_14
REMARK    6  A    between atoms: C_11  and  C_12
REMARK    7  A    between atoms: C_11  and  C_13
REMARK    8  A    between atoms: N_14  and  C_15
REMARK    9  A    between atoms: C_15  and  C_16
REMARK   10  A    between atoms: C_18  and  N_26
REMARK                            x       y       z     vdW  Elec       q    Type
REMARK                         _______ _______ _______ _____ _____    ______ ____
ROOT
ATOM      1  N   UNL     1      -5.600  -3.014  -1.014  0.00  0.00    -0.305 NA
ATOM      2  H   UNL     1      -5.686  -2.562  -1.912  0.00  0.00    +0.123 HD
ENDROOT
BRANCH   1   3
ATOM      3  C   UNL     1      -5.418  -2.024   0.057  0.00  0.00    +0.087 C 
BRANCH   3   7
ATOM      4  C   UNL     1      -1.304  -0.892   0.263  0.00  0.00    -0.048 A 
ATOM      5  C   UNL     1      -2.030  -1.073   1.425  0.00  0.00    +0.004 A 
ATOM      6  C   UNL     1      -3.362  -1.439   1.359  0.00  0.00    +0.005 A 
ATOM      7  C   UNL     1      -3.967  -1.624   0.130  0.00  0.00    -0.030 A 
ATOM      8  C   UNL     1      -3.241  -1.442  -1.033  0.00  0.00    +0.005 A 
ATOM      9  C   UNL     1      -1.911  -1.071  -0.966  0.00  0.00    +0.004 A 
BRANCH   4  11
ATOM     10  C   UNL     1       0.256   1.034   0.345  0.00  0.00    +0.009 C 
ATOM     11  C   UNL     1       0.147  -0.492   0.335  0.00  0.00    +0.032 C 
ENDBRANCH   4  11
ENDBRANCH   3   7
BRANCH   3  12
ATOM     12  C   UNL     1      -6.274  -0.790  -0.238  0.00  0.00    +0.004 C 
ATOM     13  C   UNL     1      -6.185   0.184   0.938  0.00  0.00    +0.009 C 
ATOM     14  C   UNL     1      -5.761  -0.106  -1.507  0.00  0.00    +0.009 C 
ENDBRANCH   3  12
ENDBRANCH   1   3
BRANCH   1  15
ATOM     15  C   UNL     1      -6.759  -3.874  -0.743  0.00  0.00    +0.120 C 
BRANCH  15  16
ATOM     16  C   UNL     1      -6.969  -4.814  -1.903  0.00  0.00    +0.011 A 
ATOM     17  C   UNL     1      -7.932  -4.534  -2.853  0.00  0.00    +0.041 A 
ATOM     18  C   UNL     1      -8.125  -5.395  -3.917  0.00  0.00    +0.127 A 
ATOM     19  C   UNL     1      -7.356  -6.539  -4.031  0.00  0.00    +0.042 A 
ATOM     20  C   UNL     1      -6.393  -6.824  -3.083  0.00  0.00    +0.022 A 
ATOM     21  C   UNL     1      -6.191  -5.957  -2.020  0.00  0.00    +0.133 A 
ATOM     22  O   UNL     1      -5.236  -6.218  -1.087  0.00  0.00    -0.466 OA
ATOM     23  C   UNL     1      -4.722  -7.552  -1.044  0.00  0.00    +0.394 C 
ATOM     24  O   UNL     1      -4.403  -7.963  -2.379  0.00  0.00    -0.339 OA
ATOM     25  C   UNL     1      -5.563  -8.076  -3.215  0.00  0.00    +0.202 C 
BRANCH  18  26
ATOM     26  N   UNL     1      -9.156  -5.093  -4.935  0.00  0.00    +0.056 N 
ATOM     27  O   UNL     1      -9.829  -4.093  -4.836  0.00  0.00    -0.126 OA
ATOM     28  O   UNL     1      -9.326  -5.846  -5.865  0.00  0.00    -0.126 OA
ENDBRANCH  18  26
ENDBRANCH  15  16
ENDBRANCH   1  15
TORSDOF 7
