REMARK  Name = ZINC35494170
REMARK  11 active torsions:
REMARK  status: ('A' for Active; 'I' for Inactive)
REMARK    1  A    between atoms: C_1  and  C_2
REMARK    2  A    between atoms: C_2  and  C_4
REMARK    3  A    between atoms: C_8  and  C_37
REMARK    4  A    between atoms: C_17  and  C_36
REMARK    5  A    between atoms: N_21  and  O_22
REMARK    6  A    between atoms: C_23  and  C_34
REMARK    7  A    between atoms: C_23  and  C_35
REMARK    8  A    between atoms: C_28  and  C_33
REMARK    9  A    between atoms: C_29  and  C_32
REMARK   10  A    between atoms: C_37  and  O_39
REMARK   11  A    between atoms: O_39  and  C_40
REMARK                            x       y       z     vdW  Elec       q    Type
REMARK                         _______ _______ _______ _____ _____    ______ ____
ROOT
ATOM      1  C   UNL     1      -0.269  -1.204  -2.493  0.00  0.00    +0.019 C 
ATOM      2  C   UNL     1       0.987  -0.916  -3.351  0.00  0.00    +0.009 C 
ATOM      3  C   UNL     1       0.567  -1.326  -4.776  0.00  0.00    +0.019 C 
ATOM      4  C   UNL     1      -0.959  -1.523  -4.722  0.00  0.00    +0.071 C 
ATOM      5  C   UNL     1      -1.443  -0.820  -3.435  0.00  0.00    +0.017 C 
ATOM      6  C   UNL     1      -1.565   0.678  -3.610  0.00  0.00    +0.000 C 
ATOM      7  C   UNL     1      -2.207   1.384  -2.420  0.00  0.00    +0.005 C 
ATOM      8  C   UNL     1      -3.729   1.214  -2.385  0.00  0.00    +0.005 C 
ATOM      9  C   UNL     1      -4.304   1.825  -3.660  0.00  0.00    +0.002 C 
ATOM     10  C   UNL     1      -5.823   1.954  -3.598  0.00  0.00    -0.025 C 
ATOM     11  C   UNL     1      -6.140   3.036  -2.539  0.00  0.00    +0.013 C 
ATOM     12  C   UNL     1      -7.650   3.141  -2.359  0.00  0.00    +0.055 C 
ATOM     13  C   UNL     1      -8.320   3.392  -3.685  0.00  0.00    +0.063 C 
ATOM     14  N   UNL     1      -9.356   4.164  -3.727  0.00  0.00    -0.096 NA
ATOM     15  C   UNL     1      -7.828   2.769  -4.967  0.00  0.00    +0.010 C 
ATOM     16  C   UNL     1      -6.341   2.479  -4.932  0.00  0.00    +0.007 C 
ATOM     17  C   UNL     1      -5.894   1.580  -6.079  0.00  0.00    +0.005 C 
ATOM     18  C   UNL     1      -4.360   1.615  -6.153  0.00  0.00    +0.008 C 
ATOM     19  C   UNL     1      -3.768   1.048  -4.858  0.00  0.00    -0.023 C 
ATOM     20  C   UNL     1      -2.242   1.139  -4.898  0.00  0.00    -0.023 C 
ATOM     21  C   UNL     1      -1.677   0.444  -6.130  0.00  0.00    +0.008 C 
ATOM     22  C   UNL     1      -1.591  -1.059  -6.007  0.00  0.00    +0.019 C 
ATOM     23  C   UNL     1      -1.849   2.632  -5.074  0.00  0.00    +0.012 C 
ATOM     24  C   UNL     1      -4.189  -0.426  -4.768  0.00  0.00    +0.012 C 
ATOM     25  C   UNL     1      -8.093   3.799  -6.093  0.00  0.00    +0.017 C 
ATOM     26  C   UNL     1      -8.660   1.527  -5.292  0.00  0.00    +0.017 C 
ATOM     27  C   UNL     1      -6.495   0.664  -3.158  0.00  0.00    +0.012 C 
ENDROOT
BRANCH   1  29
ATOM     28  C   UNL     1      -1.116  -0.923  -0.056  0.00  0.00    +0.039 C 
ATOM     29  C   UNL     1      -0.185  -0.522  -1.171  0.00  0.00    -0.076 C 
ATOM     30  C   UNL     1       0.698   0.427  -0.979  0.00  0.00    +0.007 C 
ENDBRANCH   1  29
BRANCH  14  31
ATOM     31  O   UNL     1      -9.844   4.759  -2.538  0.00  0.00    -0.409 OA
ATOM     32  H   UNL     1     -10.621   5.319  -2.670  0.00  0.00    +0.328 HD
ENDBRANCH  14  31
BRANCH   4  33
ATOM     33  C   UNL     1      -1.232  -3.006  -4.588  0.00  0.00    +0.313 C 
ATOM     34  O   UNL     1      -1.810  -3.429  -3.615  0.00  0.00    -0.250 OA
BRANCH  33  35
ATOM     35  O   UNL     1      -0.831  -3.852  -5.551  0.00  0.00    -0.468 OA
ATOM     36  C   UNL     1      -1.121  -5.238  -5.359  0.00  0.00    +0.280 C 
ENDBRANCH  33  35
ENDBRANCH   4  33
TORSDOF 4
