REMARK  Name = ZINC02407306
REMARK  7 active torsions:
REMARK  status: ('A' for Active; 'I' for Inactive)
REMARK    1  A    between atoms: C_1  and  O_2
REMARK    2  A    between atoms: O_2  and  C_3
REMARK    3  A    between atoms: C_8  and  O_9
REMARK    4  A    between atoms: O_9  and  C_10
REMARK    5  A    between atoms: C_15  and  O_21
REMARK    6  A    between atoms: O_21  and  C_22
REMARK    7  A    between atoms: C_22  and  C_23
REMARK                            x       y       z     vdW  Elec       q    Type
REMARK                         _______ _______ _______ _____ _____    ______ ____
ROOT
ATOM      1  C   UNL     1       0.739   0.672  -7.277  0.00  0.00    +0.210 A 
ATOM      2  C   UNL     1      -0.427   1.326  -7.102  0.00  0.00    +0.245 A 
ATOM      3  O   UNL     1      -0.862   1.723  -5.899  0.00  0.00    -0.459 OA
ATOM      4  C   UNL     1      -0.163   1.499  -4.768  0.00  0.00    +0.142 A 
ATOM      5  C   UNL     1      -0.645   1.920  -3.536  0.00  0.00    +0.092 A 
ATOM      6  C   UNL     1       0.096   1.681  -2.391  0.00  0.00    +0.125 A 
ATOM      7  C   UNL     1       1.317   1.012  -2.463  0.00  0.00    +0.046 A 
ATOM      8  C   UNL     1       1.801   0.587  -3.666  0.00  0.00    +0.019 A 
ATOM      9  C   UNL     1       1.069   0.825  -4.830  0.00  0.00    +0.068 A 
ATOM     10  C   UNL     1       1.557   0.383  -6.148  0.00  0.00    +0.234 A 
ATOM     11  O   UNL     1       2.618  -0.207  -6.267  0.00  0.00    -0.283 OA
ENDROOT
BRANCH   1  12
ATOM     12  O   UNL     1       1.131   0.292  -8.523  0.00  0.00    -0.445 OA
BRANCH  12  18
ATOM     13  C   UNL     1       0.585   1.929 -10.167  0.00  0.00    +0.162 A 
ATOM     14  C   UNL     1      -0.192   2.326 -11.244  0.00  0.00    +0.049 A 
ATOM     15  C   UNL     1      -1.177   1.488 -11.732  0.00  0.00    +0.004 A 
ATOM     16  C   UNL     1      -1.390   0.253 -11.149  0.00  0.00    +0.004 A 
ATOM     17  C   UNL     1      -0.615  -0.152 -10.077  0.00  0.00    +0.050 A 
ATOM     18  C   UNL     1       0.371   0.686  -9.580  0.00  0.00    +0.170 A 
BRANCH  13  20
ATOM     19  C   UNL     1       1.718   4.013 -10.339  0.00  0.00    +0.277 C 
ATOM     20  O   UNL     1       1.554   2.752  -9.686  0.00  0.00    -0.491 OA
ENDBRANCH  13  20
ENDBRANCH  12  18
ENDBRANCH   1  12
BRANCH   6  21
ATOM     21  O   UNL     1      -0.372   2.098  -1.187  0.00  0.00    -0.487 OA
BRANCH  21  22
ATOM     22  C   UNL     1       0.436   1.816  -0.043  0.00  0.00    +0.267 C 
BRANCH  22  23
ATOM     23  C   UNL     1      -0.240   2.350   1.194  0.00  0.00    +0.025 A 
ATOM     24  C   UNL     1      -1.456   2.999   1.091  0.00  0.00    +0.010 A 
ATOM     25  C   UNL     1      -2.079   3.483   2.226  0.00  0.00    +0.001 A 
ATOM     26  C   UNL     1      -1.482   3.329   3.463  0.00  0.00    +0.003 A 
ATOM     27  C   UNL     1      -0.264   2.684   3.568  0.00  0.00    +0.039 A 
ATOM     28  C   UNL     1       0.359   2.194   2.432  0.00  0.00    +0.130 A 
ATOM     29  F   UNL     1       1.550   1.564   2.533  0.00  0.00    -0.205 F 
ENDBRANCH  22  23
ENDBRANCH  21  22
ENDBRANCH   6  21
TORSDOF 6
