REMARK  Name = ZINC17086678
REMARK  12 active torsions:
REMARK  status: ('A' for Active; 'I' for Inactive)
REMARK    1  A    between atoms: C_1  and  C_2
REMARK    2  A    between atoms: C_5  and  C_34
REMARK    3  A    between atoms: C_6  and  C_8
REMARK    4  A    between atoms: C_8  and  C_10
REMARK    5  A    between atoms: C_10  and  C_11
REMARK    6  A    between atoms: C_11  and  O_33
REMARK    7  A    between atoms: N_18  and  C_21
REMARK    8  A    between atoms: C_21  and  C_22
REMARK    9  A    between atoms: C_25  and  O_30
REMARK   10  A    between atoms: C_26  and  O_28
REMARK   11  A    between atoms: O_28  and  C_29
REMARK   12  A    between atoms: O_30  and  C_31
REMARK                            x       y       z     vdW  Elec       q    Type
REMARK                         _______ _______ _______ _____ _____    ______ ____
ROOT
ATOM      1  C   UNL     1       3.616   1.038   3.605  0.00  0.00    +0.175 C 
ATOM      2  C   UNL     1       4.394   1.164   4.895  0.00  0.00    +0.016 A 
ATOM      3  C   UNL     1       4.283   0.542   6.119  0.00  0.00    +0.024 A 
ATOM      4  C   UNL     1       5.159   0.869   7.140  0.00  0.00    +0.018 A 
ATOM      5  C   UNL     1       6.142   1.818   6.926  0.00  0.00    +0.017 A 
ATOM      6  C   UNL     1       6.255   2.442   5.701  0.00  0.00    +0.025 A 
ATOM      7  C   UNL     1       5.376   2.119   4.668  0.00  0.00    +0.043 A 
ATOM      8  N   UNL     1       5.288   2.601   3.361  0.00  0.00    -0.264 N 
ATOM      9  C   UNL     1       4.289   2.024   2.673  0.00  0.00    +0.257 C 
ATOM     10  O   UNL     1       3.983   2.250   1.521  0.00  0.00    -0.272 OA
ATOM     11 BR   UNL     1       5.011   0.019   8.823  0.00  0.00    -0.050 Br
ENDROOT
BRANCH   1  12
ATOM     12  O   UNL     1       3.715  -0.289   3.085  0.00  0.00    -0.374 OA
ATOM     13  H   UNL     1       3.259  -0.416   2.241  0.00  0.00    +0.211 HD
ENDBRANCH   1  12
BRANCH   1  14
ATOM     14  C   UNL     1       2.151   1.420   3.822  0.00  0.00    +0.129 C 
BRANCH  14  15
ATOM     15  C   UNL     1       1.420   1.379   2.505  0.00  0.00    +0.167 C 
ATOM     16  O   UNL     1       2.013   1.075   1.492  0.00  0.00    -0.292 OA
BRANCH  15  22
ATOM     17  C   UNL     1      -2.845   2.494   4.834  0.00  0.00    +0.044 C 
ATOM     18  C   UNL     1      -2.071   2.247   3.565  0.00  0.00    -0.050 A 
ATOM     19  C   UNL     1      -2.710   2.329   2.340  0.00  0.00    +0.003 A 
ATOM     20  C   UNL     1      -2.008   2.108   1.168  0.00  0.00    +0.004 A 
ATOM     21  C   UNL     1      -0.666   1.794   1.214  0.00  0.00    -0.040 A 
ATOM     22  C   UNL     1      -0.013   1.709   2.447  0.00  0.00    +0.021 A 
ATOM     23  C   UNL     1      -0.729   1.939   3.627  0.00  0.00    +0.015 A 
ATOM     24  C   UNL     1       0.097   1.548  -0.063  0.00  0.00    +0.044 C 
ENDBRANCH  15  22
ENDBRANCH  14  15
ENDBRANCH   1  14
BRANCH   8  25
ATOM     25  C   UNL     1       6.182   3.620   2.805  0.00  0.00    +0.149 C 
BRANCH  25  26
ATOM     26  C   UNL     1       5.599   4.987   3.050  0.00  0.00    -0.026 A 
ATOM     27  C   UNL     1       4.754   5.555   2.114  0.00  0.00    +0.009 A 
ATOM     28  C   UNL     1       4.212   6.807   2.337  0.00  0.00    +0.050 A 
ATOM     29  C   UNL     1       4.524   7.501   3.496  0.00  0.00    +0.162 A 
ATOM     30  C   UNL     1       5.379   6.932   4.435  0.00  0.00    +0.162 A 
ATOM     31  C   UNL     1       5.914   5.674   4.208  0.00  0.00    +0.054 A 
BRANCH  30  32
ATOM     32  O   UNL     1       5.688   7.608   5.574  0.00  0.00    -0.491 OA
ATOM     33  C   UNL     1       6.571   6.962   6.493  0.00  0.00    +0.277 C 
ENDBRANCH  30  32
BRANCH  29  34
ATOM     34  O   UNL     1       3.997   8.735   3.714  0.00  0.00    -0.491 OA
ATOM     35  C   UNL     1       3.128   9.257   2.707  0.00  0.00    +0.277 C 
ENDBRANCH  29  34
ENDBRANCH  25  26
ENDBRANCH   8  25
TORSDOF 8
