REMARK  Name = ZINC40815866
REMARK  8 active torsions:
REMARK  status: ('A' for Active; 'I' for Inactive)
REMARK    1  A    between atoms: C_1  and  C_2
REMARK    2  A    between atoms: C_9  and  O_12
REMARK    3  A    between atoms: O_12  and  C_13
REMARK    4  A    between atoms: C_13  and  C_15
REMARK    5  A    between atoms: C_16  and  C_35
REMARK    6  A    between atoms: N_24  and  N_25
REMARK    7  A    between atoms: C_26  and  C_28
REMARK    8  A    between atoms: C_28  and  C_29
REMARK                            x       y       z     vdW  Elec       q    Type
REMARK                         _______ _______ _______ _____ _____    ______ ____
ROOT
ATOM      1  C   UNL     1      -0.162  -1.975   6.017  0.00  0.00    +0.215 A 
ATOM      2  C   UNL     1      -0.253  -2.564   7.248  0.00  0.00    +0.011 A 
ATOM      3  C   UNL     1      -0.348  -1.520   8.175  0.00  0.00    +0.042 A 
ATOM      4  C   UNL     1      -0.313  -0.339   7.472  0.00  0.00    +0.115 A 
ATOM      5  O   UNL     1      -0.194  -0.633   6.180  0.00  0.00    -0.452 OA
ATOM      6  C   UNL     1      -0.398   1.013   8.134  0.00  0.00    +0.075 C 
ATOM      7  C   UNL     1      -1.024   0.861   9.523  0.00  0.00    +0.014 C 
ATOM      8  C   UNL     1      -0.280  -0.202  10.338  0.00  0.00    +0.058 C 
ATOM      9  C   UNL     1      -0.467  -1.547   9.650  0.00  0.00    +0.070 C 
ATOM     10  N   UNL     1      -0.712  -2.637  10.309  0.00  0.00    -0.184 NA
ATOM     11  C   UNL     1      -0.251  -4.042   7.547  0.00  0.00    +0.048 C 
ENDROOT
BRANCH  10  12
ATOM     12  N   UNL     1      -0.814  -2.604  11.706  0.00  0.00    -0.206 N 
ATOM     13  C   UNL     1      -1.069  -3.737  12.390  0.00  0.00    +0.237 C 
ATOM     14  O   UNL     1      -1.210  -4.785  11.797  0.00  0.00    -0.274 OA
ATOM     15  H   UNL     1      -0.701  -1.766  12.181  0.00  0.00    +0.177 HD
BRANCH  13  16
ATOM     16  C   UNL     1      -1.178  -3.701  13.893  0.00  0.00    +0.132 C 
BRANCH  16  17
ATOM     17  C   UNL     1      -1.465  -5.088  14.409  0.00  0.00    -0.039 A 
ATOM     18  C   UNL     1      -2.772  -5.516  14.550  0.00  0.00    +0.004 A 
ATOM     19  C   UNL     1      -3.035  -6.787  15.023  0.00  0.00    +0.000 A 
ATOM     20  C   UNL     1      -1.992  -7.631  15.355  0.00  0.00    +0.000 A 
ATOM     21  C   UNL     1      -0.685  -7.204  15.213  0.00  0.00    +0.000 A 
ATOM     22  C   UNL     1      -0.422  -5.933  14.736  0.00  0.00    +0.004 A 
ENDBRANCH  16  17
ENDBRANCH  13  16
ENDBRANCH  10  12
BRANCH   1  23
ATOM     23  C   UNL     1      -0.043  -2.680   4.738  0.00  0.00    +0.380 C 
ATOM     24  O   UNL     1      -0.024  -3.896   4.713  0.00  0.00    -0.241 OA
BRANCH  23  25
ATOM     25  O   UNL     1       0.045  -1.980   3.588  0.00  0.00    -0.418 OA
BRANCH  25  34
ATOM     26  C   UNL     1      -4.762  -2.970   2.672  0.00  0.00    +0.065 C 
ATOM     27  C   UNL     1      -3.475  -3.277   1.950  0.00  0.00    +0.039 A 
ATOM     28  C   UNL     1      -3.523  -3.989   0.753  0.00  0.00    +0.023 A 
ATOM     29  C   UNL     1      -2.366  -4.276   0.085  0.00  0.00    +0.012 A 
ATOM     30  C   UNL     1      -1.151  -3.834   0.641  0.00  0.00    +0.004 A 
ATOM     31  C   UNL     1       0.077  -4.091   0.011  0.00  0.00    +0.010 A 
ATOM     32  C   UNL     1       1.233  -3.648   0.577  0.00  0.00    +0.004 A 
ATOM     33  C   UNL     1       1.217  -2.940   1.776  0.00  0.00    +0.048 A 
ATOM     34  C   UNL     1       0.042  -2.671   2.419  0.00  0.00    +0.158 A 
ATOM     35  C   UNL     1      -1.175  -3.115   1.861  0.00  0.00    +0.113 A 
ATOM     36  N   UNL     1      -2.342  -2.862   2.461  0.00  0.00    -0.248 NA
ENDBRANCH  25  34
ENDBRANCH  23  25
ENDBRANCH   1  23
TORSDOF 6
