REMARK  Name = ZINC04100104
REMARK  10 active torsions:
REMARK  status: ('A' for Active; 'I' for Inactive)
REMARK    1  A    between atoms: C_1  and  C_2
REMARK    2  A    between atoms: C_2  and  C_3
REMARK    3  A    between atoms: C_3  and  C_4
REMARK    4  A    between atoms: C_4  and  C_5
REMARK    5  A    between atoms: C_5  and  C_28
REMARK    6  A    between atoms: N_6  and  N_7
REMARK    7  A    between atoms: C_8  and  S_10
REMARK    8  A    between atoms: S_10  and  C_11
REMARK    9  A    between atoms: N_16  and  C_19
REMARK   10  A    between atoms: C_23  and  N_25
REMARK                            x       y       z     vdW  Elec       q    Type
REMARK                         _______ _______ _______ _____ _____    ______ ____
ROOT
ATOM      1  N   UNL     1       3.763  -3.136  -1.959  0.00  0.00    -0.217 N 
ATOM      2  C   UNL     1       5.118  -3.194  -1.717  0.00  0.00    +0.146 C 
ATOM      3  N   UNL     1       5.925  -3.652  -2.634  0.00  0.00    -0.380 N 
ATOM      4  H   UNL     1       3.163  -2.796  -1.277  0.00  0.00    +0.176 HD
ATOM      5  H   UNL     1       6.879  -3.692  -2.464  0.00  0.00    +0.158 HD
ATOM      6  H   UNL     1       5.571  -3.952  -3.485  0.00  0.00    +0.158 HD
ENDROOT
BRANCH   1   8
ATOM      7  C   UNL     1       1.976  -3.517  -3.416  0.00  0.00    +0.066 C 
ATOM      8  N   UNL     1       3.252  -3.571  -3.189  0.00  0.00    -0.185 NA
BRANCH   7   9
ATOM      9  C   UNL     1       1.438  -3.974  -4.711  0.00  0.00    -0.002 A 
ATOM     10  C   UNL     1       0.065  -3.912  -4.962  0.00  0.00    +0.010 A 
ATOM     11  C   UNL     1      -0.431  -4.341  -6.175  0.00  0.00    +0.001 A 
ATOM     12  C   UNL     1       0.427  -4.832  -7.143  0.00  0.00    +0.000 A 
ATOM     13  C   UNL     1       1.788  -4.896  -6.902  0.00  0.00    +0.001 A 
ATOM     14  C   UNL     1       2.299  -4.465  -5.695  0.00  0.00    +0.010 A 
ENDBRANCH   7   9
BRANCH   7  15
ATOM     15  C   UNL     1       1.043  -2.987  -2.357  0.00  0.00    +0.057 C 
BRANCH  15  16
ATOM     16  C   UNL     1       0.879  -1.476  -2.532  0.00  0.00    +0.006 C 
BRANCH  16  18
ATOM     17  C   UNL     1      -0.232   0.572  -1.631  0.00  0.00    +0.004 C 
ATOM     18  C   UNL     1      -0.068  -0.939  -1.457  0.00  0.00    -0.003 C 
ENDBRANCH  16  18
ENDBRANCH  15  16
ENDBRANCH   7  15
ENDBRANCH   1   8
BRANCH   2  19
ATOM     19  S   UNL     1       5.761  -2.648  -0.170  0.00  0.00    -0.078 S 
BRANCH  19  20
ATOM     20  C   UNL     1       7.549  -2.911  -0.321  0.00  0.00    +0.149 C 
ATOM     21  C   UNL     1       8.265  -2.543   0.995  0.00  0.00    +0.120 C 
ATOM     22  C   UNL     1       9.190  -1.416   0.593  0.00  0.00    +0.228 C 
ATOM     23  O   UNL     1       9.945  -0.828   1.337  0.00  0.00    -0.275 OA
ATOM     24  N   UNL     1       9.043  -1.170  -0.715  0.00  0.00    -0.209 N 
ATOM     25  C   UNL     1       8.145  -1.955  -1.331  0.00  0.00    +0.240 C 
ATOM     26  O   UNL     1       7.856  -1.907  -2.507  0.00  0.00    -0.274 OA
BRANCH  24  27
ATOM     27  C   UNL     1       9.768  -0.176  -1.386  0.00  0.00    +0.046 A 
ATOM     28  C   UNL     1      11.139  -0.310  -1.556  0.00  0.00    +0.024 A 
ATOM     29  C   UNL     1      11.851   0.671  -2.218  0.00  0.00    +0.004 A 
ATOM     30  C   UNL     1      11.199   1.786  -2.712  0.00  0.00    +0.033 A 
ATOM     31  C   UNL     1       9.834   1.923  -2.544  0.00  0.00    +0.128 A 
ATOM     32  C   UNL     1       9.115   0.942  -1.888  0.00  0.00    +0.056 A 
BRANCH  31  33
ATOM     33  N   UNL     1       9.139   3.118  -3.074  0.00  0.00    +0.056 N 
ATOM     34  O   UNL     1       9.767   3.974  -3.653  0.00  0.00    -0.126 OA
ATOM     35  O   UNL     1       7.945   3.238  -2.927  0.00  0.00    -0.126 OA
ENDBRANCH  31  33
ENDBRANCH  24  27
ENDBRANCH  19  20
ENDBRANCH   2  19
TORSDOF 9
