REMARK  Name = ZINC13127841
REMARK  9 active torsions:
REMARK  status: ('A' for Active; 'I' for Inactive)
REMARK    1  A    between atoms: C_1  and  O_2
REMARK    2  A    between atoms: O_2  and  C_3
REMARK    3  A    between atoms: C_6  and  C_11
REMARK    4  A    between atoms: C_8  and  O_9
REMARK    5  A    between atoms: O_9  and  C_10
REMARK    6  A    between atoms: C_14  and  C_32
REMARK    7  A    between atoms: C_18  and  C_21
REMARK    8  A    between atoms: N_23  and  C_24
REMARK    9  A    between atoms: C_28  and  O_30
REMARK                            x       y       z     vdW  Elec       q    Type
REMARK                         _______ _______ _______ _____ _____    ______ ____
ROOT
ATOM      1  C   UNL     1      -4.986  -2.625   0.035  0.00  0.00    +0.104 C 
ATOM      2  C   UNL     1      -5.556  -2.645   1.458  0.00  0.00    +0.063 C 
ATOM      3  C   UNL     1      -6.885  -3.409   1.474  0.00  0.00    +0.215 C 
ATOM      4  N   UNL     1      -7.740  -2.895   0.399  0.00  0.00    -0.238 N 
ATOM      5  C   UNL     1      -7.272  -2.196  -0.663  0.00  0.00    +0.130 A 
ATOM      6  C   UNL     1      -8.354  -1.876  -1.462  0.00  0.00    +0.096 A 
ATOM      7  C   UNL     1      -9.502  -2.419  -0.830  0.00  0.00    +0.149 A 
ATOM      8  N   UNL     1      -9.122  -3.017   0.266  0.00  0.00    -0.177 NA
ATOM      9  N   UNL     1      -5.930  -1.904  -0.841  0.00  0.00    -0.322 N 
ATOM     10  H   UNL     1      -5.628  -1.261  -1.502  0.00  0.00    +0.148 HD
ENDROOT
BRANCH   1  14
ATOM     11  C   UNL     1      -1.210  -0.618   0.030  0.00  0.00    +0.162 A 
ATOM     12  C   UNL     1      -2.387   0.114   0.041  0.00  0.00    +0.050 A 
ATOM     13  C   UNL     1      -3.606  -0.538   0.042  0.00  0.00    +0.009 A 
ATOM     14  C   UNL     1      -3.654  -1.919   0.033  0.00  0.00    -0.024 A 
ATOM     15  C   UNL     1      -2.484  -2.655   0.022  0.00  0.00    +0.054 A 
ATOM     16  C   UNL     1      -1.259  -2.008   0.015  0.00  0.00    +0.162 A 
BRANCH  11  18
ATOM     17  C   UNL     1      -0.036   1.451   0.044  0.00  0.00    +0.277 C 
ATOM     18  O   UNL     1      -0.010   0.022   0.028  0.00  0.00    -0.491 OA
ENDBRANCH  11  18
BRANCH  16  19
ATOM     19  O   UNL     1      -0.107  -2.731  -0.002  0.00  0.00    -0.491 OA
ATOM     20  C   UNL     1      -0.234  -4.154  -0.016  0.00  0.00    +0.277 C 
ENDBRANCH  16  19
ENDBRANCH   1  14
BRANCH   6  21
ATOM     21  C   UNL     1      -8.321  -1.121  -2.719  0.00  0.00    +0.253 C 
ATOM     22  O   UNL     1      -7.262  -0.708  -3.153  0.00  0.00    -0.270 OA
ATOM     23  N   UNL     1      -9.464  -0.884  -3.393  0.00  0.00    -0.281 N 
ATOM     24  H   UNL     1     -10.298  -1.269  -3.084  0.00  0.00    +0.155 HD
BRANCH  23  25
ATOM     25  C   UNL     1      -9.446  -0.083  -4.540  0.00  0.00    +0.037 A 
ATOM     26  C   UNL     1     -10.519   0.754  -4.820  0.00  0.00    +0.023 A 
ATOM     27  C   UNL     1     -10.502   1.544  -5.953  0.00  0.00    +0.005 A 
ATOM     28  C   UNL     1      -9.418   1.506  -6.809  0.00  0.00    +0.045 A 
ATOM     29  C   UNL     1      -8.343   0.672  -6.534  0.00  0.00    +0.119 A 
ATOM     30  C   UNL     1      -8.354  -0.119  -5.396  0.00  0.00    +0.068 A 
BRANCH  29  31
ATOM     31  O   UNL     1      -7.278   0.634  -7.378  0.00  0.00    -0.507 OA
ATOM     32  H   UNL     1      -6.584   1.272  -7.163  0.00  0.00    +0.292 HD
ENDBRANCH  29  31
ENDBRANCH  23  25
ENDBRANCH   6  21
BRANCH   3  33
ATOM     33  C   UNL     1      -7.577  -3.206   2.824  0.00  0.00    +0.412 C 
ATOM     34  F   UNL     1      -7.821  -1.843   3.022  0.00  0.00    -0.168 F 
ATOM     35  F   UNL     1      -8.789  -3.904   2.836  0.00  0.00    -0.168 F 
ATOM     36  F   UNL     1      -6.752  -3.686   3.847  0.00  0.00    -0.168 F 
ENDBRANCH   3  33
TORSDOF 7
