REMARK  Name = ZINC02746459
REMARK  5 active torsions:
REMARK  status: ('A' for Active; 'I' for Inactive)
REMARK    1  A    between atoms: C_1  and  C_2
REMARK    2  A    between atoms: C_5  and  N_8
REMARK    3  A    between atoms: C_9  and  C_26
REMARK    4  A    between atoms: C_12  and  C_19
REMARK    5  A    between atoms: C_30  and  N_32
REMARK                            x       y       z     vdW  Elec       q    Type
REMARK                         _______ _______ _______ _____ _____    ______ ____
ROOT
ATOM      1  N   UNL     1       0.059  -4.170  -0.021  0.00  0.00    -0.258 N 
ATOM      2  C   UNL     1       0.176  -5.030   1.179  0.00  0.00    +0.142 C 
ATOM      3  C   UNL     1      -0.445  -6.333   0.749  0.00  0.00    +0.018 C 
ATOM      4  C   UNL     1      -1.144  -7.451   0.820  0.00  0.00    +0.097 C 
ATOM      5  N   UNL     1      -1.474  -7.877  -0.436  0.00  0.00    -0.153 NA
ATOM      6  N   UNL     1      -0.844  -7.303  -1.338  0.00  0.00    -0.170 NA
ATOM      7  C   UNL     1       0.090  -6.385  -0.699  0.00  0.00    +0.244 C 
ATOM      8  C   UNL     1      -0.034  -4.949  -1.129  0.00  0.00    +0.251 C 
ATOM      9  O   UNL     1      -0.188  -4.556  -2.266  0.00  0.00    -0.272 OA
ENDROOT
BRANCH   1  14
ATOM     10  C   UNL     1      -0.017   1.503   0.012  0.00  0.00    +0.044 C 
ATOM     11  C   UNL     1       0.003  -0.004   0.003  0.00  0.00    -0.050 A 
ATOM     12  C   UNL     1      -1.085  -0.706  -0.482  0.00  0.00    +0.005 A 
ATOM     13  C   UNL     1      -1.070  -2.087  -0.492  0.00  0.00    +0.024 A 
ATOM     14  C   UNL     1       0.040  -2.771  -0.013  0.00  0.00    +0.037 A 
ATOM     15  C   UNL     1       1.131  -2.063   0.474  0.00  0.00    +0.024 A 
ATOM     16  C   UNL     1       1.112  -0.682   0.476  0.00  0.00    +0.005 A 
ENDBRANCH   1  14
BRANCH   4  17
ATOM     17  C   UNL     1      -1.516  -8.144   2.078  0.00  0.00    +0.002 A 
ATOM     18  C   UNL     1      -1.129  -7.615   3.308  0.00  0.00    +0.011 A 
ATOM     19  C   UNL     1      -1.478  -8.262   4.476  0.00  0.00    +0.016 A 
ATOM     20  C   UNL     1      -2.212  -9.435   4.426  0.00  0.00    +0.018 A 
ATOM     21  C   UNL     1      -2.598  -9.965   3.208  0.00  0.00    +0.016 A 
ATOM     22  C   UNL     1      -2.259  -9.322   2.034  0.00  0.00    +0.011 A 
ATOM     23 BR   UNL     1      -2.686 -10.318   6.030  0.00  0.00    -0.050 Br
ENDBRANCH   4  17
BRANCH   2  24
ATOM     24  C   UNL     1      -0.586  -4.433   2.334  0.00  0.00    -0.020 A 
ATOM     25  C   UNL     1      -1.805  -3.819   2.115  0.00  0.00    +0.006 A 
ATOM     26  C   UNL     1      -2.504  -3.272   3.175  0.00  0.00    +0.003 A 
ATOM     27  C   UNL     1      -1.983  -3.339   4.454  0.00  0.00    +0.033 A 
ATOM     28  C   UNL     1      -0.765  -3.953   4.673  0.00  0.00    +0.127 A 
ATOM     29  C   UNL     1      -0.068  -4.504   3.614  0.00  0.00    +0.038 A 
BRANCH  28  30
ATOM     30  N   UNL     1      -0.208  -4.024   6.043  0.00  0.00    +0.056 N 
ATOM     31  O   UNL     1      -0.818  -3.545   6.970  0.00  0.00    -0.126 OA
ATOM     32  O   UNL     1       0.858  -4.562   6.235  0.00  0.00    -0.126 OA
ENDBRANCH  28  30
ENDBRANCH   2  24
TORSDOF 4
