REMARK  Name = ZINC08789662
REMARK  12 active torsions:
REMARK  status: ('A' for Active; 'I' for Inactive)
REMARK    1  A    between atoms: C_1  and  C_2
REMARK    2  A    between atoms: C_2  and  C_4
REMARK    3  A    between atoms: C_4  and  O_40
REMARK    4  A    between atoms: C_9  and  C_39
REMARK    5  A    between atoms: N_21  and  O_22
REMARK    6  A    between atoms: O_22  and  C_23
REMARK    7  A    between atoms: C_23  and  C_24
REMARK    8  A    between atoms: N_26  and  CA_27
REMARK    9  A    between atoms: CA_27  and  CB_29
REMARK   10  A    between atoms: CA_27  and  C_33
REMARK   11  A    between atoms: CB_29  and  CG_30
REMARK   12  A    between atoms: C_37  and  C_38
REMARK                            x       y       z     vdW  Elec       q    Type
REMARK                         _______ _______ _______ _____ _____    ______ ____
ROOT
ATOM      1  C   UNK A   0       2.249  -0.337 -14.453  0.00  0.00    +0.129 C 
ATOM      2  C   UNK A   0       1.228   0.552 -15.206  0.00  0.00    +0.043 C 
ATOM      3  C   UNK A   0      -0.021   0.685 -14.280  0.00  0.00    +0.008 C 
ATOM      4  C   UNK A   0       0.561   0.396 -12.892  0.00  0.00    +0.002 C 
ATOM      5  C   UNK A   0       1.538  -0.776 -13.178  0.00  0.00    +0.007 C 
ATOM      6  C   UNK A   0       2.401  -0.949 -11.943  0.00  0.00    +0.010 C 
ATOM      7  C   UNK A   0       1.473  -1.389 -10.799  0.00  0.00    +0.005 C 
ATOM      8  C   UNK A   0       0.345  -0.391 -10.558  0.00  0.00    +0.002 C 
ATOM      9  C   UNK A   0      -0.429  -0.090 -11.850  0.00  0.00    -0.003 C 
ATOM     10  C   UNK A   0      -1.463   1.004 -11.568  0.00  0.00    +0.008 C 
ATOM     11  C   UNK A   0      -2.504   0.469 -10.583  0.00  0.00    +0.031 C 
ATOM     12  C   UNK A   0      -1.790  -0.033  -9.341  0.00  0.00    -0.062 C 
ATOM     13  C   UNK A   0      -2.253   0.365  -8.161  0.00  0.00    +0.026 C 
ATOM     14  C   UNK A   0      -1.610  -0.103  -6.921  0.00  0.00    +0.080 C 
ATOM     15  N   UNK A   0      -1.737   0.538  -5.802  0.00  0.00    -0.089 NA
ATOM     16  C   UNK A   0      -0.786  -1.372  -7.026  0.00  0.00    +0.059 C 
ATOM     17  C   UNK A   0       0.147  -1.217  -8.221  0.00  0.00    +0.017 C 
ATOM     18  C   UNK A   0      -0.619  -0.951  -9.505  0.00  0.00    -0.007 C 
ATOM     19  C   UNK A   0      -1.141  -2.297 -10.013  0.00  0.00    +0.016 C 
ATOM     20  C   UNK A   0       0.746  -2.059 -13.441  0.00  0.00    +0.015 C 
ENDROOT
BRANCH   1  22
ATOM     21  C   UNK A   0       3.892  -2.285 -15.016  0.00  0.00    +0.089 C 
ATOM     22  C   UNK A   0       2.612  -1.537 -15.288  0.00  0.00    +0.162 C 
ATOM     23  O   UNK A   0       1.878  -1.900 -16.176  0.00  0.00    -0.295 OA
ENDBRANCH   1  22
BRANCH   1  24
ATOM     24  O   UNK A   0       3.421   0.415 -14.133  0.00  0.00    -0.381 OA
ATOM     25  H   UNK A   0       3.915   0.722 -14.905  0.00  0.00    +0.211 HD
ENDBRANCH   1  24
BRANCH  15  26
ATOM     26  O   UNK A   0      -1.102   0.053  -4.633  0.00  0.00    -0.384 OA
BRANCH  26  27
ATOM     27  C   UNK A   0      -1.327   0.858  -3.474  0.00  0.00    +0.358 C 
BRANCH  27  28
ATOM     28  C   UNK A   0      -0.609   0.253  -2.295  0.00  0.00    +0.254 C 
ATOM     29  O   UNK A   0       0.033  -0.767  -2.434  0.00  0.00    -0.272 OA
ATOM     30  N   ASN A   1      -0.679   0.845  -1.086  0.00  0.00    -0.299 N 
ATOM     31  H   ASN A   1      -1.192   1.661  -0.975  0.00  0.00    +0.150 HD
BRANCH  30  32
ATOM     32  CA  ASN A   1       0.019   0.257   0.059  0.00  0.00    +0.195 C 
BRANCH  32  33
ATOM     33  C   ASN A   1       1.450   0.728   0.072  0.00  0.00    +0.376 C 
ATOM     34  O   ASN A   1       1.846   1.479  -0.788  0.00  0.00    -0.244 OA
ATOM     35  OXT ASN A   1       2.285   0.315   1.039  0.00  0.00    -0.244 OA
ENDBRANCH  32  33
BRANCH  32  36
ATOM     36  CB  ASN A   1      -0.672   0.689   1.354  0.00  0.00    +0.129 C 
BRANCH  36  37
ATOM     37  CG  ASN A   1      -2.064   0.113   1.397  0.00  0.00    +0.213 C 
ATOM     38  OD1 ASN A   1      -2.464  -0.575   0.482  0.00  0.00    -0.276 OA
ATOM     39  ND2 ASN A   1      -2.864   0.362   2.452  0.00  0.00    -0.329 N 
ATOM     40 HD21 ASN A   1      -2.544   0.913   3.184  0.00  0.00    +0.145 HD
ATOM     41 HD22 ASN A   1      -3.760  -0.008   2.480  0.00  0.00    +0.145 HD
ENDBRANCH  36  37
ENDBRANCH  32  36
ENDBRANCH  30  32
ENDBRANCH  27  28
ENDBRANCH  26  27
ENDBRANCH  15  26
TORSDOF 9
