REMARK  Name = ZINC05201143
REMARK  6 active torsions:
REMARK  status: ('A' for Active; 'I' for Inactive)
REMARK    1  A    between atoms: C_1  and  C_2
REMARK    2  A    between atoms: C_8  and  C_27
REMARK    3  A    between atoms: C_8  and  C_28
REMARK    4  A    between atoms: C_9  and  C_16
REMARK    5  A    between atoms: C_17  and  C_18
REMARK    6  A    between atoms: C_22  and  N_24
REMARK                            x       y       z     vdW  Elec       q    Type
REMARK                         _______ _______ _______ _____ _____    ______ ____
ROOT
ATOM      1  C   UNL     1       4.269   4.257   0.637  0.00  0.00    +0.044 C 
ATOM      2  C   UNL     1       3.501   3.016   0.260  0.00  0.00    -0.050 A 
ATOM      3  C   UNL     1       4.190   1.901  -0.173  0.00  0.00    +0.005 A 
ATOM      4  C   UNL     1       3.539   0.735  -0.542  0.00  0.00    +0.024 A 
ATOM      5  C   UNL     1       2.146   0.724  -0.463  0.00  0.00    +0.035 A 
ATOM      6  C   UNL     1       1.456   1.862  -0.002  0.00  0.00    -0.016 A 
ATOM      7  C   UNL     1       2.114   3.019   0.355  0.00  0.00    +0.009 A 
ATOM      8  C   UNL     1      -0.019   1.539   0.011  0.00  0.00    +0.034 C 
ATOM      9  C   UNL     1       0.002  -0.004   0.002  0.00  0.00    +0.130 C 
ATOM     10  N   UNL     1       1.248  -0.262  -0.778  0.00  0.00    -0.304 N 
ATOM     11  C   UNL     1       1.620  -1.654  -0.674  0.00  0.00    +0.117 C 
ATOM     12  C   UNL     1       0.428  -2.559  -0.984  0.00  0.00    +0.115 C 
ATOM     13  C   UNL     1      -0.814  -1.797  -1.340  0.00  0.00    +0.216 C 
ATOM     14  O   UNL     1      -1.604  -2.288  -2.119  0.00  0.00    -0.276 OA
ATOM     15  N   UNL     1      -1.080  -0.573  -0.813  0.00  0.00    -0.290 N 
ATOM     16  C   UNL     1      -0.710   2.085  -1.240  0.00  0.00    +0.020 C 
ATOM     17  C   UNL     1      -0.686   2.071   1.280  0.00  0.00    +0.020 C 
ATOM     18  H   UNL     1      -1.919  -0.110  -0.964  0.00  0.00    +0.151 HD
ENDROOT
BRANCH   9  19
ATOM     19  C   UNL     1       0.046  -0.590   1.390  0.00  0.00    +0.020 C 
ATOM     20  C   UNL     1      -0.926  -1.390   1.803  0.00  0.00    +0.007 C 
BRANCH  20  21
ATOM     21  C   UNL     1      -0.883  -1.964   3.164  0.00  0.00    -0.023 A 
ATOM     22  C   UNL     1       0.184  -1.671   4.015  0.00  0.00    +0.008 A 
ATOM     23  C   UNL     1       0.216  -2.206   5.286  0.00  0.00    +0.003 A 
ATOM     24  C   UNL     1      -0.801  -3.041   5.714  0.00  0.00    +0.033 A 
ATOM     25  C   UNL     1      -1.858  -3.340   4.874  0.00  0.00    +0.127 A 
ATOM     26  C   UNL     1      -1.905  -2.806   3.602  0.00  0.00    +0.040 A 
BRANCH  25  27
ATOM     27  N   UNL     1      -2.942  -4.234   5.340  0.00  0.00    +0.056 N 
ATOM     28  O   UNL     1      -3.874  -4.498   4.602  0.00  0.00    -0.126 OA
ATOM     29  O   UNL     1      -2.902  -4.705   6.463  0.00  0.00    -0.126 OA
ENDBRANCH  25  27
ENDBRANCH  20  21
ENDBRANCH   9  19
TORSDOF 3
