REMARK  Name = ZINC64046639
REMARK  5 active torsions:
REMARK  status: ('A' for Active; 'I' for Inactive)
REMARK    1  A    between atoms: C_7  and  C_10
REMARK    2  A    between atoms: C_10  and  C_12
REMARK    3  A    between atoms: C_10  and  C_26
REMARK    4  A    between atoms: C_12  and  N_13
REMARK    5  A    between atoms: C_14  and  C_16
REMARK                            x       y       z     vdW  Elec       q    Type
REMARK                         _______ _______ _______ _____ _____    ______ ____
ROOT
ATOM      1  C   UNL     1       0.691  -3.186  -0.024  0.00  0.00    +0.071 C 
ENDROOT
BRANCH   1   8
ATOM      2  C   UNL     1      -0.016   1.348   0.009  0.00  0.00    +0.001 A 
ATOM      3  C   UNL     1       1.166   2.101   0.002  0.00  0.00    +0.002 A 
ATOM      4  C   UNL     1       2.391   1.535  -0.013  0.00  0.00    +0.026 A 
ATOM      5  C   UNL     1       2.529   0.120  -0.022  0.00  0.00    +0.043 A 
ATOM      6  N   UNL     1       3.587  -0.654  -0.037  0.00  0.00    -0.380 N 
ATOM      7  C   UNL     1       3.143  -2.053  -0.041  0.00  0.00    +0.145 C 
ATOM      8  C   UNL     1       1.631  -2.008  -0.025  0.00  0.00    -0.032 C 
ATOM      9  C   UNL     1       1.295  -0.698  -0.014  0.00  0.00    -0.000 A 
ATOM     10  C   UNL     1       0.002  -0.004   0.002  0.00  0.00    +0.010 A 
ATOM     11  H   UNL     1       4.509  -0.353  -0.045  0.00  0.00    +0.160 HD
ENDBRANCH   1   8
BRANCH   1  12
ATOM     12  C   UNL     1       0.920  -4.014  -1.262  0.00  0.00    -0.002 A 
ATOM     13  C   UNL     1       0.053  -4.316  -2.259  0.00  0.00    +0.012 A 
ATOM     14  C   UNL     1       0.488  -5.102  -3.310  0.00  0.00    +0.008 A 
ATOM     15  C   UNL     1       1.769  -5.546  -3.312  0.00  0.00    +0.045 A 
ATOM     16  S   UNL     1       2.406  -4.845  -1.799  0.00  0.00    -0.101 S 
ENDBRANCH   1  12
BRANCH   1  17
ATOM     17  C   UNL     1       0.947  -4.042   1.218  0.00  0.00    +0.117 C 
BRANCH  17  18
ATOM     18  N   UNL     1      -0.044  -5.118   1.282  0.00  0.00    -0.310 N 
ATOM     19  C   UNL     1      -0.013  -6.003   2.298  0.00  0.00    +0.244 C 
ATOM     20  O   UNL     1       0.838  -5.909   3.161  0.00  0.00    -0.270 OA
ATOM     21  H   UNL     1      -0.723  -5.194   0.593  0.00  0.00    +0.149 HD
BRANCH  19  22
ATOM     22  C   UNL     1      -1.013  -7.088   2.363  0.00  0.00    +0.042 A 
ATOM     23  C   UNL     1      -0.986  -8.003   3.419  0.00  0.00    +0.062 A 
ATOM     24  C   UNL     1      -1.922  -9.016   3.476  0.00  0.00    +0.168 A 
ATOM     25  C   UNL     1      -2.894  -9.126   2.481  0.00  0.00    +0.184 A 
ATOM     26  C   UNL     1      -2.921  -8.216   1.432  0.00  0.00    +0.087 A 
ATOM     27  C   UNL     1      -1.991  -7.198   1.372  0.00  0.00    +0.037 A 
ATOM     28 CL   UNL     1      -4.131  -8.355   0.196  0.00  0.00    -0.080 Cl
ATOM     29  O   UNL     1      -3.689 -10.196   2.765  0.00  0.00    -0.451 OA
ATOM     30  C   UNL     1      -2.950 -10.984   3.717  0.00  0.00    +0.466 C 
ATOM     31  O   UNL     1      -2.112 -10.020   4.382  0.00  0.00    -0.453 OA
ENDBRANCH  19  22
ENDBRANCH  17  18
ENDBRANCH   1  17
TORSDOF 5
