REMARK  Name = ZINC35697999
REMARK  12 active torsions:
REMARK  status: ('A' for Active; 'I' for Inactive)
REMARK    1  A    between atoms: C_1  and  C_2
REMARK    2  A    between atoms: C_2  and  N_3
REMARK    3  A    between atoms: N_3  and  C_4
REMARK    4  A    between atoms: C_4  and  C_5
REMARK    5  A    between atoms: C_6  and  C_8
REMARK    6  A    between atoms: C_9  and  C_38
REMARK    7  A    between atoms: C_13  and  C_15
REMARK    8  A    between atoms: C_18  and  N_21
REMARK    9  A    between atoms: C_24  and  C_27
REMARK   10  A    between atoms: C_28  and  N_30
REMARK   11  A    between atoms: N_30  and  C_31
REMARK   12  A    between atoms: C_31  and  C_32
REMARK                            x       y       z     vdW  Elec       q    Type
REMARK                         _______ _______ _______ _____ _____    ______ ____
ROOT
ATOM      1  C   UNL     1       3.073  -0.821   2.204  0.00  0.00    +0.060 C 
ATOM      2  C   UNL     1       4.358  -1.312   2.313  0.00  0.00    +0.051 C 
ATOM      3  N   UNL     1       4.838  -1.680   3.491  0.00  0.00    -0.230 NA
ATOM      4  C   UNL     1       4.172  -1.617   4.626  0.00  0.00    +0.166 C 
ATOM      5  N   UNL     1       2.888  -1.161   4.733  0.00  0.00    -0.267 N 
ATOM      6  C   UNL     1       2.248  -0.714   3.467  0.00  0.00    +0.148 C 
ATOM      7  C   UNL     1       2.328  -1.157   5.995  0.00  0.00    +0.048 C 
ATOM      8  C   UNL     1       3.087  -1.602   7.020  0.00  0.00    +0.072 C 
ATOM      9  S   UNL     1       4.606  -2.031   6.194  0.00  0.00    -0.060 S 
ATOM     10  C   UNL     1       5.221  -1.432   1.084  0.00  0.00    +0.066 C 
ENDROOT
BRANCH   6  11
ATOM     11  C   UNL     1       1.837   0.726   3.632  0.00  0.00    -0.022 A 
ATOM     12  C   UNL     1       2.761   1.664   4.054  0.00  0.00    +0.008 A 
ATOM     13  C   UNL     1       2.384   2.986   4.206  0.00  0.00    +0.033 A 
ATOM     14  C   UNL     1       1.084   3.369   3.936  0.00  0.00    +0.126 A 
ATOM     15  C   UNL     1       0.160   2.431   3.513  0.00  0.00    +0.033 A 
ATOM     16  C   UNL     1       0.538   1.111   3.357  0.00  0.00    +0.008 A 
BRANCH  14  17
ATOM     17  N   UNL     1       0.680   4.784   4.099  0.00  0.00    +0.056 N 
ATOM     18  O   UNL     1       1.488   5.604   4.470  0.00  0.00    -0.126 OA
ATOM     19  O   UNL     1      -0.457   5.119   3.863  0.00  0.00    -0.126 OA
ENDBRANCH  14  17
ENDBRANCH   6  11
BRANCH   1  21
ATOM     20  N   UNL     1       2.011  -1.346   0.137  0.00  0.00    -0.298 N 
ATOM     21  C   UNL     1       2.551  -0.428   0.962  0.00  0.00    +0.246 C 
ATOM     22  O   UNL     1       2.586   0.745   0.630  0.00  0.00    -0.270 OA
BRANCH  20  24
ATOM     23  C   UNL     1       0.082  -0.528  -1.124  0.00  0.00    +0.024 C 
ATOM     24  C   UNL     1       1.550  -0.952  -1.197  0.00  0.00    +0.104 C 
ENDBRANCH  20  24
BRANCH  20  25
ATOM     25  C   UNL     1       1.886  -2.739   0.573  0.00  0.00    +0.104 C 
ATOM     26  C   UNL     1       3.093  -3.539   0.080  0.00  0.00    +0.024 C 
ENDBRANCH  20  25
ENDBRANCH   1  21
BRANCH   7  27
ATOM     27  C   UNL     1       0.953  -0.684   6.215  0.00  0.00    +0.091 C 
ATOM     28  C   UNL     1       0.479  -0.552   7.469  0.00  0.00    +0.239 C 
ATOM     29  O   UNL     1       1.308  -0.724   8.528  0.00  0.00    -0.271 OA
BRANCH  28  30
ATOM     30  N   UNL     1      -0.854  -0.242   7.676  0.00  0.00    -0.309 N 
ATOM     31  H   UNL     1      -1.463  -0.191   6.923  0.00  0.00    +0.149 HD
BRANCH  30  32
ATOM     32  C   UNL     1      -1.345   0.011   9.033  0.00  0.00    +0.136 C 
BRANCH  32  33
ATOM     33  C   UNL     1      -2.862   0.206   8.998  0.00  0.00    +0.135 C 
ATOM     34  C   UNL     1      -3.373   0.591  10.403  0.00  0.00    +0.035 C 
ATOM     35  C   UNL     1      -4.707  -0.199  10.498  0.00  0.00    +0.031 C 
ATOM     36  C   UNL     1      -4.350  -1.474   9.694  0.00  0.00    +0.160 C 
ATOM     37  O   UNL     1      -3.502  -1.020   8.625  0.00  0.00    -0.375 OA
ENDBRANCH  32  33
ENDBRANCH  30  32
ENDBRANCH  28  30
ENDBRANCH   7  27
TORSDOF 9
