REMARK  Name = ZINC58832467
REMARK  7 active torsions:
REMARK  status: ('A' for Active; 'I' for Inactive)
REMARK    1  A    between atoms: C_1  and  C_2
REMARK    2  A    between atoms: C_6  and  N_8
REMARK    3  A    between atoms: C_12  and  C_13
REMARK    4  A    between atoms: C_16  and  C_18
REMARK    5  A    between atoms: C_21  and  C_27
REMARK    6  A    between atoms: C_23  and  N_24
REMARK    7  A    between atoms: C_37  and  C_39
REMARK                            x       y       z     vdW  Elec       q    Type
REMARK                         _______ _______ _______ _____ _____    ______ ____
ROOT
ATOM      1  C   UNL     1       0.125  -6.849   3.767  0.00  0.00    +0.129 A 
ATOM      2  C   UNL     1       0.143  -8.154   4.243  0.00  0.00    +0.050 A 
ATOM      3  C   UNL     1       0.157  -8.989   3.129  0.00  0.00    +0.050 A 
ATOM      4  C   UNL     1       0.147  -8.176   2.014  0.00  0.00    +0.138 A 
ATOM      5  O   UNL     1       0.121  -6.894   2.417  0.00  0.00    -0.455 OA
ENDROOT
BRANCH   1  10
ATOM      6  N   UNL     1       0.050  -2.798   2.394  0.00  0.00    -0.156 N 
ATOM      7  C   UNL     1       0.074  -4.142   2.501  0.00  0.00    +0.272 C 
ATOM      8  O   UNL     1       0.086  -4.950   1.588  0.00  0.00    -0.268 OA
ATOM      9  C   UNL     1       0.083  -4.435   3.939  0.00  0.00    +0.065 C 
ATOM     10  C   UNL     1       0.106  -5.688   4.550  0.00  0.00    +0.061 C 
ATOM     11  C   UNL     1       0.061  -3.122   4.595  0.00  0.00    +0.069 C 
ATOM     12  N   UNL     1       0.049  -2.217   3.662  0.00  0.00    -0.177 NA
ATOM     13  C   UNL     1       0.060  -2.868   6.080  0.00  0.00    +0.068 C 
BRANCH   6  19
ATOM     14  C   UNL     1      -0.018   1.503   0.010  0.00  0.00    +0.044 C 
ATOM     15  C   UNL     1       0.002  -0.004   0.002  0.00  0.00    -0.049 A 
ATOM     16  C   UNL     1       0.006  -0.688  -1.200  0.00  0.00    +0.003 A 
ATOM     17  C   UNL     1       0.024  -2.071  -1.212  0.00  0.00    +0.002 A 
ATOM     18  C   UNL     1       0.039  -2.773  -0.022  0.00  0.00    +0.025 A 
ATOM     19  C   UNL     1       0.035  -2.089   1.186  0.00  0.00    +0.061 A 
ATOM     20  C   UNL     1       0.023  -0.700   1.194  0.00  0.00    +0.028 A 
ENDBRANCH   6  19
ENDBRANCH   1  10
BRANCH   4  21
ATOM     21  C   UNL     1       0.156  -8.637   0.612  0.00  0.00    +0.047 A 
ATOM     22  C   UNL     1       1.094  -9.585   0.191  0.00  0.00    +0.014 A 
ATOM     23  C   UNL     1       1.097 -10.011  -1.120  0.00  0.00    +0.005 A 
ATOM     24  C   UNL     1       0.174  -9.502  -2.019  0.00  0.00    -0.039 A 
ATOM     25  C   UNL     1      -0.757  -8.564  -1.609  0.00  0.00    +0.037 A 
ATOM     26  C   UNL     1      -0.775  -8.133  -0.299  0.00  0.00    +0.137 A 
BRANCH  24  27
ATOM     27  C   UNL     1       0.185  -9.973  -3.450  0.00  0.00    -0.003 C 
ATOM     28  C   UNL     1       0.426  -8.780  -4.378  0.00  0.00    +0.015 C 
ATOM     29  C   UNL     1       0.436  -9.257  -5.831  0.00  0.00    -0.010 C 
ATOM     30  C   UNL     1       1.553 -10.285  -6.022  0.00  0.00    +0.007 C 
ATOM     31  C   UNL     1       1.312 -11.478  -5.095  0.00  0.00    -0.010 C 
ATOM     32  C   UNL     1       1.302 -11.001  -3.642  0.00  0.00    +0.015 C 
ATOM     33  C   UNL     1      -0.035 -12.121  -5.431  0.00  0.00    +0.007 C 
ATOM     34  C   UNL     1      -1.152 -11.093  -5.239  0.00  0.00    -0.010 C 
ATOM     35  C   UNL     1      -0.911  -9.900  -6.167  0.00  0.00    +0.007 C 
ATOM     36  C   UNL     1      -1.163 -10.616  -3.786  0.00  0.00    +0.015 C 
ENDBRANCH  24  27
BRANCH  26  37
ATOM     37  N   UNL     1      -1.777  -7.134   0.139  0.00  0.00    +0.057 N 
ATOM     38  O   UNL     1      -2.582  -6.699  -0.650  0.00  0.00    -0.126 OA
ATOM     39  O   UNL     1      -1.789  -6.754   1.287  0.00  0.00    -0.126 OA
ENDBRANCH  26  37
ENDBRANCH   4  21
TORSDOF 5
