REMARK  Name = ZINC01205833
REMARK  10 active torsions:
REMARK  status: ('A' for Active; 'I' for Inactive)
REMARK    1  A    between atoms: C_1  and  C_2
REMARK    2  A    between atoms: C_2  and  C_3
REMARK    3  A    between atoms: C_3  and  N_4
REMARK    4  A    between atoms: C_5  and  C_16
REMARK    5  A    between atoms: C_19  and  O_33
REMARK    6  A    between atoms: C_20  and  C_22
REMARK    7  A    between atoms: C_22  and  O_23
REMARK    8  A    between atoms: O_23  and  C_24
REMARK    9  A    between atoms: C_27  and  N_30
REMARK   10  A    between atoms: O_33  and  C_34
REMARK                            x       y       z     vdW  Elec       q    Type
REMARK                         _______ _______ _______ _____ _____    ______ ____
ROOT
ATOM      1  C   UNL     1      -2.830  -2.990  -1.693  0.00  0.00    -0.009 A 
ATOM      2  C   UNL     1      -3.843  -2.125  -1.321  0.00  0.00    +0.010 A 
ATOM      3  C   UNL     1      -5.145  -2.379  -1.703  0.00  0.00    +0.046 A 
ATOM      4  C   UNL     1      -5.437  -3.504  -2.462  0.00  0.00    +0.126 A 
ATOM      5  C   UNL     1      -4.419  -4.370  -2.834  0.00  0.00    +0.032 A 
ATOM      6  C   UNL     1      -3.117  -4.108  -2.453  0.00  0.00    +0.017 A 
ENDROOT
BRANCH   1   8
ATOM      7  N   UNL     1      -1.413  -1.998   0.005  0.00  0.00    -0.275 N 
ATOM      8  C   UNL     1      -1.410  -2.709  -1.274  0.00  0.00    +0.193 C 
ATOM      9  N   UNL     1      -0.684  -3.979  -1.148  0.00  0.00    -0.321 N 
ATOM     10  C   UNL     1      -0.925  -4.774  -0.032  0.00  0.00    +0.041 A 
ATOM     11  C   UNL     1      -0.809  -6.152  -0.075  0.00  0.00    +0.024 A 
ATOM     12  C   UNL     1      -1.062  -6.896   1.062  0.00  0.00    +0.002 A 
ATOM     13  C   UNL     1      -1.431  -6.272   2.243  0.00  0.00    +0.001 A 
ATOM     14  C   UNL     1      -1.550  -4.899   2.304  0.00  0.00    +0.015 A 
ATOM     15  C   UNL     1      -1.296  -4.138   1.166  0.00  0.00    +0.058 A 
ATOM     16  C   UNL     1      -1.393  -2.667   1.177  0.00  0.00    +0.250 C 
ATOM     17  O   UNL     1      -1.459  -2.063   2.230  0.00  0.00    -0.270 OA
ATOM     18  H   UNL     1      -0.051  -4.258  -1.827  0.00  0.00    +0.148 HD
BRANCH   7  19
ATOM     19  C   UNL     1      -1.433  -0.534   0.013  0.00  0.00    +0.110 C 
BRANCH  19  21
ATOM     20  C   UNL     1      -0.019   1.526   0.010  0.00  0.00    +0.005 C 
ATOM     21  C   UNL     1       0.002  -0.004   0.002  0.00  0.00    +0.016 C 
ENDBRANCH  19  21
ENDBRANCH   7  19
ENDBRANCH   1   8
BRANCH   4  22
ATOM     22  O   UNL     1      -6.718  -3.757  -2.839  0.00  0.00    -0.495 OA
ATOM     23  C   UNL     1      -7.715  -2.823  -2.419  0.00  0.00    +0.277 C 
ENDBRANCH   4  22
BRANCH   5  24
ATOM     24  C   UNL     1      -4.733  -5.592  -3.658  0.00  0.00    +0.268 C 
BRANCH  24  25
ATOM     25  O   UNL     1      -3.528  -6.318  -3.910  0.00  0.00    -0.487 OA
BRANCH  25  26
ATOM     26  C   UNL     1      -3.636  -7.456  -4.645  0.00  0.00    +0.121 A 
ATOM     27  C   UNL     1      -4.875  -7.862  -5.119  0.00  0.00    +0.048 A 
ATOM     28  C   UNL     1      -4.982  -9.019  -5.867  0.00  0.00    +0.036 A 
ATOM     29  C   UNL     1      -3.855  -9.771  -6.143  0.00  0.00    +0.126 A 
ATOM     30  C   UNL     1      -2.619  -9.369  -5.671  0.00  0.00    +0.036 A 
ATOM     31  C   UNL     1      -2.506  -8.210  -4.928  0.00  0.00    +0.048 A 
BRANCH  29  32
ATOM     32  N   UNL     1      -3.973 -11.010  -6.944  0.00  0.00    +0.056 N 
ATOM     33  O   UNL     1      -5.053 -11.363  -7.357  0.00  0.00    -0.126 OA
ATOM     34  O   UNL     1      -2.988 -11.669  -7.186  0.00  0.00    -0.126 OA
ENDBRANCH  29  32
ENDBRANCH  25  26
ENDBRANCH  24  25
ENDBRANCH   5  24
TORSDOF 8
