REMARK  Name = ZINC01195429
REMARK  4 active torsions:
REMARK  status: ('A' for Active; 'I' for Inactive)
REMARK    1  A    between atoms: C_4  and  C_7
REMARK    2  A    between atoms: N_9  and  N_10
REMARK    3  A    between atoms: N_10  and  C_11
REMARK    4  A    between atoms: C_22  and  C_24
REMARK                            x       y       z     vdW  Elec       q    Type
REMARK                         _______ _______ _______ _____ _____    ______ ____
ROOT
ATOM      1  C   UNL     1       0.036   1.391  -2.522  0.00  0.00    +0.193 C 
ATOM      2  C   UNL     1      -0.807   1.587  -1.255  0.00  0.00    +0.073 C 
ATOM      3  C   UNL     1      -0.079   1.075  -0.010  0.00  0.00    +0.013 C 
ATOM      4  C   UNL     1      -0.826   1.569   1.233  0.00  0.00    +0.001 C 
ATOM      5  C   UNL     1      -0.777   3.091   1.335  0.00  0.00    +0.006 C 
ATOM      6  C   UNL     1      -1.502   3.729   0.139  0.00  0.00    +0.053 C 
ATOM      7  C   UNL     1      -0.921   3.097  -1.109  0.00  0.00    +0.043 C 
ATOM      8  N   UNL     1      -0.404   3.662  -2.111  0.00  0.00    -0.184 NA
ATOM      9  N   UNL     1       0.179   2.787  -3.030  0.00  0.00    -0.170 N 
ATOM     10  C   UNL     1       0.766   3.142  -4.189  0.00  0.00    +0.267 C 
ATOM     11  O   UNL     1       1.327   2.303  -4.869  0.00  0.00    -0.268 OA
ENDROOT
BRANCH  10  12
ATOM     12  C   UNL     1       0.730   4.550  -4.636  0.00  0.00    +0.039 A 
ATOM     13  C   UNL     1       0.195   5.536  -3.804  0.00  0.00    +0.013 A 
ATOM     14  C   UNL     1       0.169   6.849  -4.225  0.00  0.00    +0.001 A 
ATOM     15  C   UNL     1       0.661   7.189  -5.473  0.00  0.00    +0.000 A 
ATOM     16  C   UNL     1       1.187   6.216  -6.304  0.00  0.00    +0.001 A 
ATOM     17  C   UNL     1       1.225   4.900  -5.894  0.00  0.00    +0.013 A 
ENDBRANCH  10  12
BRANCH   1  18
ATOM     18  N   UNL     1       1.347   0.818  -2.189  0.00  0.00    -0.217 NA
ATOM     19  H   UNL     1       2.006   1.542  -1.944  0.00  0.00    +0.146 HD
BRANCH  18  22
ATOM     20  C   UNL     1       3.016  -0.562  -3.102  0.00  0.00    +0.258 C 
ATOM     21  O   UNL     1       3.671  -0.434  -2.086  0.00  0.00    -0.269 OA
ATOM     22  N   UNL     1       1.822   0.052  -3.215  0.00  0.00    -0.245 N 
ATOM     23  H   UNL     1       1.299  -0.051  -4.026  0.00  0.00    +0.169 HD
BRANCH  20  27
ATOM     24  C   UNL     1       4.492  -2.946  -6.293  0.00  0.00    +0.000 A 
ATOM     25  C   UNL     1       5.240  -2.802  -5.138  0.00  0.00    +0.001 A 
ATOM     26  C   UNL     1       4.766  -2.029  -4.098  0.00  0.00    +0.013 A 
ATOM     27  C   UNL     1       3.530  -1.392  -4.212  0.00  0.00    +0.038 A 
ATOM     28  C   UNL     1       2.778  -1.546  -5.378  0.00  0.00    +0.013 A 
ATOM     29  C   UNL     1       3.265  -2.317  -6.413  0.00  0.00    +0.001 A 
ENDBRANCH  20  27
ENDBRANCH  18  22
ENDBRANCH   1  18
TORSDOF 4
