REMARK  Name = ZINC39855037
REMARK  6 active torsions:
REMARK  status: ('A' for Active; 'I' for Inactive)
REMARK    1  A    between atoms: C_1  and  C_2
REMARK    2  A    between atoms: C_2  and  C_35
REMARK    3  A    between atoms: C_7  and  C_20
REMARK    4  A    between atoms: N_22  and  N_23
REMARK    5  A    between atoms: C_24  and  C_26
REMARK    6  A    between atoms: C_29  and  N_32
REMARK                            x       y       z     vdW  Elec       q    Type
REMARK                         _______ _______ _______ _____ _____    ______ ____
ROOT
ATOM      1  C   UNL     1      -0.019   1.526   0.010  0.00  0.00    +0.013 C 
ATOM      2  C   UNL     1       0.002  -0.004   0.002  0.00  0.00    -0.007 C 
ATOM      3  C   UNL     1       1.030  -0.582  -1.039  0.00  0.00    +0.047 C 
ATOM      4  C   UNL     1       0.959  -2.102  -0.688  0.00  0.00    +0.012 C 
ATOM      5  C   UNL     1       0.763  -2.125   0.847  0.00  0.00    +0.024 C 
ATOM      6  C   UNL     1       0.750  -0.599   1.252  0.00  0.00    +0.098 C 
ATOM      7  C   UNL     1       2.170  -0.101   0.974  0.00  0.00    +0.079 A 
ATOM      8  C   UNL     1       2.341  -0.091  -0.420  0.00  0.00    +0.068 A 
ATOM      9  N   UNL     1       3.471   0.292  -0.954  0.00  0.00    -0.248 NA
ATOM     10  C   UNL     1       4.476   0.682  -0.160  0.00  0.00    +0.091 A 
ATOM     11  C   UNL     1       5.705   1.100  -0.701  0.00  0.00    +0.051 A 
ATOM     12  C   UNL     1       6.709   1.494   0.130  0.00  0.00    +0.061 A 
ATOM     13  C   UNL     1       6.538   1.488   1.516  0.00  0.00    +0.061 A 
ATOM     14  C   UNL     1       5.362   1.087   2.074  0.00  0.00    +0.051 A 
ATOM     15  C   UNL     1       4.304   0.674   1.248  0.00  0.00    +0.091 A 
ATOM     16  N   UNL     1       3.137   0.275   1.770  0.00  0.00    -0.247 NA
ATOM     17 CL   UNL     1       7.843   1.998   2.542  0.00  0.00    -0.082 Cl
ATOM     18 CL   UNL     1       8.223   2.010  -0.543  0.00  0.00    -0.082 Cl
ATOM     19  C   UNL     1      -1.399  -0.594  -0.172  0.00  0.00    +0.013 C 
ENDROOT
BRANCH   6  20
ATOM     20  C   UNL     1       0.166  -0.274   2.603  0.00  0.00    +0.242 C 
ATOM     21  O   UNL     1      -0.830   0.414   2.684  0.00  0.00    -0.273 OA
ATOM     22  N   UNL     1       0.751  -0.747   3.721  0.00  0.00    -0.233 N 
ATOM     23  H   UNL     1       1.548  -1.297   3.656  0.00  0.00    +0.173 HD
BRANCH  22  24
ATOM     24  N   UNL     1       0.209  -0.445   4.977  0.00  0.00    -0.230 N 
ATOM     25  C   UNL     1       0.794  -0.919   6.095  0.00  0.00    +0.260 C 
ATOM     26  O   UNL     1       1.792  -1.608   6.013  0.00  0.00    -0.269 OA
ATOM     27  H   UNL     1      -0.588   0.104   5.042  0.00  0.00    +0.173 HD
BRANCH  25  28
ATOM     28  C   UNL     1       0.222  -0.600   7.420  0.00  0.00    +0.038 A 
ATOM     29  C   UNL     1      -0.927   0.186   7.517  0.00  0.00    +0.015 A 
ATOM     30  C   UNL     1      -1.457   0.479   8.757  0.00  0.00    +0.033 A 
ATOM     31  C   UNL     1      -0.850  -0.004   9.903  0.00  0.00    +0.126 A 
ATOM     32  C   UNL     1       0.289  -0.784   9.814  0.00  0.00    +0.033 A 
ATOM     33  C   UNL     1       0.825  -1.089   8.580  0.00  0.00    +0.015 A 
BRANCH  31  34
ATOM     34  N   UNL     1      -1.423   0.315  11.230  0.00  0.00    +0.056 N 
ATOM     35  O   UNL     1      -2.418   0.997  11.311  0.00  0.00    -0.126 OA
ATOM     36  O   UNL     1      -0.895  -0.105  12.233  0.00  0.00    -0.126 OA
ENDBRANCH  31  34
ENDBRANCH  25  28
ENDBRANCH  22  24
ENDBRANCH   6  20
TORSDOF 4
