REMARK  Name = ZINC59168924
REMARK  5 active torsions:
REMARK  status: ('A' for Active; 'I' for Inactive)
REMARK    1  A    between atoms: C_4  and  C_7
REMARK    2  A    between atoms: C_7  and  C_8
REMARK    3  A    between atoms: N_12  and  N_13
REMARK    4  A    between atoms: N_21  and  C_24
REMARK    5  A    between atoms: C_24  and  C_25
REMARK                            x       y       z     vdW  Elec       q    Type
REMARK                         _______ _______ _______ _____ _____    ______ ____
ROOT
ATOM      1  N   UNL     1       6.295  -2.110   0.804  0.00  0.00    -0.158 NA
ATOM      2  C   UNL     1       7.394  -2.631   1.294  0.00  0.00    +0.156 C 
ATOM      3  C   UNL     1       7.734  -2.843   2.720  0.00  0.00    +0.029 A 
ATOM      4  C   UNL     1       7.061  -2.583   3.908  0.00  0.00    +0.012 A 
ATOM      5  C   UNL     1       7.652  -2.901   5.114  0.00  0.00    +0.001 A 
ATOM      6  C   UNL     1       8.912  -3.476   5.139  0.00  0.00    +0.002 A 
ATOM      7  C   UNL     1       9.588  -3.738   3.965  0.00  0.00    +0.024 A 
ATOM      8  C   UNL     1       9.008  -3.425   2.740  0.00  0.00    +0.046 A 
ATOM      9  N   UNL     1       9.464  -3.581   1.435  0.00  0.00    -0.261 N 
ATOM     10  C   UNL     1       8.561  -3.140   0.543  0.00  0.00    +0.272 C 
ATOM     11  O   UNL     1       8.684  -3.154  -0.667  0.00  0.00    -0.268 OA
ENDROOT
BRANCH   1  16
ATOM     12  C   UNL     1       4.078  -2.058   1.899  0.00  0.00    +0.158 A 
ATOM     13  N   UNL     1       3.477  -1.292   2.752  0.00  0.00    -0.156 NA
ATOM     14  N   UNL     1       4.349  -0.250   3.093  0.00  0.00    -0.253 N 
ATOM     15  C   UNL     1       5.492  -0.438   2.402  0.00  0.00    +0.196 A 
ATOM     16  N   UNL     1       5.338  -1.556   1.664  0.00  0.00    -0.191 N 
ATOM     17  S   UNL     1       6.885   0.557   2.456  0.00  0.00    -0.010 S 
ATOM     18  H   UNL     1       4.165   0.474   3.712  0.00  0.00    +0.191 HD
BRANCH  12  19
ATOM     19  C   UNL     1       3.497  -3.299   1.272  0.00  0.00    +0.113 C 
BRANCH  19  23
ATOM     20  C   UNL     1      -0.475  -3.904   2.724  0.00  0.00    +0.000 A 
ATOM     21  C   UNL     1      -0.263  -3.147   1.587  0.00  0.00    +0.000 A 
ATOM     22  C   UNL     1       1.023  -2.951   1.117  0.00  0.00    +0.004 A 
ATOM     23  C   UNL     1       2.095  -3.512   1.785  0.00  0.00    -0.040 A 
ATOM     24  C   UNL     1       1.883  -4.268   2.922  0.00  0.00    +0.004 A 
ATOM     25  C   UNL     1       0.598  -4.465   3.391  0.00  0.00    +0.000 A 
ENDBRANCH  19  23
ENDBRANCH  12  19
ENDBRANCH   1  16
BRANCH   9  26
ATOM     26  C   UNL     1      10.762  -4.158   1.079  0.00  0.00    +0.149 C 
BRANCH  26  27
ATOM     27  C   UNL     1      10.599  -5.631   0.805  0.00  0.00    -0.022 A 
ATOM     28  C   UNL     1       9.400  -6.239   1.024  0.00  0.00    +0.006 A 
ATOM     29  C   UNL     1       9.230  -7.599   0.776  0.00  0.00    +0.001 A 
ATOM     30  C   UNL     1      10.257  -8.361   0.310  0.00  0.00    +0.008 A 
ATOM     31  C   UNL     1      11.509  -7.769   0.072  0.00  0.00    -0.018 A 
ATOM     32  C   UNL     1      11.681  -6.383   0.318  0.00  0.00    -0.013 A 
ATOM     33  C   UNL     1      12.931  -5.790   0.075  0.00  0.00    +0.009 A 
ATOM     34  C   UNL     1      13.957  -6.551  -0.397  0.00  0.00    +0.001 A 
ATOM     35  C   UNL     1      13.786  -7.912  -0.645  0.00  0.00    +0.001 A 
ATOM     36  C   UNL     1      12.593  -8.523  -0.409  0.00  0.00    +0.008 A 
ENDBRANCH  26  27
ENDBRANCH   9  26
TORSDOF 5
