REMARK  Name = ZINC02075703
REMARK  8 active torsions:
REMARK  status: ('A' for Active; 'I' for Inactive)
REMARK    1  A    between atoms: C_1  and  C_2
REMARK    2  A    between atoms: C_2  and  O_3
REMARK    3  A    between atoms: O_3  and  C_4
REMARK    4  A    between atoms: C_4  and  C_6
REMARK    5  A    between atoms: C_7  and  C_32
REMARK    6  A    between atoms: C_14  and  C_15
REMARK    7  A    between atoms: C_18  and  O_22
REMARK    8  A    between atoms: C_24  and  C_26
REMARK                            x       y       z     vdW  Elec       q    Type
REMARK                         _______ _______ _______ _____ _____    ______ ____
ROOT
ATOM      1  C   UNL     1       1.367   2.624   1.446  0.00  0.00    +0.085 C 
ATOM      2  C   UNL     1       2.455   3.365   1.817  0.00  0.00    +0.053 C 
ATOM      3  N   UNL     1       3.369   3.715   0.921  0.00  0.00    -0.228 NA
ATOM      4  C   UNL     1       3.329   3.403  -0.350  0.00  0.00    +0.178 A 
ATOM      5  N   UNL     1       2.323   2.665  -0.930  0.00  0.00    -0.275 N 
ATOM      6  C   UNL     1       2.389   2.408  -2.242  0.00  0.00    +0.268 A 
ATOM      7  O   UNL     1       1.523   1.758  -2.799  0.00  0.00    -0.266 OA
ATOM      8  C   UNL     1       3.540   2.933  -2.991  0.00  0.00    +0.081 A 
ATOM      9  C   UNL     1       3.838   2.814  -4.310  0.00  0.00    +0.028 C 
ATOM     10  S   UNL     1       4.439   3.770  -1.694  0.00  0.00    -0.046 S 
ATOM     11  C   UNL     1       1.242   2.221  -0.005  0.00  0.00    +0.162 C 
ATOM     12  C   UNL     1       2.616   3.788   3.254  0.00  0.00    +0.066 C 
ENDROOT
BRANCH   9  13
ATOM     13  C   UNL     1       4.937   3.598  -4.888  0.00  0.00    -0.023 A 
ATOM     14  C   UNL     1       5.554   4.605  -4.134  0.00  0.00    +0.011 A 
ATOM     15  C   UNL     1       6.586   5.335  -4.679  0.00  0.00    +0.047 A 
ATOM     16  C   UNL     1       7.011   5.080  -5.978  0.00  0.00    +0.131 A 
ATOM     17  C   UNL     1       6.399   4.085  -6.733  0.00  0.00    +0.060 A 
ATOM     18  C   UNL     1       5.368   3.346  -6.196  0.00  0.00    +0.027 A 
ATOM     19 BR   UNL     1       6.983   3.747  -8.499  0.00  0.00    -0.047 Br
BRANCH  16  20
ATOM     20  O   UNL     1       8.026   5.807  -6.512  0.00  0.00    -0.506 OA
ATOM     21  H   UNL     1       7.737   6.607  -6.972  0.00  0.00    +0.292 HD
ENDBRANCH  16  20
ENDBRANCH   9  13
BRANCH  11  22
ATOM     22  C   UNL     1      -0.065   2.762  -0.525  0.00  0.00    -0.020 A 
ATOM     23  C   UNL     1      -1.165   1.932  -0.627  0.00  0.00    +0.006 A 
ATOM     24  C   UNL     1      -2.362   2.427  -1.109  0.00  0.00    +0.000 A 
ATOM     25  C   UNL     1      -2.461   3.755  -1.481  0.00  0.00    +0.000 A 
ATOM     26  C   UNL     1      -1.361   4.585  -1.378  0.00  0.00    +0.000 A 
ATOM     27  C   UNL     1      -0.163   4.089  -0.900  0.00  0.00    +0.006 A 
ENDBRANCH  11  22
BRANCH   1  28
ATOM     28  C   UNL     1       0.395   2.249   2.387  0.00  0.00    +0.339 C 
ATOM     29  O   UNL     1       0.571   2.479   3.570  0.00  0.00    -0.245 OA
BRANCH  28  30
ATOM     30  O   UNL     1      -0.736   1.632   1.980  0.00  0.00    -0.462 OA
BRANCH  30  32
ATOM     31  C   UNL     1      -2.888   0.594   2.344  0.00  0.00    +0.048 C 
ATOM     32  C   UNL     1      -1.682   1.278   2.991  0.00  0.00    +0.229 C 
ENDBRANCH  30  32
ENDBRANCH  28  30
ENDBRANCH   1  28
TORSDOF 6
