REMARK  Name = ZINC08921376
REMARK  8 active torsions:
REMARK  status: ('A' for Active; 'I' for Inactive)
REMARK    1  A    between atoms: C_1  and  C_2
REMARK    2  A    between atoms: C_2  and  O_3
REMARK    3  A    between atoms: O_3  and  C_4
REMARK    4  A    between atoms: C_14  and  O_33
REMARK    5  A    between atoms: C_16  and  C_19
REMARK    6  A    between atoms: C_22  and  O_25
REMARK    7  A    between atoms: O_25  and  C_26
REMARK    8  A    between atoms: C_26  and  C_28
REMARK                            x       y       z     vdW  Elec       q    Type
REMARK                         _______ _______ _______ _____ _____    ______ ____
ROOT
ATOM      1  C   UNL     1       1.079  -3.966   8.050  0.00  0.00    +0.403 C 
ATOM      2  O   UNL     1       0.112  -3.885   8.780  0.00  0.00    -0.226 OA
ATOM      3  N   UNL     1       1.040  -4.763   6.964  0.00  0.00    -0.262 N 
ATOM      4  C   UNL     1      -0.160  -5.548   6.637  0.00  0.00    +0.116 C 
ATOM      5  C   UNL     1      -0.744  -5.062   5.309  0.00  0.00    +0.056 C 
ATOM      6  C   UNL     1       0.372  -4.955   4.278  0.00  0.00    -0.020 A 
ATOM      7  C   UNL     1       1.668  -4.870   4.657  0.00  0.00    +0.013 A 
ATOM      8  S   UNL     1       2.583  -4.751   3.143  0.00  0.00    -0.076 S 
ATOM      9  C   UNL     1       1.278  -4.811   2.038  0.00  0.00    +0.080 A 
ATOM     10  C   UNL     1       0.138  -4.928   2.844  0.00  0.00    +0.068 A 
ATOM     11  C   UNL     1      -1.176  -5.012   2.154  0.00  0.00    +0.220 C 
ATOM     12  N   UNL     1      -1.210  -4.730   0.880  0.00  0.00    -0.223 NA
ATOM     13  C   UNL     1      -0.066  -4.277   0.099  0.00  0.00    +0.224 C 
ATOM     14  N   UNL     1       1.206  -4.760   0.669  0.00  0.00    -0.313 N 
ATOM     15  C   UNL     1       2.199  -4.882   6.058  0.00  0.00    +0.153 C 
ATOM     16  H   UNL     1       1.950  -5.028   0.108  0.00  0.00    +0.149 HD
ENDROOT
BRANCH  13  17
ATOM     17  C   UNL     1      -0.052  -2.770   0.075  0.00  0.00    -0.005 A 
ATOM     18  C   UNL     1      -1.240  -2.068   0.173  0.00  0.00    +0.011 A 
ATOM     19  C   UNL     1      -1.230  -0.687   0.151  0.00  0.00    +0.047 A 
ATOM     20  C   UNL     1      -0.028  -0.004   0.031  0.00  0.00    +0.132 A 
ATOM     21  C   UNL     1       1.161  -0.711  -0.071  0.00  0.00    +0.047 A 
ATOM     22  C   UNL     1       1.147  -2.092  -0.043  0.00  0.00    +0.011 A 
BRANCH  20  23
ATOM     23  O   UNL     1      -0.016   1.355   0.009  0.00  0.00    -0.422 OA
BRANCH  23  24
ATOM     24  C   UNL     1      -0.329   2.009   1.147  0.00  0.00    +0.351 C 
ATOM     25  O   UNL     1      -0.508   1.387   2.177  0.00  0.00    -0.244 OA
BRANCH  24  26
ATOM     26  C   UNL     1      -0.453   3.468   1.142  0.00  0.00    +0.097 A 
ATOM     27  C   UNL     1      -0.763   4.323   2.189  0.00  0.00    +0.022 A 
ATOM     28  C   UNL     1      -0.814   5.665   1.906  0.00  0.00    +0.008 A 
ATOM     29  C   UNL     1      -0.563   6.085   0.638  0.00  0.00    +0.046 A 
ATOM     30  S   UNL     1      -0.238   4.610  -0.212  0.00  0.00    -0.090 S 
ENDBRANCH  24  26
ENDBRANCH  23  24
ENDBRANCH  20  23
ENDBRANCH  13  17
BRANCH  11  31
ATOM     31  O   UNL     1      -2.297  -5.368   2.823  0.00  0.00    -0.492 OA
ATOM     32  H   UNL     1      -3.092  -5.389   2.274  0.00  0.00    +0.294 HD
ENDBRANCH  11  31
BRANCH   1  33
ATOM     33  O   UNL     1       2.191  -3.258   8.326  0.00  0.00    -0.451 OA
BRANCH  33  35
ATOM     34  C   UNL     1       3.504  -1.699   9.659  0.00  0.00    +0.048 C 
ATOM     35  C   UNL     1       2.163  -2.420   9.511  0.00  0.00    +0.230 C 
ENDBRANCH  33  35
ENDBRANCH   1  33
TORSDOF 7
