REMARK  Name = ZINC45513903
REMARK  6 active torsions:
REMARK  status: ('A' for Active; 'I' for Inactive)
REMARK    1  A    between atoms: C_5  and  C_7
REMARK    2  A    between atoms: C_7  and  N_8
REMARK    3  A    between atoms: N_13  and  C_14
REMARK    4  A    between atoms: C_14  and  C_16
REMARK    5  A    between atoms: C_16  and  C_17
REMARK    6  A    between atoms: C_17  and  N_18
REMARK                            x       y       z     vdW  Elec       q    Type
REMARK                         _______ _______ _______ _____ _____    ______ ____
ROOT
ATOM      1  C   UNL     1      -1.716  -3.080   2.934  0.00  0.00    +0.240 C 
ATOM      2  O   UNL     1      -1.317  -3.482   4.010  0.00  0.00    -0.274 OA
ENDROOT
BRANCH   1   8
ATOM      3  N   UNL     1       1.488  -2.679   1.333  0.00  0.00    -0.324 N 
ATOM      4  C   UNL     1       2.761  -2.890   1.760  0.00  0.00    +0.095 A 
ATOM      5  C   UNL     1       2.923  -3.341   3.009  0.00  0.00    +0.066 A 
ATOM      6  S   UNL     1       1.238  -3.464   3.578  0.00  0.00    -0.061 S 
ATOM      7  C   UNL     1       0.459  -2.928   2.187  0.00  0.00    +0.166 A 
ATOM      8  N   UNL     1      -0.850  -2.784   1.973  0.00  0.00    -0.156 NA
BRANCH   3   9
ATOM      9  C   UNL     1       1.228  -2.186  -0.022  0.00  0.00    +0.161 C 
BRANCH   9  14
ATOM     10  C   UNL     1      -0.017   1.378   0.010  0.00  0.00    +0.000 A 
ATOM     11  C   UNL     1       1.171   2.087   0.002  0.00  0.00    +0.003 A 
ATOM     12  C   UNL     1       2.377   1.414  -0.013  0.00  0.00    +0.039 A 
ATOM     13  C   UNL     1       2.397   0.029  -0.021  0.00  0.00    +0.128 A 
ATOM     14  C   UNL     1       1.208  -0.679  -0.013  0.00  0.00    +0.007 A 
ATOM     15  C   UNL     1       0.002  -0.004   0.002  0.00  0.00    +0.008 A 
ATOM     16  F   UNL     1       3.577  -0.630  -0.036  0.00  0.00    -0.205 F 
ENDBRANCH   9  14
ENDBRANCH   3   9
ENDBRANCH   1   8
BRANCH   1  17
ATOM     17  C   UNL     1      -3.195  -2.917   2.692  0.00  0.00    +0.117 C 
BRANCH  17  18
ATOM     18  C   UNL     1      -3.965  -3.323   3.950  0.00  0.00    +0.127 C 
BRANCH  18  19
ATOM     19  N   UNL     1      -5.402  -3.165   3.715  0.00  0.00    -0.224 N 
ATOM     20  C   UNL     1      -6.090  -2.031   3.961  0.00  0.00    +0.247 C 
ATOM     21  O   UNL     1      -5.655  -0.989   4.401  0.00  0.00    -0.273 OA
ATOM     22  C   UNL     1      -7.519  -2.333   3.571  0.00  0.00    +0.113 C 
ATOM     23  C   UNL     1      -8.440  -2.200   4.779  0.00  0.00    +0.035 C 
ATOM     24  C   UNL     1      -9.875  -2.540   4.369  0.00  0.00    +0.003 C 
ATOM     25  C   UNL     1     -10.325  -1.590   3.257  0.00  0.00    +0.000 C 
ATOM     26  C   UNL     1      -9.407  -1.752   2.044  0.00  0.00    +0.003 C 
ATOM     27  C   UNL     1      -7.970  -1.409   2.444  0.00  0.00    +0.035 C 
ATOM     28  N   UNL     1      -7.475  -3.726   3.107  0.00  0.00    -0.285 N 
ATOM     29  C   UNL     1      -6.195  -4.126   3.224  0.00  0.00    +0.309 C 
ATOM     30  O   UNL     1      -5.803  -5.236   2.921  0.00  0.00    -0.252 OA
ATOM     31  H   UNL     1      -8.221  -4.253   2.780  0.00  0.00    +0.151 HD
ENDBRANCH  18  19
ENDBRANCH  17  18
ENDBRANCH   1  17
TORSDOF 6
