REMARK  Name = ZINC23590763
REMARK  10 active torsions:
REMARK  status: ('A' for Active; 'I' for Inactive)
REMARK    1  A    between atoms: C_1  and  C_2
REMARK    2  A    between atoms: C_11  and  N_33
REMARK    3  A    between atoms: C_13  and  S_15
REMARK    4  A    between atoms: S_15  and  C_16
REMARK    5  A    between atoms: C_16  and  C_18
REMARK    6  A    between atoms: C_16  and  C_19
REMARK    7  A    between atoms: N_21  and  C_22
REMARK    8  A    between atoms: C_24  and  N_30
REMARK    9  A    between atoms: C_27  and  O_28
REMARK   10  A    between atoms: O_28  and  C_29
REMARK                            x       y       z     vdW  Elec       q    Type
REMARK                         _______ _______ _______ _____ _____    ______ ____
ROOT
ATOM      1  S   UNL     1      -5.868  -2.557  -0.887  0.00  0.00    -0.073 S 
ENDROOT
BRANCH   1  13
ATOM      2  C   UNL     1     -15.085  -6.783  -2.268  0.00  0.00    +0.008 C 
ATOM      3  C   UNL     1     -13.835  -5.901  -2.280  0.00  0.00    -0.009 C 
ATOM      4  C   UNL     1     -13.795  -5.050  -1.008  0.00  0.00    +0.008 C 
ATOM      5  C   UNL     1     -12.693  -3.995  -1.123  0.00  0.00    +0.037 C 
ATOM      6  C   UNL     1     -11.385  -4.689  -1.493  0.00  0.00    -0.025 A 
ATOM      7  C   UNL     1     -11.387  -5.928  -2.022  0.00  0.00    -0.004 A 
ATOM      8  S   UNL     1      -9.679  -6.324  -2.284  0.00  0.00    -0.073 S 
ATOM      9  C   UNL     1      -8.961  -4.818  -1.682  0.00  0.00    +0.115 A 
ATOM     10  C   UNL     1     -10.080  -4.054  -1.295  0.00  0.00    +0.051 A 
ATOM     11  C   UNL     1      -9.789  -2.767  -0.763  0.00  0.00    +0.129 A 
ATOM     12  N   UNL     1      -8.529  -2.377  -0.665  0.00  0.00    -0.207 NA
ATOM     13  C   UNL     1      -7.520  -3.149  -1.050  0.00  0.00    +0.192 A 
ATOM     14  N   UNL     1      -7.732  -4.356  -1.558  0.00  0.00    -0.214 NA
ATOM     15  C   UNL     1     -12.580  -6.785  -2.321  0.00  0.00    +0.046 C 
BRANCH  11  16
ATOM     16  N   UNL     1     -10.813  -1.933  -0.351  0.00  0.00    -0.343 N 
ATOM     17  H   UNL     1     -10.581  -0.939   0.059  0.00  0.00    +0.144 HD
ATOM     18  H   UNL     1     -11.859  -2.263  -0.434  0.00  0.00    +0.144 HD
ENDBRANCH  11  16
ENDBRANCH   1  13
BRANCH   1  19
ATOM     19  C   UNL     1      -6.188  -0.924  -0.174  0.00  0.00    +0.137 C 
ATOM     20  C   UNL     1      -6.812  -1.087   1.213  0.00  0.00    +0.029 C 
BRANCH  19  21
ATOM     21  C   UNL     1      -4.892  -0.165  -0.057  0.00  0.00    +0.230 C 
ATOM     22  O   UNL     1      -3.836  -0.763  -0.065  0.00  0.00    -0.274 OA
ATOM     23  N   UNL     1      -4.905   1.178   0.058  0.00  0.00    -0.282 N 
ATOM     24  H   UNL     1      -5.862   1.712   0.158  0.00  0.00    +0.155 HD
BRANCH  23  25
ATOM     25  C   UNL     1      -3.701   1.894   0.050  0.00  0.00    +0.078 A 
ATOM     26  C   UNL     1      -2.578   1.359  -0.566  0.00  0.00    +0.059 A 
ATOM     27  C   UNL     1      -1.391   2.067  -0.573  0.00  0.00    +0.128 A 
ATOM     28  C   UNL     1      -1.318   3.307   0.037  0.00  0.00    +0.036 A 
ATOM     29  C   UNL     1      -2.434   3.848   0.647  0.00  0.00    +0.050 A 
ATOM     30  C   UNL     1      -3.627   3.144   0.659  0.00  0.00    +0.141 A 
BRANCH  27  31
ATOM     31  N   UNL     1      -0.194   1.496  -1.229  0.00  0.00    +0.056 N 
ATOM     32  O   UNL     1      -0.256   0.402  -1.762  0.00  0.00    -0.126 OA
ATOM     33  O   UNL     1       0.851   2.121  -1.241  0.00  0.00    -0.126 OA
ENDBRANCH  27  31
BRANCH  30  34
ATOM     34  O   UNL     1      -4.724   3.673   1.264  0.00  0.00    -0.493 OA
ATOM     35  C   UNL     1      -4.576   4.960   1.867  0.00  0.00    +0.277 C 
ENDBRANCH  30  34
ENDBRANCH  23  25
ENDBRANCH  19  21
ENDBRANCH   1  19
TORSDOF 7
