REMARK  Name = ZINC04892907
REMARK  5 active torsions:
REMARK  status: ('A' for Active; 'I' for Inactive)
REMARK    1  A    between atoms: C_1  and  C_2
REMARK    2  A    between atoms: C_2  and  C_3
REMARK    3  A    between atoms: C_5  and  C_19
REMARK    4  A    between atoms: C_8  and  C_14
REMARK    5  A    between atoms: N_12  and  O_13
REMARK                            x       y       z     vdW  Elec       q    Type
REMARK                         _______ _______ _______ _____ _____    ______ ____
ROOT
ATOM      1  C   UNL     1       0.742  -0.511   1.242  0.00  0.00    +0.061 C 
ATOM      2  C   UNL     1       0.862  -2.038   1.183  0.00  0.00    +0.130 C 
ATOM      3  N   UNL     1      -0.475  -2.637   1.282  0.00  0.00    -0.297 NA
ATOM      4  C   UNL     1      -1.087  -2.376   2.591  0.00  0.00    +0.126 C 
ATOM      5  C   UNL     1      -1.339  -0.872   2.745  0.00  0.00    +0.081 C 
ATOM      6  C   UNL     1      -0.036  -0.143   2.487  0.00  0.00    +0.064 C 
ATOM      7  N   UNL     1       0.392   0.752   3.295  0.00  0.00    -0.096 NA
ATOM      8  H   UNL     1      -1.071  -2.316   0.534  0.00  0.00    +0.123 HD
ENDROOT
BRANCH   4   9
ATOM      9  C   UNL     1      -2.394  -3.119   2.691  0.00  0.00    +0.122 A 
ATOM     10  C   UNL     1      -2.857  -3.754   3.783  0.00  0.00    +0.046 A 
ATOM     11  C   UNL     1      -4.110  -4.308   3.434  0.00  0.00    +0.041 A 
ATOM     12  C   UNL     1      -4.338  -3.979   2.150  0.00  0.00    +0.195 A 
ATOM     13  O   UNL     1      -3.298  -3.254   1.707  0.00  0.00    -0.466 OA
ENDBRANCH   4   9
BRANCH   2  14
ATOM     14  C   UNL     1       1.499  -2.443  -0.121  0.00  0.00    +0.122 A 
ATOM     15  C   UNL     1       2.789  -2.782  -0.295  0.00  0.00    +0.046 A 
ATOM     16  C   UNL     1       2.951  -3.087  -1.666  0.00  0.00    +0.041 A 
ATOM     17  C   UNL     1       1.751  -2.916  -2.248  0.00  0.00    +0.195 A 
ATOM     18  O   UNL     1       0.874  -2.531  -1.306  0.00  0.00    -0.466 OA
ENDBRANCH   2  14
BRANCH   1  20
ATOM     19  C   UNL     1      -0.019   1.526   0.010  0.00  0.00    +0.004 C 
ATOM     20  C   UNL     1       0.002  -0.004   0.002  0.00  0.00    +0.008 C 
ENDBRANCH   1  20
BRANCH   7  21
ATOM     21  O   UNL     1      -0.355   1.078   4.452  0.00  0.00    -0.409 OA
ATOM     22  H   UNL     1       0.049   1.765   5.001  0.00  0.00    +0.328 HD
ENDBRANCH   7  21
TORSDOF 4
