REMARK  Name = ZINC64040591
REMARK  5 active torsions:
REMARK  status: ('A' for Active; 'I' for Inactive)
REMARK    1  A    between atoms: C_1  and  O_2
REMARK    2  A    between atoms: O_2  and  C_3
REMARK    3  A    between atoms: C_6  and  N_10
REMARK    4  A    between atoms: C_11  and  C_13
REMARK    5  A    between atoms: C_22  and  C_24
REMARK                            x       y       z     vdW  Elec       q    Type
REMARK                         _______ _______ _______ _____ _____    ______ ____
ROOT
ATOM      1  C   UNL     1      -6.174  -4.818   0.032  0.00  0.00    +0.082 C 
ATOM      2  C   UNL     1      -6.536  -5.567   1.316  0.00  0.00    +0.021 C 
ATOM      3  C   UNL     1      -6.053  -6.340   0.088  0.00  0.00    -0.015 C 
ATOM      4  C   UNL     1      -4.645  -6.941   0.134  0.00  0.00    +0.026 C 
ATOM      5  C   UNL     1      -4.734  -8.361   0.706  0.00  0.00    +0.108 C 
ATOM      6  N   UNL     1      -5.757  -9.108  -0.036  0.00  0.00    -0.299 N 
ATOM      7  C   UNL     1      -7.127  -8.581  -0.096  0.00  0.00    +0.108 C 
ATOM      8  C   UNL     1      -7.087  -7.165  -0.684  0.00  0.00    +0.026 C 
ATOM      9  C   UNL     1      -5.444 -10.263  -0.655  0.00  0.00    +0.242 C 
ATOM     10  O   UNL     1      -4.310 -10.692  -0.602  0.00  0.00    -0.273 OA
ENDROOT
BRANCH   9  11
ATOM     11  C   UNL     1      -6.501 -11.022  -1.415  0.00  0.00    +0.190 C 
ATOM     12  C   UNL     1      -7.601 -11.464  -0.476  0.00  0.00    +0.016 C 
ATOM     13  C   UNL     1      -7.621 -12.816  -0.532  0.00  0.00    -0.001 A 
ATOM     14  C   UNL     1      -8.448 -13.826   0.138  0.00  0.00    +0.048 A 
ATOM     15  C   UNL     1      -8.228 -15.136  -0.126  0.00  0.00    +0.124 A 
ATOM     16  C   UNL     1      -7.229 -15.549  -1.022  0.00  0.00    +0.040 A 
ATOM     17  C   UNL     1      -6.430 -14.679  -1.675  0.00  0.00    +0.029 A 
ATOM     18  C   UNL     1      -6.575 -13.278  -1.472  0.00  0.00    +0.043 A 
ATOM     19  N   UNL     1      -5.933 -12.252  -1.979  0.00  0.00    -0.370 N 
ATOM     20  F   UNL     1      -8.987 -16.068   0.489  0.00  0.00    -0.205 F 
ATOM     21  H   UNL     1      -5.206 -12.297  -2.620  0.00  0.00    +0.161 HD
ENDBRANCH   9  11
BRANCH   1  23
ATOM     22  N   UNL     1      -4.235  -3.808  -1.125  0.00  0.00    -0.285 N 
ATOM     23  C   UNL     1      -4.897  -4.018   0.030  0.00  0.00    +0.221 C 
ATOM     24  O   UNL     1      -4.465  -3.562   1.068  0.00  0.00    -0.275 OA
ATOM     25  H   UNL     1      -4.619  -4.106  -1.965  0.00  0.00    +0.155 HD
BRANCH  22  29
ATOM     26  C   UNL     1      -0.537  -1.880  -1.089  0.00  0.00    +0.138 A 
ATOM     27  C   UNL     1      -0.905  -2.694  -0.028  0.00  0.00    +0.049 A 
ATOM     28  C   UNL     1      -2.130  -3.333  -0.040  0.00  0.00    +0.027 A 
ATOM     29  C   UNL     1      -2.993  -3.159  -1.113  0.00  0.00    +0.035 A 
ATOM     30  C   UNL     1      -2.625  -2.344  -2.175  0.00  0.00    +0.047 A 
ATOM     31  C   UNL     1      -1.402  -1.702  -2.160  0.00  0.00    +0.084 A 
ATOM     32 CL   UNL     1      -0.943  -0.677  -3.485  0.00  0.00    -0.080 Cl
BRANCH  26  34
ATOM     33  C   UNL     1       1.508  -1.481   0.057  0.00  0.00    +0.277 C 
ATOM     34  O   UNL     1       0.669  -1.252  -1.077  0.00  0.00    -0.494 OA
ENDBRANCH  26  34
ENDBRANCH  22  29
ENDBRANCH   1  23
TORSDOF 4
