REMARK  Name = ZINC24509314
REMARK  7 active torsions:
REMARK  status: ('A' for Active; 'I' for Inactive)
REMARK    1  A    between atoms: C_1  and  C_2
REMARK    2  A    between atoms: C_2  and  C_23
REMARK    3  A    between atoms: N_5  and  C_9
REMARK    4  A    between atoms: C_9  and  C_10
REMARK    5  A    between atoms: C_13  and  C_15
REMARK    6  A    between atoms: C_18  and  O_21
REMARK    7  A    between atoms: O_21  and  C_22
REMARK                            x       y       z     vdW  Elec       q    Type
REMARK                         _______ _______ _______ _____ _____    ______ ____
ROOT
ATOM      1  C   UNL     1      -3.056   4.381  -1.377  0.00  0.00    +0.047 C 
ATOM      2  C   UNL     1      -2.557   4.141   0.049  0.00  0.00    +0.135 C 
ATOM      3  C   UNL     1      -3.586   3.374   0.856  0.00  0.00    +0.251 C 
ATOM      4  O   UNL     1      -4.012   2.262   0.631  0.00  0.00    -0.272 OA
ATOM      5  N   UNL     1      -3.930   4.188   1.875  0.00  0.00    -0.218 N 
ATOM      6  C   UNL     1      -3.267   5.349   1.824  0.00  0.00    +0.310 C 
ATOM      7  O   UNL     1      -3.408   6.243   2.635  0.00  0.00    -0.252 OA
ATOM      8  N   UNL     1      -2.428   5.416   0.775  0.00  0.00    -0.281 N 
ATOM      9  H   UNL     1      -1.734   6.189   0.411  0.00  0.00    +0.152 HD
ENDROOT
BRANCH   2  10
ATOM     10  C   UNL     1      -1.242   3.405   0.032  0.00  0.00    -0.013 A 
ATOM     11  C   UNL     1      -0.054   4.113   0.025  0.00  0.00    +0.009 A 
ATOM     12  C   UNL     1       1.153   3.441   0.010  0.00  0.00    +0.041 A 
ATOM     13  C   UNL     1       1.175   2.057   0.002  0.00  0.00    +0.158 A 
ATOM     14  C   UNL     1      -0.016   1.347   0.009  0.00  0.00    +0.159 A 
ATOM     15  C   UNL     1      -1.224   2.023   0.019  0.00  0.00    +0.047 A 
ATOM     16  F   UNL     1       0.002  -0.004   0.002  0.00  0.00    -0.202 F 
ATOM     17  F   UNL     1       2.354   1.399  -0.013  0.00  0.00    -0.202 F 
ENDBRANCH   2  10
BRANCH   5  18
ATOM     18  C   UNL     1      -4.907   3.842   2.910  0.00  0.00    +0.174 C 
BRANCH  18  19
ATOM     19  C   UNL     1      -6.280   4.280   2.470  0.00  0.00    +0.067 A 
ATOM     20  C   UNL     1      -7.108   3.401   1.847  0.00  0.00    +0.072 A 
ATOM     21  S   UNL     1      -8.541   4.435   1.573  0.00  0.00    -0.075 S 
ATOM     22  C   UNL     1      -7.880   5.924   2.309  0.00  0.00    +0.109 A 
ATOM     23  N   UNL     1      -6.677   5.513   2.685  0.00  0.00    -0.242 NA
BRANCH  22  24
ATOM     24  C   UNL     1      -8.505   7.255   2.457  0.00  0.00    +0.007 A 
ATOM     25  C   UNL     1      -7.805   8.292   3.076  0.00  0.00    +0.014 A 
ATOM     26  C   UNL     1      -8.390   9.534   3.208  0.00  0.00    +0.046 A 
ATOM     27  C   UNL     1      -9.678   9.750   2.736  0.00  0.00    +0.120 A 
ATOM     28  C   UNL     1     -10.380   8.719   2.124  0.00  0.00    +0.046 A 
ATOM     29  C   UNL     1      -9.800   7.477   1.984  0.00  0.00    +0.014 A 
BRANCH  27  30
ATOM     30  O   UNL     1     -10.253  10.974   2.872  0.00  0.00    -0.495 OA
ATOM     31  C   UNL     1      -9.475  11.989   3.510  0.00  0.00    +0.277 C 
ENDBRANCH  27  30
ENDBRANCH  22  24
ENDBRANCH  18  19
ENDBRANCH   5  18
TORSDOF 5
