REMARK  Name = ZINC37425136
REMARK  4 active torsions:
REMARK  status: ('A' for Active; 'I' for Inactive)
REMARK    1  A    between atoms: C_2  and  C_9
REMARK    2  A    between atoms: C_9  and  C_11
REMARK    3  A    between atoms: C_9  and  N_19
REMARK    4  A    between atoms: C_13  and  C_16
REMARK                            x       y       z     vdW  Elec       q    Type
REMARK                         _______ _______ _______ _____ _____    ______ ____
ROOT
ATOM      1  C   UNL     1       1.149   3.594   0.010  0.00  0.00    +0.029 C 
ENDROOT
BRANCH   1   3
ATOM      2  C   UNL     1      -0.017   1.379   0.010  0.00  0.00    +0.022 A 
ATOM      3  C   UNL     1       1.171   2.087   0.002  0.00  0.00    -0.052 A 
ATOM      4  C   UNL     1       2.377   1.413  -0.013  0.00  0.00    +0.022 A 
ATOM      5  C   UNL     1       2.397   0.030  -0.021  0.00  0.00    +0.043 A 
ATOM      6  C   UNL     1       1.209  -0.679  -0.013  0.00  0.00    +0.040 A 
ATOM      7  C   UNL     1       0.002  -0.004   0.002  0.00  0.00    +0.043 A 
ATOM      8 CL   UNL     1      -1.489  -0.893   0.012  0.00  0.00    -0.083 Cl
ATOM      9 CL   UNL     1       3.913  -0.817  -0.040  0.00  0.00    -0.083 Cl
ENDBRANCH   1   3
BRANCH   1  10
ATOM     10  C   UNL     1       1.376   4.107  -1.389  0.00  0.00    +0.162 A 
ATOM     11  N   UNL     1       0.438   4.627  -2.188  0.00  0.00    -0.197 NA
ATOM     12  C   UNL     1       0.964   4.973  -3.330  0.00  0.00    +0.230 A 
ATOM     13  O   UNL     1       2.270   4.681  -3.296  0.00  0.00    -0.338 OA
ATOM     14  N   UNL     1       2.518   4.120  -2.015  0.00  0.00    -0.063 NA
BRANCH  12  15
ATOM     15  C   UNL     1       0.229   5.595  -4.489  0.00  0.00    +0.078 C 
ATOM     16  C   UNL     1       0.986   5.740  -5.810  0.00  0.00    +0.014 C 
ATOM     17  C   UNL     1       0.690   6.976  -4.959  0.00  0.00    +0.014 C 
ENDBRANCH  12  15
ENDBRANCH   1  10
BRANCH   1  18
ATOM     18  N   UNL     1       2.212   4.094   0.893  0.00  0.00    +0.387 N 
ATOM     19  H   UNL     1       2.060   3.751   1.829  0.00  0.00    -0.089 HD
ATOM     20  H   UNL     1       3.107   3.772   0.557  0.00  0.00    -0.089 HD
ATOM     21  H   UNL     1       2.198   5.103   0.898  0.00  0.00    -0.089 HD
ENDBRANCH   1  18
TORSDOF 4
