REMARK  Name = ZINC33234558
REMARK  9 active torsions:
REMARK  status: ('A' for Active; 'I' for Inactive)
REMARK    1  A    between atoms: C_1  and  N_2
REMARK    2  A    between atoms: C_6  and  C_7
REMARK    3  A    between atoms: N_9  and  N_10
REMARK    4  A    between atoms: C_11  and  C_13
REMARK    5  A    between atoms: C_13  and  C_14
REMARK    6  A    between atoms: C_14  and  C_15
REMARK    7  A    between atoms: C_15  and  C_16
REMARK    8  A    between atoms: C_16  and  C_17
REMARK    9  A    between atoms: C_17  and  N_18
REMARK                            x       y       z     vdW  Elec       q    Type
REMARK                         _______ _______ _______ _____ _____    ______ ____
ROOT
ATOM      1  C   UNL     1       6.109  -3.072  -0.278  0.00  0.00    +0.009 C 
ENDROOT
BRANCH   1   2
ATOM      2  C   UNL     1       6.012  -1.554  -0.111  0.00  0.00    +0.097 C 
BRANCH   2   4
ATOM      3  N   UNL     1       4.239   0.170  -0.074  0.00  0.00    -0.234 N 
ATOM      4  C   UNL     1       4.568  -1.131  -0.195  0.00  0.00    +0.229 C 
ATOM      5  O   UNL     1       3.702  -1.961  -0.371  0.00  0.00    -0.274 OA
ATOM      6  H   UNL     1       5.025   0.923   0.086  0.00  0.00    +0.173 HD
BRANCH   3   9
ATOM      7  C   UNL     1       2.568   1.865  -0.031  0.00  0.00    +0.277 C 
ATOM      8  O   UNL     1       3.442   2.708   0.053  0.00  0.00    -0.267 OA
ATOM      9  N   UNL     1       2.897   0.564  -0.152  0.00  0.00    -0.229 N 
ATOM     10  H   UNL     1       2.111  -0.189  -0.312  0.00  0.00    +0.173 HD
BRANCH   7  16
ATOM     11  C   UNL     1       1.497   4.771   0.019  0.00  0.00    +0.149 C 
ATOM     12  N   UNL     1       0.679   3.556   0.022  0.00  0.00    -0.345 N 
ATOM     13  C   UNL     1      -0.676   3.515   0.052  0.00  0.00    +0.101 A 
ATOM     14  C   UNL     1      -1.076   2.220   0.041  0.00  0.00    +0.036 A 
ATOM     15  C   UNL     1       0.070   1.418   0.011  0.00  0.00    +0.047 A 
ATOM     16  C   UNL     1       1.158   2.266  -0.001  0.00  0.00    +0.107 A 
ATOM     17 BR   UNL     1      -2.864   1.606   0.068  0.00  0.00    -0.049 Br
ENDBRANCH   7  16
ENDBRANCH   3   9
ENDBRANCH   2   4
ENDBRANCH   1   2
BRANCH   1  18
ATOM     18  C   UNL     1       7.575  -3.502  -0.193  0.00  0.00    +0.002 C 
BRANCH  18  19
ATOM     19  C   UNL     1       7.672  -5.020  -0.361  0.00  0.00    +0.019 C 
BRANCH  19  20
ATOM     20  C   UNL     1       9.138  -5.450  -0.275  0.00  0.00    +0.103 C 
BRANCH  20  21
ATOM     21  N   UNL     1       9.231  -6.903  -0.436  0.00  0.00    -0.327 N 
ATOM     22  C   UNL     1      10.460  -7.523  -0.394  0.00  0.00    +0.150 C 
ATOM     23  N   UNL     1      11.538  -6.829  -0.214  0.00  0.00    -0.113 NA
ATOM     24  S   UNL     1      12.799  -7.930  -0.226  0.00  0.00    +0.101 S 
ATOM     25  O   UNL     1      13.575  -7.687  -1.391  0.00  0.00    -0.146 OA
ATOM     26  O   UNL     1      13.346  -7.976   1.085  0.00  0.00    -0.146 OA
ATOM     27  C   UNL     1      11.890  -9.429  -0.485  0.00  0.00    +0.123 A 
ATOM     28  C   UNL     1      10.562  -8.983  -0.549  0.00  0.00    +0.043 A 
ATOM     29  C   UNL     1       9.566  -9.948  -0.760  0.00  0.00    +0.013 A 
ATOM     30  C   UNL     1       9.902 -11.278  -0.884  0.00  0.00    +0.001 A 
ATOM     31  C   UNL     1      11.221 -11.689  -0.810  0.00  0.00    +0.002 A 
ATOM     32  C   UNL     1      12.220 -10.747  -0.608  0.00  0.00    +0.030 A 
ATOM     33  H   UNL     1       8.319  -7.499  -0.589  0.00  0.00    +0.148 HD
ENDBRANCH  20  21
ENDBRANCH  19  20
ENDBRANCH  18  19
ENDBRANCH   1  18
TORSDOF 8
