REMARK  Name = ZINC20572263
REMARK  3 active torsions:
REMARK  status: ('A' for Active; 'I' for Inactive)
REMARK    1  A    between atoms: C_7  and  C_11
REMARK    2  A    between atoms: C_11  and  C_12
REMARK    3  A    between atoms: N_20  and  C_23
REMARK                            x       y       z     vdW  Elec       q    Type
REMARK                         _______ _______ _______ _____ _____    ______ ____
ROOT
ATOM      1  C   UNL     1       0.381  -3.913  -1.315  0.00  0.00    +0.072 C 
ATOM      2  C   UNL     1      -0.688  -5.007  -1.521  0.00  0.00    +0.108 C 
ATOM      3  C   UNL     1      -1.700  -4.392  -2.528  0.00  0.00    +0.123 C 
ATOM      4  C   UNL     1      -2.971  -4.276  -1.717  0.00  0.00    +0.233 C 
ATOM      5  O   UNL     1      -4.027  -3.845  -2.128  0.00  0.00    -0.274 OA
ATOM      6  N   UNL     1      -2.749  -4.723  -0.476  0.00  0.00    -0.210 N 
ATOM      7  C   UNL     1      -1.491  -5.167  -0.250  0.00  0.00    +0.232 C 
ATOM      8  O   UNL     1      -1.069  -5.617   0.793  0.00  0.00    -0.274 OA
ATOM      9  C   UNL     1      -1.139  -2.997  -2.834  0.00  0.00    +0.136 C 
ATOM     10  N   UNL     1      -0.300  -2.639  -1.667  0.00  0.00    -0.295 NA
ATOM     11  C   UNL     1      -2.239  -1.994  -3.036  0.00  0.00    +0.005 A 
ATOM     12  C   UNL     1      -3.271  -1.545  -2.242  0.00  0.00    +0.008 A 
ATOM     13  C   UNL     1      -4.148  -0.589  -2.720  0.00  0.00    +0.002 A 
ATOM     14  C   UNL     1      -3.987  -0.084  -3.998  0.00  0.00    +0.022 A 
ATOM     15  C   UNL     1      -2.953  -0.529  -4.797  0.00  0.00    +0.062 A 
ATOM     16  C   UNL     1      -2.065  -1.493  -4.322  0.00  0.00    +0.057 A 
ATOM     17  N   UNL     1      -0.959  -2.093  -4.929  0.00  0.00    -0.282 N 
ATOM     18  C   UNL     1      -0.360  -2.988  -4.120  0.00  0.00    +0.243 C 
ATOM     19  O   UNL     1       0.618  -3.657  -4.379  0.00  0.00    -0.273 OA
ATOM     20 CL   UNL     1      -2.759   0.113  -6.399  0.00  0.00    -0.082 Cl
ATOM     21  H   UNL     1      -0.859  -2.303  -0.897  0.00  0.00    +0.124 HD
ATOM     22  H   UNL     1      -0.658  -1.889  -5.828  0.00  0.00    +0.155 HD
ENDROOT
BRANCH   6  23
ATOM     23  C   UNL     1      -3.743  -4.738   0.514  0.00  0.00    +0.044 A 
ATOM     24  C   UNL     1      -4.834  -5.588   0.391  0.00  0.00    +0.027 A 
ATOM     25  C   UNL     1      -5.811  -5.601   1.366  0.00  0.00    +0.040 A 
ATOM     26  C   UNL     1      -5.704  -4.767   2.467  0.00  0.00    +0.124 A 
ATOM     27  C   UNL     1      -4.617  -3.919   2.591  0.00  0.00    +0.040 A 
ATOM     28  C   UNL     1      -3.634  -3.907   1.621  0.00  0.00    +0.027 A 
ATOM     29  F   UNL     1      -6.661  -4.781   3.420  0.00  0.00    -0.205 F 
ENDBRANCH   6  23
BRANCH   1  30
ATOM     30  C   UNL     1       0.840  -3.886   0.144  0.00  0.00    +0.056 C 
BRANCH  30  37
ATOM     31  C   UNL     1       0.859   0.743   0.879  0.00  0.00    +0.001 A 
ATOM     32  C   UNL     1       2.139   1.272   0.963  0.00  0.00    +0.002 A 
ATOM     33  C   UNL     1       3.245   0.461   0.835  0.00  0.00    +0.026 A 
ATOM     34  C   UNL     1       3.079  -0.903   0.618  0.00  0.00    +0.047 A 
ATOM     35  C   UNL     1       1.779  -1.435   0.533  0.00  0.00    +0.003 A 
ATOM     36  C   UNL     1       0.672  -0.593   0.666  0.00  0.00    +0.010 A 
ATOM     37  C   UNL     1       1.943  -2.872   0.305  0.00  0.00    -0.021 A 
ATOM     38  C   UNL     1       3.263  -3.115   0.267  0.00  0.00    +0.087 A 
ATOM     39  N   UNL     1       3.957  -1.951   0.452  0.00  0.00    -0.360 N 
ATOM     40  H   UNL     1       4.924  -1.874   0.464  0.00  0.00    +0.165 HD
ENDBRANCH  30  37
ENDBRANCH   1  30
TORSDOF 3
