REMARK  Name = ZINC02521870
REMARK  8 active torsions:
REMARK  status: ('A' for Active; 'I' for Inactive)
REMARK    1  A    between atoms: C_3  and  O_9
REMARK    2  A    between atoms: O_9  and  C_10
REMARK    3  A    between atoms: C_10  and  C_11
REMARK    4  A    between atoms: N_13  and  N_14
REMARK    5  A    between atoms: C_15  and  C_16
REMARK    6  A    between atoms: C_19  and  O_22
REMARK    7  A    between atoms: O_22  and  C_23
REMARK    8  A    between atoms: C_23  and  C_25
REMARK                            x       y       z     vdW  Elec       q    Type
REMARK                         _______ _______ _______ _____ _____    ______ ____
ROOT
ATOM      1  C   UNL     1      -1.201   1.921  -5.984  0.00  0.00    -0.005 A 
ATOM      2  C   UNL     1      -2.400   2.621  -5.829  0.00  0.00    +0.013 A 
ATOM      3  C   UNL     1      -3.075   3.081  -6.939  0.00  0.00    +0.047 A 
ATOM      4  C   UNL     1      -2.570   2.840  -8.211  0.00  0.00    +0.132 A 
ATOM      5  C   UNL     1      -1.381   2.140  -8.369  0.00  0.00    +0.047 A 
ATOM      6  C   UNL     1      -0.697   1.681  -7.265  0.00  0.00    +0.013 A 
ENDROOT
BRANCH   1   8
ATOM      7  N   UNL     1      -0.943   1.655  -3.610  0.00  0.00    -0.188 NA
ATOM      8  C   UNL     1      -0.473   1.431  -4.799  0.00  0.00    +0.138 C 
BRANCH   7  11
ATOM      9  C   UNL     1      -0.740   1.422  -1.250  0.00  0.00    +0.270 C 
ATOM     10  O   UNL     1      -1.778   2.034  -1.113  0.00  0.00    -0.270 OA
ATOM     11  N   UNL     1      -0.251   1.190  -2.484  0.00  0.00    -0.204 N 
ATOM     12  H   UNL     1       0.579   0.700  -2.593  0.00  0.00    +0.177 HD
BRANCH   9  13
ATOM     13  C   UNL     1       0.004   0.922  -0.038  0.00  0.00    +0.326 C 
BRANCH  13  14
ATOM     14  O   UNL     1      -0.708   1.290   1.144  0.00  0.00    -0.481 OA
BRANCH  14  17
ATOM     15  C   UNL     1       1.571  -0.181   3.570  0.00  0.00    +0.005 A 
ATOM     16  C   UNL     1       1.023   0.202   2.360  0.00  0.00    +0.047 A 
ATOM     17  C   UNL     1      -0.168   0.912   2.333  0.00  0.00    +0.141 A 
ATOM     18  C   UNL     1      -0.804   1.242   3.522  0.00  0.00    +0.101 A 
ATOM     19  C   UNL     1      -0.255   0.852   4.730  0.00  0.00    +0.063 A 
ATOM     20  C   UNL     1       0.934   0.143   4.753  0.00  0.00    +0.022 A 
ATOM     21 CL   UNL     1      -1.052   1.257   6.218  0.00  0.00    -0.082 Cl
ATOM     22 CL   UNL     1      -2.292   2.137   3.493  0.00  0.00    -0.078 Cl
ENDBRANCH  14  17
ENDBRANCH  13  14
ENDBRANCH   9  13
ENDBRANCH   7  11
ENDBRANCH   1   8
BRANCH   4  23
ATOM     23  O   UNL     1      -3.241   3.291  -9.303  0.00  0.00    -0.422 OA
BRANCH  23  24
ATOM     24  C   UNL     1      -3.814   2.363 -10.094  0.00  0.00    +0.346 C 
ATOM     25  O   UNL     1      -3.808   1.194  -9.763  0.00  0.00    -0.244 OA
BRANCH  24  26
ATOM     26  C   UNL     1      -4.449   2.767 -11.364  0.00  0.00    +0.078 A 
ATOM     27  C   UNL     1      -4.458   4.111 -11.748  0.00  0.00    +0.018 A 
ATOM     28  C   UNL     1      -5.053   4.482 -12.934  0.00  0.00    +0.021 A 
ATOM     29  C   UNL     1      -5.642   3.526 -13.746  0.00  0.00    +0.042 A 
ATOM     30  C   UNL     1      -5.638   2.193 -13.373  0.00  0.00    +0.040 A 
ATOM     31  C   UNL     1      -5.040   1.807 -12.190  0.00  0.00    +0.056 A 
ATOM     32 CL   UNL     1      -5.029   0.134 -11.726  0.00  0.00    -0.083 Cl
ATOM     33 CL   UNL     1      -6.390   4.003 -15.239  0.00  0.00    -0.083 Cl
ENDBRANCH  24  26
ENDBRANCH  23  24
ENDBRANCH   4  23
TORSDOF 8
