REMARK  Name = ZINC38872589
REMARK  9 active torsions:
REMARK  status: ('A' for Active; 'I' for Inactive)
REMARK    1  A    between atoms: C_1  and  C_2
REMARK    2  A    between atoms: C_2  and  C_3
REMARK    3  A    between atoms: C_3  and  C_5
REMARK    4  A    between atoms: C_3  and  N_12
REMARK    5  A    between atoms: C_8  and  C_11
REMARK    6  A    between atoms: C_13  and  C_15
REMARK    7  A    between atoms: N_18  and  C_21
REMARK    8  A    between atoms: C_21  and  C_22
REMARK    9  A    between atoms: C_24  and  C_27
REMARK                            x       y       z     vdW  Elec       q    Type
REMARK                         _______ _______ _______ _____ _____    ______ ____
ROOT
ATOM      1  C   UNL     1      -0.608   1.458   4.234  0.00  0.00    +0.071 C 
ATOM      2  C   UNL     1      -2.109   1.406   3.937  0.00  0.00    -0.006 C 
ATOM      3  C   UNL     1      -2.884   1.870   5.172  0.00  0.00    -0.077 C 
ATOM      4  N   UNL     1      -2.498   3.246   5.508  0.00  0.00    +0.386 N 
ATOM      5  C   UNL     1      -1.075   3.291   5.863  0.00  0.00    -0.077 C 
ATOM      6  C   UNL     1      -0.230   2.881   4.655  0.00  0.00    -0.006 C 
ATOM      7  H   UNL     1      -2.664   3.844   4.712  0.00  0.00    -0.081 HD
ENDROOT
BRANCH   1   9
ATOM      8  N   UNL     1      -0.008  -0.140   2.444  0.00  0.00    -0.308 N 
ATOM      9  C   UNL     1       0.164   1.077   2.997  0.00  0.00    +0.216 C 
ATOM     10  O   UNL     1       0.941   1.865   2.500  0.00  0.00    -0.276 OA
ATOM     11  H   UNL     1      -0.629  -0.770   2.842  0.00  0.00    +0.149 HD
BRANCH   8  12
ATOM     12  C   UNL     1       0.742  -0.511   1.242  0.00  0.00    +0.103 C 
BRANCH  12  13
ATOM     13  C   UNL     1       0.870  -2.011   1.172  0.00  0.00    -0.027 A 
ATOM     14  C   UNL     1      -0.201  -2.813   1.519  0.00  0.00    +0.006 A 
ATOM     15  C   UNL     1      -0.084  -4.189   1.456  0.00  0.00    +0.004 A 
ATOM     16  C   UNL     1       1.105  -4.763   1.044  0.00  0.00    -0.050 A 
ATOM     17  C   UNL     1       2.175  -3.961   0.695  0.00  0.00    +0.004 A 
ATOM     18  C   UNL     1       2.057  -2.585   0.755  0.00  0.00    +0.006 A 
ATOM     19  C   UNL     1       1.233  -6.263   0.975  0.00  0.00    +0.044 C 
ENDBRANCH  12  13
BRANCH  12  21
ATOM     20  C   UNL     1      -0.019   1.526   0.010  0.00  0.00    +0.006 C 
ATOM     21  C   UNL     1       0.002  -0.004   0.002  0.00  0.00    +0.024 C 
ENDBRANCH  12  21
ENDBRANCH   8  12
ENDBRANCH   1   9
BRANCH   4  22
ATOM     22  C   UNL     1      -3.301   3.715   6.645  0.00  0.00    +0.022 C 
BRANCH  22  23
ATOM     23  C   UNL     1      -2.994   5.166   6.913  0.00  0.00    +0.211 A 
ATOM     24  N   UNL     1      -3.614   6.184   6.389  0.00  0.00    -0.193 NA
ATOM     25  C   UNL     1      -3.083   7.332   6.846  0.00  0.00    +0.203 A 
ATOM     26  N   UNL     1      -2.109   7.042   7.674  0.00  0.00    -0.056 NA
ATOM     27  O   UNL     1      -2.040   5.625   7.733  0.00  0.00    -0.340 OA
BRANCH  25  28
ATOM     28  C   UNL     1      -3.526   8.699   6.476  0.00  0.00    +0.041 A 
ATOM     29  C   UNL     1      -4.583   8.874   5.585  0.00  0.00    +0.014 A 
ATOM     30  C   UNL     1      -4.991  10.146   5.244  0.00  0.00    +0.021 A 
ATOM     31  C   UNL     1      -4.353  11.250   5.784  0.00  0.00    +0.042 A 
ATOM     32  C   UNL     1      -3.302  11.083   6.669  0.00  0.00    +0.040 A 
ATOM     33  C   UNL     1      -2.889   9.813   7.022  0.00  0.00    +0.053 A 
ATOM     34 CL   UNL     1      -1.576   9.604   8.138  0.00  0.00    -0.083 Cl
ATOM     35 CL   UNL     1      -4.872  12.849   5.350  0.00  0.00    -0.083 Cl
ENDBRANCH  25  28
ENDBRANCH  22  23
ENDBRANCH   4  22
TORSDOF 7
