REMARK  Name = ZINC16552167
REMARK  11 active torsions:
REMARK  status: ('A' for Active; 'I' for Inactive)
REMARK    1  A    between atoms: C_1  and  C_2
REMARK    2  A    between atoms: C_2  and  O_3
REMARK    3  A    between atoms: O_3  and  C_4
REMARK    4  A    between atoms: C_4  and  C_6
REMARK    5  A    between atoms: C_7  and  C_29
REMARK    6  A    between atoms: C_13  and  C_17
REMARK    7  A    between atoms: C_17  and  C_19
REMARK    8  A    between atoms: C_17  and  S_20
REMARK    9  A    between atoms: S_20  and  C_21
REMARK   10  A    between atoms: C_24  and  C_28
REMARK   11  A    between atoms: C_25  and  C_27
REMARK                            x       y       z     vdW  Elec       q    Type
REMARK                         _______ _______ _______ _____ _____    ______ ____
ROOT
ATOM      1  C   UNL     1      -5.424  -3.099   1.875  0.00  0.00    +0.102 A 
ATOM      2  C   UNL     1      -5.613  -1.847   1.365  0.00  0.00    -0.015 A 
ATOM      3  C   UNL     1      -4.537  -0.962   1.282  0.00  0.00    +0.076 A 
ATOM      4  C   UNL     1      -4.506   0.428   0.771  0.00  0.00    +0.260 A 
ATOM      5  O   UNL     1      -5.515   0.958   0.342  0.00  0.00    -0.267 OA
ATOM      6  N   UNL     1      -3.334   1.092   0.799  0.00  0.00    -0.309 N 
ATOM      7  H   UNL     1      -3.297   2.004   0.471  0.00  0.00    +0.170 HD
ATOM      8  C   UNL     1      -2.204   0.510   1.270  0.00  0.00    +0.124 A 
ATOM      9  N   UNL     1      -2.196  -0.712   1.728  0.00  0.00    -0.225 NA
ATOM     10  C   UNL     1      -3.297  -1.453   1.752  0.00  0.00    +0.116 A 
ATOM     11  S   UNL     1      -3.685  -3.103   2.277  0.00  0.00    -0.062 S 
ATOM     12  C   UNL     1      -6.979  -1.423   0.892  0.00  0.00    +0.046 C 
ENDROOT
BRANCH   1  13
ATOM     13  C   UNL     1      -6.405  -4.173   2.050  0.00  0.00    +0.346 C 
ATOM     14  O   UNL     1      -7.562  -3.999   1.718  0.00  0.00    -0.244 OA
BRANCH  13  15
ATOM     15  O   UNL     1      -6.025  -5.355   2.577  0.00  0.00    -0.461 OA
BRANCH  15  17
ATOM     16  C   UNL     1      -6.435  -7.633   3.332  0.00  0.00    +0.048 C 
ATOM     17  C   UNL     1      -7.050  -6.373   2.721  0.00  0.00    +0.229 C 
ENDBRANCH  15  17
ENDBRANCH  13  15
ENDBRANCH   1  13
BRANCH   8  18
ATOM     18  C   UNL     1      -0.920   1.300   1.271  0.00  0.00    +0.114 C 
ATOM     19  C   UNL     1      -0.122   0.977   0.006  0.00  0.00    +0.027 C 
BRANCH  18  20
ATOM     20  S   UNL     1       0.060   0.859   2.733  0.00  0.00    -0.114 S 
BRANCH  20  21
ATOM     21  C   UNL     1      -0.867   1.514   4.081  0.00  0.00    +0.009 A 
ATOM     22  C   UNL     1      -1.992   2.293   3.839  0.00  0.00    +0.015 A 
ATOM     23  C   UNL     1      -2.715   2.805   4.898  0.00  0.00    +0.005 A 
ATOM     24  C   UNL     1      -2.321   2.543   6.198  0.00  0.00    -0.047 A 
ATOM     25  C   UNL     1      -1.203   1.768   6.442  0.00  0.00    -0.046 A 
ATOM     26  C   UNL     1      -0.477   1.249   5.388  0.00  0.00    +0.018 A 
ATOM     27  C   UNL     1      -0.778   1.485   7.860  0.00  0.00    +0.044 C 
ATOM     28  C   UNL     1      -3.114   3.104   7.351  0.00  0.00    +0.044 C 
ENDBRANCH  20  21
ENDBRANCH  18  20
ENDBRANCH   8  18
TORSDOF 6
