REMARK  Name = ZINC14625212
REMARK  12 active torsions:
REMARK  status: ('A' for Active; 'I' for Inactive)
REMARK    1  A    between atoms: C_1  and  C_2
REMARK    2  A    between atoms: C_2  and  C_3
REMARK    3  A    between atoms: C_3  and  C_4
REMARK    4  A    between atoms: C_4  and  N_5
REMARK    5  A    between atoms: C_6  and  N_37
REMARK    6  A    between atoms: C_7  and  N_14
REMARK    7  A    between atoms: N_14  and  C_15
REMARK    8  A    between atoms: C_15  and  C_16
REMARK    9  A    between atoms: C_22  and  C_24
REMARK   10  A    between atoms: C_27  and  N_33
REMARK   11  A    between atoms: C_28  and  N_30
REMARK   12  A    between atoms: N_33  and  C_34
REMARK                            x       y       z     vdW  Elec       q    Type
REMARK                         _______ _______ _______ _____ _____    ______ ____
ROOT
ATOM      1  N   UNL     1       3.472  -1.158  -1.394  0.00  0.00    -0.256 N 
ATOM      2  C   UNL     1       3.522  -2.432  -1.832  0.00  0.00    +0.251 C 
ATOM      3  O   UNL     1       3.329  -3.350  -1.057  0.00  0.00    -0.270 OA
ENDROOT
BRANCH   1   6
ATOM      4  N   UNL     1       5.147   1.741  -2.906  0.00  0.00    -0.280 N 
ATOM      5  C   UNL     1       4.870   0.715  -2.032  0.00  0.00    +0.127 A 
ATOM      6  C   UNL     1       3.782  -0.098  -2.272  0.00  0.00    +0.140 A 
ATOM      7  C   UNL     1       2.989   0.145  -3.409  0.00  0.00    +0.277 A 
ATOM      8  O   UNL     1       2.025  -0.562  -3.648  0.00  0.00    -0.266 OA
ATOM      9  N   UNL     1       3.301   1.167  -4.231  0.00  0.00    -0.273 N 
ATOM     10  H   UNL     1       2.734   1.345  -5.035  0.00  0.00    +0.173 HD
ATOM     11  C   UNL     1       4.366   1.949  -3.981  0.00  0.00    +0.331 A 
ATOM     12  O   UNL     1       4.627   2.861  -4.741  0.00  0.00    -0.246 OA
BRANCH   5  13
ATOM     13  N   UNL     1       5.668   0.503  -0.933  0.00  0.00    -0.343 N 
ATOM     14  H   UNL     1       5.513  -0.265  -0.362  0.00  0.00    +0.144 HD
ATOM     15  H   UNL     1       6.387   1.122  -0.729  0.00  0.00    +0.144 HD
ENDBRANCH   5  13
BRANCH   4  16
ATOM     16  C   UNL     1       6.300   2.612  -2.664  0.00  0.00    +0.128 C 
BRANCH  16  17
ATOM     17  C   UNL     1       7.534   2.030  -3.357  0.00  0.00    +0.021 C 
BRANCH  17  19
ATOM     18  C   UNL     1       9.971   2.357  -3.797  0.00  0.00    +0.004 C 
ATOM     19  C   UNL     1       8.738   2.939  -3.104  0.00  0.00    -0.002 C 
ENDBRANCH  17  19
ENDBRANCH  16  17
ENDBRANCH   4  16
ENDBRANCH   1   6
BRANCH   2  20
ATOM     20  C   UNL     1       3.810  -2.713  -3.252  0.00  0.00    +0.040 A 
ATOM     21  C   UNL     1       4.597  -1.828  -3.995  0.00  0.00    +0.015 A 
ATOM     22  C   UNL     1       4.869  -2.096  -5.317  0.00  0.00    +0.026 A 
ATOM     23  C   UNL     1       4.351  -3.241  -5.918  0.00  0.00    +0.058 A 
ATOM     24  C   UNL     1       3.563  -4.121  -5.181  0.00  0.00    +0.148 A 
ATOM     25  C   UNL     1       3.292  -3.862  -3.857  0.00  0.00    +0.047 A 
BRANCH  24  26
ATOM     26  N   UNL     1       3.016  -5.338  -5.823  0.00  0.00    +0.058 N 
ATOM     27  O   UNL     1       2.233  -6.047  -5.216  0.00  0.00    -0.126 OA
ATOM     28  O   UNL     1       3.348  -5.629  -6.958  0.00  0.00    -0.126 OA
ENDBRANCH  24  26
BRANCH  23  29
ATOM     29  N   UNL     1       4.624  -3.507  -7.255  0.00  0.00    -0.339 N 
ATOM     30  H   UNL     1       4.186  -4.249  -7.701  0.00  0.00    +0.146 HD
BRANCH  29  31
ATOM     31  C   UNL     1       5.571  -2.666  -7.991  0.00  0.00    +0.071 C 
ATOM     32  C   UNL     1       5.132  -2.136  -9.357  0.00  0.00    +0.024 C 
ATOM     33  C   UNL     1       6.184  -3.243  -9.268  0.00  0.00    +0.024 C 
ENDBRANCH  29  31
ENDBRANCH  23  29
ENDBRANCH   2  20
BRANCH   1  34
ATOM     34  C   UNL     1       3.095  -0.875  -0.007  0.00  0.00    +0.149 C 
BRANCH  34  35
ATOM     35  C   UNL     1       1.594  -0.792   0.099  0.00  0.00    -0.030 A 
ATOM     36  C   UNL     1       0.850  -1.942   0.288  0.00  0.00    +0.005 A 
ATOM     37  C   UNL     1      -0.527  -1.866   0.385  0.00  0.00    +0.000 A 
ATOM     38  C   UNL     1      -1.160  -0.640   0.294  0.00  0.00    +0.000 A 
ATOM     39  C   UNL     1      -0.415   0.509   0.106  0.00  0.00    +0.000 A 
ATOM     40  C   UNL     1       0.961   0.433   0.008  0.00  0.00    +0.005 A 
ENDBRANCH  34  35
ENDBRANCH   1  34
TORSDOF 11
