REMARK  Name = ZINC35885931
REMARK  7 active torsions:
REMARK  status: ('A' for Active; 'I' for Inactive)
REMARK    1  A    between atoms: C_4  and  C_7
REMARK    2  A    between atoms: C_7  and  C_8
REMARK    3  A    between atoms: N_11  and  C_14
REMARK    4  A    between atoms: C_14  and  C_15
REMARK    5  A    between atoms: C_20  and  C_22
REMARK    6  A    between atoms: C_26  and  C_28
REMARK    7  A    between atoms: C_32  and  C_34
REMARK                            x       y       z     vdW  Elec       q    Type
REMARK                         _______ _______ _______ _____ _____    ______ ____
ROOT
ATOM      1  C   UNL     1       8.134  -1.605   4.665  0.00  0.00    -0.001 C 
ATOM      2  C   UNL     1       9.187  -0.697   3.995  0.00  0.00    +0.110 C 
ATOM      3  N   UNL     1       9.896  -0.051   5.124  0.00  0.00    -0.294 N 
ATOM      4  C   UNL     1      10.033  -1.127   6.134  0.00  0.00    +0.116 C 
ATOM      5  C   UNL     1       8.690  -1.891   6.075  0.00  0.00    +0.039 C 
ATOM      6  C   UNL     1      10.321   1.225   5.213  0.00  0.00    +0.282 C 
ATOM      7  O   UNL     1      10.131   1.995   4.289  0.00  0.00    -0.267 OA
ENDROOT
BRANCH   5   8
ATOM      8  C   UNL     1       8.919  -3.370   6.258  0.00  0.00    -0.042 A 
ATOM      9  C   UNL     1       9.798  -4.041   5.429  0.00  0.00    +0.004 A 
ATOM     10  C   UNL     1      10.008  -5.397   5.597  0.00  0.00    +0.001 A 
ATOM     11  C   UNL     1       9.338  -6.082   6.595  0.00  0.00    +0.012 A 
ATOM     12  C   UNL     1       8.460  -5.410   7.424  0.00  0.00    +0.055 A 
ATOM     13  C   UNL     1       8.254  -4.053   7.259  0.00  0.00    +0.016 A 
BRANCH  12  14
ATOM     14  C   UNL     1       7.730  -6.156   8.511  0.00  0.00    +0.417 C 
ATOM     15  F   UNL     1       8.104  -7.504   8.483  0.00  0.00    -0.166 F 
ATOM     16  F   UNL     1       8.059  -5.607   9.755  0.00  0.00    -0.166 F 
ATOM     17  F   UNL     1       6.351  -6.050   8.305  0.00  0.00    -0.166 F 
ENDBRANCH  12  14
ENDBRANCH   5   8
BRANCH   6  18
ATOM     18  C   UNL     1      11.011   1.686   6.422  0.00  0.00    +0.189 A 
ATOM     19  C   UNL     1      11.485   2.947   6.643  0.00  0.00    +0.054 A 
ATOM     20  C   UNL     1      12.067   2.940   7.920  0.00  0.00    +0.042 A 
ATOM     21  C   UNL     1      11.925   1.692   8.416  0.00  0.00    +0.196 A 
ATOM     22  O   UNL     1      11.283   0.940   7.512  0.00  0.00    -0.458 OA
ENDBRANCH   6  18
BRANCH   1  23
ATOM     23  C   UNL     1       6.789  -0.881   4.760  0.00  0.00    -0.073 C 
BRANCH  23  27
ATOM     24  C   UNL     1       4.171  -0.963   1.399  0.00  0.00    -0.010 C 
ATOM     25  C   UNL     1       4.474   0.372   2.086  0.00  0.00    -0.015 C 
ATOM     26  C   UNL     1       5.009   0.105   3.494  0.00  0.00    -0.079 C 
ATOM     27  N   UNL     1       6.237  -0.694   3.412  0.00  0.00    +0.380 N 
ATOM     28  C   UNL     1       5.941  -2.004   2.819  0.00  0.00    -0.079 C 
ATOM     29  C   UNL     1       5.442  -1.818   1.385  0.00  0.00    -0.015 C 
ATOM     30  H   UNL     1       6.913  -0.211   2.838  0.00  0.00    -0.082 HD
BRANCH  24  31
ATOM     31  C   UNL     1       3.711  -0.707  -0.038  0.00  0.00    +0.038 C 
BRANCH  31  35
ATOM     32  C   UNL     1      -0.017   1.378   0.010  0.00  0.00    +0.000 A 
ATOM     33  C   UNL     1       1.171   2.086   0.002  0.00  0.00    +0.000 A 
ATOM     34  C   UNL     1       2.377   1.411  -0.013  0.00  0.00    +0.003 A 
ATOM     35  C   UNL     1       2.396   0.029  -0.020  0.00  0.00    -0.047 A 
ATOM     36  C   UNL     1       1.208  -0.679  -0.012  0.00  0.00    +0.003 A 
ATOM     37  C   UNL     1       0.002  -0.004   0.002  0.00  0.00    +0.000 A 
ENDBRANCH  31  35
ENDBRANCH  24  31
ENDBRANCH  23  27
ENDBRANCH   1  23
TORSDOF 7
