REMARK  Name = ZINC34835157
REMARK  19 active torsions:
REMARK  status: ('A' for Active; 'I' for Inactive)
REMARK    1  A    between atoms: C_1  and  C_2
REMARK    2  A    between atoms: C_2  and  C_3
REMARK    3  A    between atoms: C_3  and  C_4
REMARK    4  A    between atoms: C_4  and  C_5
REMARK    5  A    between atoms: C_5  and  C_7
REMARK    6  A    between atoms: C_5  and  C_9
REMARK    7  A    between atoms: C_7  and  C_8
REMARK    8  A    between atoms: N_11  and  C_12
REMARK    9  A    between atoms: N_11  and  C_17
REMARK   10  A    between atoms: C_12  and  C_13
REMARK   11  A    between atoms: C_13  and  C_14
REMARK   12  A    between atoms: C_14  and  O_15
REMARK   13  A    between atoms: O_15  and  C_16
REMARK   14  A    between atoms: C_17  and  C_18
REMARK   15  A    between atoms: C_19  and  C_37
REMARK   16  A    between atoms: N_21  and  C_31
REMARK   17  A    between atoms: C_22  and  N_23
REMARK   18  A    between atoms: N_26  and  C_29
REMARK   19  A    between atoms: C_29  and  C_30
REMARK                            x       y       z     vdW  Elec       q    Type
REMARK                         _______ _______ _______ _____ _____    ______ ____
ROOT
ATOM      1  C   UNL     1       3.700  -6.821   2.594  0.00  0.00    +0.032 A 
ATOM      2  C   UNL     1       4.064  -6.608   1.261  0.00  0.00    +0.067 A 
ATOM      3  N   UNL     1       5.330  -6.909   1.124  0.00  0.00    -0.170 NA
ATOM      4  N   UNL     1       5.824  -7.326   2.366  0.00  0.00    -0.218 N 
ATOM      5  C   UNL     1       4.802  -7.260   3.263  0.00  0.00    +0.130 A 
ATOM      6  C   UNL     1       3.152  -6.115   0.167  0.00  0.00    +0.068 C 
ENDROOT
BRANCH   5   7
ATOM      7  N   UNL     1       4.870  -7.583   4.615  0.00  0.00    -0.318 N 
ATOM      8  C   UNL     1       4.730  -8.976   5.067  0.00  0.00    +0.088 C 
ATOM      9  C   UNL     1       5.898  -9.302   6.004  0.00  0.00    -0.060 C 
ATOM     10  N   UNL     1       5.943  -8.315   7.090  0.00  0.00    +0.382 N 
ATOM     11  C   UNL     1       6.236  -6.984   6.543  0.00  0.00    -0.060 C 
ATOM     12  C   UNL     1       5.091  -6.543   5.632  0.00  0.00    +0.088 C 
ATOM     13  H   UNL     1       5.052  -8.294   7.562  0.00  0.00    -0.082 HD
BRANCH  10  14
ATOM     14  C   UNL     1       6.992  -8.690   8.047  0.00  0.00    -0.082 C 
ATOM     15  C   UNL     1       6.959  -7.734   9.241  0.00  0.00    -0.017 C 
ENDBRANCH  10  14
ENDBRANCH   5   7
BRANCH   4  16
ATOM     16  C   UNL     1       7.137  -7.734   2.639  0.00  0.00    +0.067 A 
ATOM     17  C   UNL     1       7.811  -7.222   3.739  0.00  0.00    +0.028 A 
ATOM     18  C   UNL     1       9.104  -7.626   4.005  0.00  0.00    +0.002 A 
ATOM     19  C   UNL     1       9.728  -8.541   3.177  0.00  0.00    +0.000 A 
ATOM     20  C   UNL     1       9.060  -9.053   2.080  0.00  0.00    +0.002 A 
ATOM     21  C   UNL     1       7.764  -8.657   1.812  0.00  0.00    +0.028 A 
ENDBRANCH   4  16
BRANCH   1  22
ATOM     22  C   UNL     1       2.333  -6.599   3.187  0.00  0.00    +0.148 C 
BRANCH  22  25
ATOM     23  C   UNL     1       1.544  -4.371   2.594  0.00  0.00    +0.219 C 
ATOM     24  O   UNL     1       1.085  -4.836   1.573  0.00  0.00    -0.275 OA
ATOM     25  N   UNL     1       2.155  -5.176   3.486  0.00  0.00    -0.297 N 
BRANCH  23  26
ATOM     26  C   UNL     1       1.433  -2.893   2.866  0.00  0.00    +0.075 C 
BRANCH  26  27
ATOM     27  C   UNL     1       2.825  -2.260   2.824  0.00  0.00    +0.009 C 
ATOM     28  C   UNL     1       3.390  -2.365   1.406  0.00  0.00    +0.004 C 
ENDBRANCH  26  27
BRANCH  26  29
ATOM     29  C   UNL     1       0.546  -2.244   1.802  0.00  0.00    +0.013 C 
BRANCH  29  30
ATOM     30  C   UNL     1       0.312  -0.775   2.159  0.00  0.00    +0.000 C 
BRANCH  30  32
ATOM     31  C   UNL     1      -0.723   1.369   1.401  0.00  0.00    +0.004 C 
ATOM     32  C   UNL     1      -0.489  -0.100   1.044  0.00  0.00    -0.003 C 
ENDBRANCH  30  32
ENDBRANCH  29  30
ENDBRANCH  26  29
ENDBRANCH  23  26
BRANCH  25  33
ATOM     33  C   UNL     1       2.641  -4.628   4.754  0.00  0.00    +0.110 C 
BRANCH  33  34
ATOM     34  C   UNL     1       1.569  -4.805   5.831  0.00  0.00    +0.047 C 
BRANCH  34  35
ATOM     35  C   UNL     1       2.077  -4.233   7.156  0.00  0.00    +0.161 C 
BRANCH  35  36
ATOM     36  O   UNL     1       1.075  -4.399   8.162  0.00  0.00    -0.383 OA
ATOM     37  C   UNL     1       1.451  -3.894   9.445  0.00  0.00    +0.193 C 
ENDBRANCH  35  36
ENDBRANCH  34  35
ENDBRANCH  33  34
ENDBRANCH  25  33
ENDBRANCH  22  25
ENDBRANCH   1  22
TORSDOF 14
