REMARK  Name = ZINC12243031
REMARK  6 active torsions:
REMARK  status: ('A' for Active; 'I' for Inactive)
REMARK    1  A    between atoms: C_5  and  N_7
REMARK    2  A    between atoms: C_12  and  C_13
REMARK    3  A    between atoms: C_12  and  N_63
REMARK    4  A    between atoms: N_22  and  C_25
REMARK    5  A    between atoms: C_25  and  C_26
REMARK    6  A    between atoms: C_29  and  C_32
REMARK                            x       y       z     vdW  Elec       q    Type
REMARK                         _______ _______ _______ _____ _____    ______ ____
ROOT
ATOM      1  C   UNL     1     -10.182  -0.461  -1.808  0.00  0.00    +0.003 A 
ATOM      2  C   UNL     1     -10.756  -1.298  -2.756  0.00  0.00    +0.014 A 
ATOM      3  C   UNL     1     -10.001  -1.753  -3.823  0.00  0.00    +0.051 A 
ATOM      4  C   UNL     1      -8.651  -1.359  -3.947  0.00  0.00    +0.070 A 
ATOM      5  C   UNL     1      -8.084  -0.524  -2.987  0.00  0.00    +0.043 A 
ATOM      6  C   UNL     1      -8.863  -0.077  -1.917  0.00  0.00    +0.024 A 
ATOM      7  C   UNL     1      -8.150  -2.014  -5.167  0.00  0.00    +0.256 C 
ATOM      8  O   UNL     1      -7.022  -1.920  -5.610  0.00  0.00    -0.269 OA
ATOM      9  N   UNL     1      -9.149  -2.730  -5.714  0.00  0.00    -0.230 N 
ATOM     10  C   UNL     1     -10.274  -2.628  -4.982  0.00  0.00    +0.254 C 
ATOM     11  O   UNL     1     -11.334  -3.165  -5.232  0.00  0.00    -0.270 OA
ENDROOT
BRANCH   5  12
ATOM     12  N   UNL     1      -6.756  -0.136  -3.094  0.00  0.00    -0.333 N 
ATOM     13  C   UNL     1      -6.642   1.326  -3.195  0.00  0.00    +0.086 C 
ATOM     14  C   UNL     1      -5.173   1.707  -3.392  0.00  0.00    -0.060 C 
ATOM     15  C   UNL     1      -4.496  -0.265  -2.163  0.00  0.00    -0.060 C 
ATOM     16  C   UNL     1      -5.965  -0.647  -1.966  0.00  0.00    +0.086 C 
ATOM     17  N   UNL     1      -4.393   1.207  -2.241  0.00  0.00    +0.382 N 
ATOM     18  H   UNL     1      -4.772   1.614  -1.378  0.00  0.00    -0.082 HD
BRANCH  17  19
ATOM     19  C   UNL     1      -2.976   1.608  -2.378  0.00  0.00    -0.075 C 
BRANCH  19  20
ATOM     20  C   UNL     1      -2.241   1.278  -1.078  0.00  0.00    -0.024 C 
ATOM     21  C   UNL     1      -0.747   1.590  -1.236  0.00  0.00    +0.006 C 
ATOM     22  C   UNL     1      -0.013   1.086   0.008  0.00  0.00    +0.027 C 
ATOM     23  C   UNL     1      -0.710   1.567   1.247  0.00  0.00    -0.031 C 
ATOM     24  C   UNL     1      -1.919   2.020   1.272  0.00  0.00    -0.031 C 
ATOM     25  C   UNL     1      -2.797   2.136   0.060  0.00  0.00    +0.028 C 
ENDBRANCH  19  20
ENDBRANCH  17  19
ENDBRANCH   5  12
BRANCH   9  26
ATOM     26  C   UNL     1      -9.029  -3.516  -6.944  0.00  0.00    +0.152 C 
BRANCH  26  27
ATOM     27  C   UNL     1      -9.381  -2.654  -8.128  0.00  0.00    -0.030 A 
ATOM     28  C   UNL     1     -10.688  -2.593  -8.575  0.00  0.00    +0.006 A 
ATOM     29  C   UNL     1     -11.011  -1.799  -9.660  0.00  0.00    +0.013 A 
ATOM     30  C   UNL     1     -10.027  -1.071 -10.302  0.00  0.00    +0.055 A 
ATOM     31  C   UNL     1      -8.719  -1.136  -9.858  0.00  0.00    +0.013 A 
ATOM     32  C   UNL     1      -8.396  -1.927  -8.771  0.00  0.00    +0.006 A 
BRANCH  30  33
ATOM     33  C   UNL     1     -10.379  -0.208 -11.486  0.00  0.00    +0.417 C 
ATOM     34  F   UNL     1     -10.263  -0.959 -12.661  0.00  0.00    -0.166 F 
ATOM     35  F   UNL     1     -11.693   0.251 -11.353  0.00  0.00    -0.166 F 
ATOM     36  F   UNL     1      -9.506   0.884 -11.543  0.00  0.00    -0.166 F 
ENDBRANCH  30  33
ENDBRANCH  26  27
ENDBRANCH   9  26
TORSDOF 6
