REMARK  Name = ZINC11910360
REMARK  8 active torsions:
REMARK  status: ('A' for Active; 'I' for Inactive)
REMARK    1  A    between atoms: C_4  and  C_7
REMARK    2  A    between atoms: C_7  and  N_8
REMARK    3  A    between atoms: C_9  and  C_21
REMARK    4  A    between atoms: C_12  and  S_13
REMARK    5  A    between atoms: S_13  and  C_14
REMARK    6  A    between atoms: C_14  and  C_15
REMARK    7  A    between atoms: C_26  and  C_27
REMARK    8  A    between atoms: C_26  and  N_67
REMARK                            x       y       z     vdW  Elec       q    Type
REMARK                         _______ _______ _______ _____ _____    ______ ____
ROOT
ATOM      1  N   UNL     1       9.962  -3.961  -1.239  0.00  0.00    -0.301 N 
ATOM      2  C   UNL     1       9.033  -2.961  -1.153  0.00  0.00    +0.137 A 
ATOM      3  N   UNL     1       9.069  -2.301  -2.276  0.00  0.00    -0.133 NA
ATOM      4  N   UNL     1       9.957  -2.806  -3.057  0.00  0.00    -0.122 NA
ATOM      5  C   UNL     1      10.534  -3.830  -2.472  0.00  0.00    +0.192 A 
ENDROOT
BRANCH   2   6
ATOM      6  C   UNL     1       8.131  -2.679   0.020  0.00  0.00    +0.054 C 
ATOM      7  C   UNL     1       8.399  -1.265   0.543  0.00  0.00    -0.008 C 
ATOM      8  C   UNL     1       7.439  -0.962   1.696  0.00  0.00    -0.078 C 
ATOM      9  C   UNL     1       5.759  -2.436   0.760  0.00  0.00    -0.078 C 
ATOM     10  C   UNL     1       6.668  -2.782  -0.421  0.00  0.00    -0.008 C 
ATOM     11  N   UNL     1       6.050  -1.054   1.200  0.00  0.00    +0.382 N 
ATOM     12  H   UNL     1       5.938  -0.420   0.401  0.00  0.00    -0.081 HD
BRANCH  11  13
ATOM     13  C   UNL     1       5.107  -0.655   2.265  0.00  0.00    -0.043 C 
BRANCH  13  14
ATOM     14  C   UNL     1       3.725  -0.548   1.674  0.00  0.00    -0.060 A 
ATOM     15  C   UNL     1       2.885  -1.646   1.677  0.00  0.00    +0.005 A 
ATOM     16  C   UNL     1       1.617  -1.553   1.135  0.00  0.00    +0.050 A 
ATOM     17  C   UNL     1       1.183  -0.356   0.589  0.00  0.00    +0.166 A 
ATOM     18  C   UNL     1       2.028   0.751   0.586  0.00  0.00    +0.166 A 
ATOM     19  C   UNL     1       3.298   0.650   1.131  0.00  0.00    +0.051 A 
ATOM     20  O   UNL     1       1.376   1.797  -0.001  0.00  0.00    -0.453 OA
ATOM     21  C   UNL     1      -0.018   1.436   0.010  0.00  0.00    +0.466 C 
ATOM     22  O   UNL     1       0.002  -0.004   0.002  0.00  0.00    -0.453 OA
ENDBRANCH  13  14
ENDBRANCH  11  13
ENDBRANCH   2   6
BRANCH   1  23
ATOM     23  C   UNL     1      10.279  -4.964  -0.219  0.00  0.00    +0.160 C 
BRANCH  23  27
ATOM     24  C   UNL     1       7.799  -8.397  -0.780  0.00  0.00    +0.000 A 
ATOM     25  C   UNL     1       9.024  -8.318  -1.415  0.00  0.00    +0.000 A 
ATOM     26  C   UNL     1       9.827  -7.208  -1.234  0.00  0.00    +0.005 A 
ATOM     27  C   UNL     1       9.404  -6.175  -0.417  0.00  0.00    -0.028 A 
ATOM     28  C   UNL     1       8.180  -6.256   0.221  0.00  0.00    +0.005 A 
ATOM     29  C   UNL     1       7.376  -7.364   0.036  0.00  0.00    +0.000 A 
ENDBRANCH  23  27
ENDBRANCH   1  23
BRANCH   5  30
ATOM     30  S   UNL     1      11.805  -4.844  -3.151  0.00  0.00    -0.083 S 
BRANCH  30  31
ATOM     31  C   UNL     1      12.009  -4.054  -4.766  0.00  0.00    +0.109 C 
BRANCH  31  32
ATOM     32  C   UNL     1      13.095  -4.785  -5.558  0.00  0.00    +0.129 C 
ATOM     33  C   UNL     1      13.373  -4.054  -6.890  0.00  0.00    +0.034 C 
ATOM     34  C   UNL     1      13.630  -5.195  -7.899  0.00  0.00    +0.031 C 
ATOM     35  C   UNL     1      13.476  -6.482  -7.058  0.00  0.00    +0.160 C 
ATOM     36  O   UNL     1      12.635  -6.098  -5.948  0.00  0.00    -0.376 OA
ENDBRANCH  31  32
ENDBRANCH  30  31
ENDBRANCH   5  30
TORSDOF 8
