REMARK  Name = ZINC08914331
REMARK  4 active torsions:
REMARK  status: ('A' for Active; 'I' for Inactive)
REMARK    1  A    between atoms: C_4  and  C_7
REMARK    2  A    between atoms: C_7  and  C_9
REMARK    3  A    between atoms: C_11  and  C_33
REMARK    4  A    between atoms: C_33  and  C_35
REMARK                            x       y       z     vdW  Elec       q    Type
REMARK                         _______ _______ _______ _____ _____    ______ ____
ROOT
ATOM      1  C   UNL     1       3.098   0.678  -1.259  0.00  0.00    +0.108 C 
ATOM      2  C   UNL     1       4.386   1.523  -1.046  0.00  0.00    +0.140 C 
ATOM      3  C   UNL     1       6.127   1.035   0.778  0.00  0.00    +0.054 C 
ATOM      4  C   UNL     1       6.359   0.036   1.654  0.00  0.00    +0.022 C 
ATOM      5  C   UNL     1       5.256  -0.875   2.021  0.00  0.00    -0.019 A 
ATOM      6  C   UNL     1       5.532  -2.103   2.627  0.00  0.00    +0.008 A 
ATOM      7  C   UNL     1       4.497  -2.946   2.972  0.00  0.00    +0.001 A 
ATOM      8  C   UNL     1       3.186  -2.582   2.720  0.00  0.00    +0.000 A 
ATOM      9  C   UNL     1       2.902  -1.368   2.118  0.00  0.00    +0.006 A 
ATOM     10  C   UNL     1       3.926  -0.518   1.768  0.00  0.00    -0.020 A 
ATOM     11  C   UNL     1       3.644   0.807   1.110  0.00  0.00    +0.107 C 
ATOM     12  C   UNL     1       2.463   0.718   0.145  0.00  0.00    +0.107 C 
ATOM     13  C   UNL     1       1.514   1.857   0.293  0.00  0.00    -0.008 A 
ATOM     14  C   UNL     1       1.686   3.221   0.184  0.00  0.00    +0.006 A 
ATOM     15  C   UNL     1       0.565   4.018   0.390  0.00  0.00    +0.000 A 
ATOM     16  C   UNL     1      -0.664   3.466   0.689  0.00  0.00    +0.002 A 
ATOM     17  C   UNL     1      -0.845   2.097   0.803  0.00  0.00    +0.023 A 
ATOM     18  C   UNL     1       0.270   1.285   0.596  0.00  0.00    +0.038 A 
ATOM     19  N   UNL     1       0.374  -0.095   0.645  0.00  0.00    -0.284 N 
ATOM     20  C   UNL     1       1.634  -0.516   0.393  0.00  0.00    +0.231 C 
ATOM     21  O   UNL     1       2.022  -1.665   0.371  0.00  0.00    -0.274 OA
ATOM     22  H   UNL     1      -0.368  -0.689   0.838  0.00  0.00    +0.155 HD
ATOM     23  N   UNL     1       4.714   1.466   0.407  0.00  0.00    -0.384 NA
ATOM     24  H   UNL     1       4.667   2.441   0.724  0.00  0.00    +0.127 HD
ENDROOT
BRANCH   1  25
ATOM     25  C   UNL     1       3.439  -0.736  -1.656  0.00  0.00    +0.170 C 
ATOM     26  O   UNL     1       4.471  -1.241  -1.270  0.00  0.00    -0.292 OA
BRANCH  25  30
ATOM     27  C   UNL     1       0.791  -2.942  -4.128  0.00  0.00    +0.000 A 
ATOM     28  C   UNL     1       1.968  -3.524  -3.688  0.00  0.00    +0.001 A 
ATOM     29  C   UNL     1       2.834  -2.813  -2.884  0.00  0.00    +0.011 A 
ATOM     30  C   UNL     1       2.521  -1.501  -2.514  0.00  0.00    +0.018 A 
ATOM     31  C   UNL     1       1.327  -0.923  -2.957  0.00  0.00    +0.011 A 
ATOM     32  C   UNL     1       0.474  -1.645  -3.765  0.00  0.00    +0.001 A 
ENDBRANCH  25  30
ENDBRANCH   1  25
BRANCH   2  33
ATOM     33  C   UNL     1       5.431   1.169  -2.073  0.00  0.00    +0.183 C 
ATOM     34  O   UNL     1       6.296   0.363  -1.804  0.00  0.00    -0.290 OA
BRANCH  33  35
ATOM     35  C   UNL     1       5.402   1.801  -3.401  0.00  0.00    +0.019 A 
ATOM     36  C   UNL     1       4.402   2.727  -3.717  0.00  0.00    +0.011 A 
ATOM     37  C   UNL     1       4.385   3.320  -4.962  0.00  0.00    +0.001 A 
ATOM     38  C   UNL     1       5.346   2.991  -5.902  0.00  0.00    +0.000 A 
ATOM     39  C   UNL     1       6.335   2.072  -5.599  0.00  0.00    +0.001 A 
ATOM     40  C   UNL     1       6.370   1.475  -4.356  0.00  0.00    +0.011 A 
ENDBRANCH  33  35
ENDBRANCH   2  33
TORSDOF 4
