REMARK  Name = ZINC32879765
REMARK  4 active torsions:
REMARK  status: ('A' for Active; 'I' for Inactive)
REMARK    1  A    between atoms: C_1  and  C_2
REMARK    2  A    between atoms: C_2  and  C_4
REMARK    3  A    between atoms: C_2  and  N_15
REMARK    4  A    between atoms: C_18  and  C_21
REMARK                            x       y       z     vdW  Elec       q    Type
REMARK                         _______ _______ _______ _____ _____    ______ ____
ROOT
ATOM      1  N   UNL     1      -2.118   9.023  -0.131  0.00  0.00    +0.387 N 
ATOM      2  C   UNL     1      -1.993   8.299   1.141  0.00  0.00    -0.077 C 
ATOM      3  C   UNL     1      -1.923   6.795   0.869  0.00  0.00    -0.011 C 
ATOM      4  C   UNL     1      -3.192   6.355   0.133  0.00  0.00    +0.018 C 
ATOM      5  C   UNL     1      -3.323   7.158  -1.165  0.00  0.00    -0.011 C 
ATOM      6  C   UNL     1      -3.353   8.652  -0.834  0.00  0.00    -0.077 C 
ATOM      7  H   UNL     1      -1.269   8.731  -0.767  0.00  0.00    -0.081 HD
ENDROOT
BRANCH   4   8
ATOM      8  C   UNL     1      -3.102   4.886  -0.191  0.00  0.00    -0.019 A 
ATOM      9  C   UNL     1      -2.166   4.290  -0.946  0.00  0.00    +0.087 A 
ATOM     10  N   UNL     1      -2.409   2.946  -1.018  0.00  0.00    -0.360 N 
ATOM     11  H   UNL     1      -1.739   2.295  -1.598  0.00  0.00    +0.165 HD
ATOM     12  C   UNL     1      -3.537   2.635  -0.291  0.00  0.00    +0.047 A 
ATOM     13  C   UNL     1      -4.021   3.837   0.258  0.00  0.00    +0.003 A 
ATOM     14  C   UNL     1      -5.169   3.828   1.052  0.00  0.00    +0.010 A 
ATOM     15  C   UNL     1      -5.822   2.650   1.287  0.00  0.00    +0.001 A 
ATOM     16  C   UNL     1      -5.346   1.461   0.752  0.00  0.00    +0.002 A 
ATOM     17  C   UNL     1      -4.214   1.448  -0.034  0.00  0.00    +0.026 A 
ENDBRANCH   4   8
BRANCH   1  19
ATOM     18  C   UNL     1      -3.368  10.967   0.679  0.00  0.00    -0.004 C 
ATOM     19  C   UNL     1      -2.049  10.475   0.080  0.00  0.00    +0.017 C 
BRANCH  19  20
ATOM     20  C   UNL     1      -1.808  11.163  -1.239  0.00  0.00    +0.206 C 
ATOM     21  O   UNL     1      -2.064  10.591  -2.277  0.00  0.00    -0.277 OA
ATOM     22  N   UNL     1      -1.309  12.415  -1.264  0.00  0.00    -0.272 N 
ATOM     23  C   UNL     1      -1.071  13.249  -0.083  0.00  0.00    +0.118 C 
ATOM     24  C   UNL     1      -0.499  14.568  -0.629  0.00  0.00    +0.056 C 
ATOM     25  C   UNL     1      -0.465  14.376  -2.129  0.00  0.00    -0.024 A 
ATOM     26  C   UNL     1      -0.947  13.110  -2.422  0.00  0.00    +0.039 A 
ATOM     27  C   UNL     1      -1.010  12.702  -3.756  0.00  0.00    +0.024 A 
ATOM     28  C   UNL     1      -0.599  13.549  -4.763  0.00  0.00    +0.002 A 
ATOM     29  C   UNL     1      -0.120  14.810  -4.459  0.00  0.00    +0.000 A 
ATOM     30  C   UNL     1      -0.054  15.221  -3.141  0.00  0.00    +0.005 A 
ENDBRANCH  19  20
ENDBRANCH   1  19
TORSDOF 3
