REMARK  Name = ZINC40904350
REMARK  7 active torsions:
REMARK  status: ('A' for Active; 'I' for Inactive)
REMARK    1  A    between atoms: C_4  and  C_7
REMARK    2  A    between atoms: C_7  and  N_8
REMARK    3  A    between atoms: C_11  and  N_14
REMARK    4  A    between atoms: C_15  and  C_17
REMARK    5  A    between atoms: N_20  and  C_23
REMARK    6  A    between atoms: C_26  and  C_30
REMARK    7  A    between atoms: C_32  and  C_35
REMARK                            x       y       z     vdW  Elec       q    Type
REMARK                         _______ _______ _______ _____ _____    ______ ____
ROOT
ATOM      1  C   UNL     1       6.813  -3.821   6.694  0.00  0.00    +0.078 C 
ATOM      2  C   UNL     1       7.424  -2.495   7.154  0.00  0.00    +0.031 C 
ATOM      3  C   UNL     1       7.841  -2.613   8.623  0.00  0.00    +0.106 C 
ATOM      4  N   UNL     1       8.732  -3.771   8.771  0.00  0.00    -0.328 N 
ATOM      5  C   UNL     1       8.278  -5.079   8.278  0.00  0.00    +0.106 C 
ATOM      6  C   UNL     1       7.856  -4.934   6.812  0.00  0.00    +0.031 C 
ENDROOT
BRANCH   4   7
ATOM      7  C   UNL     1       9.987  -3.633   9.367  0.00  0.00    +0.065 A 
ATOM      8  C   UNL     1      10.126  -3.806  10.739  0.00  0.00    +0.027 A 
ATOM      9  C   UNL     1      11.363  -3.670  11.331  0.00  0.00    +0.013 A 
ATOM     10  C   UNL     1      12.477  -3.358  10.552  0.00  0.00    +0.025 A 
ATOM     11  C   UNL     1      12.338  -3.185   9.176  0.00  0.00    +0.052 A 
ATOM     12  C   UNL     1      11.098  -3.327   8.586  0.00  0.00    +0.145 A 
ATOM     13  F   UNL     1      10.962  -3.164   7.252  0.00  0.00    -0.204 F 
BRANCH  10  14
ATOM     14  C   UNL     1      13.809  -3.210  11.188  0.00  0.00    +0.202 A 
ATOM     15  N   UNL     1      14.954  -2.908  10.550  0.00  0.00    -0.191 NA
ATOM     16  C   UNL     1      15.938  -2.855  11.401  0.00  0.00    +0.231 A 
ATOM     17  O   UNL     1      15.459  -3.123  12.622  0.00  0.00    -0.337 OA
ATOM     18  N   UNL     1      14.066  -3.348  12.466  0.00  0.00    -0.056 NA
BRANCH  16  19
ATOM     19  C   UNL     1      17.375  -2.545  11.067  0.00  0.00    +0.078 C 
ATOM     20  C   UNL     1      18.413  -2.729  12.176  0.00  0.00    +0.014 C 
ATOM     21  C   UNL     1      18.007  -1.322  11.734  0.00  0.00    +0.014 C 
ENDBRANCH  16  19
ENDBRANCH  10  14
ENDBRANCH   4   7
BRANCH   1  23
ATOM     22  N   UNL     1       5.449  -2.776   4.914  0.00  0.00    -0.312 N 
ATOM     23  C   UNL     1       6.370  -3.698   5.258  0.00  0.00    +0.216 C 
ATOM     24  O   UNL     1       6.842  -4.429   4.414  0.00  0.00    -0.276 OA
ATOM     25  H   UNL     1       5.071  -2.192   5.589  0.00  0.00    +0.149 HD
BRANCH  22  29
ATOM     26  N   UNL     1       4.153  -0.953   1.342  0.00  0.00    +0.382 N 
ATOM     27  C   UNL     1       3.203  -1.854   2.005  0.00  0.00    -0.077 C 
ATOM     28  C   UNL     1       3.614  -2.050   3.466  0.00  0.00    +0.003 C 
ATOM     29  C   UNL     1       5.019  -2.657   3.518  0.00  0.00    +0.069 C 
ATOM     30  C   UNL     1       5.987  -1.746   2.760  0.00  0.00    +0.003 C 
ATOM     31  C   UNL     1       5.489  -1.562   1.325  0.00  0.00    -0.077 C 
ATOM     32  H   UNL     1       4.190  -0.078   1.843  0.00  0.00    -0.081 HD
BRANCH  26  33
ATOM     33  C   UNL     1       3.711  -0.707  -0.038  0.00  0.00    -0.043 C 
BRANCH  33  37
ATOM     34  C   UNL     1      -0.017   1.378   0.010  0.00  0.00    +0.000 A 
ATOM     35  C   UNL     1       1.171   2.086   0.002  0.00  0.00    +0.000 A 
ATOM     36  C   UNL     1       2.377   1.411  -0.013  0.00  0.00    +0.002 A 
ATOM     37  C   UNL     1       2.396   0.029  -0.020  0.00  0.00    -0.064 A 
ATOM     38  C   UNL     1       1.208  -0.679  -0.012  0.00  0.00    +0.002 A 
ATOM     39  C   UNL     1       0.002  -0.004   0.002  0.00  0.00    +0.000 A 
ENDBRANCH  33  37
ENDBRANCH  26  33
ENDBRANCH  22  29
ENDBRANCH   1  23
TORSDOF 7
