REMARK  Name = ZINC14162306
REMARK  8 active torsions:
REMARK  status: ('A' for Active; 'I' for Inactive)
REMARK    1  A    between atoms: C_1  and  C_2
REMARK    2  A    between atoms: C_2  and  O_3
REMARK    3  A    between atoms: O_3  and  C_4
REMARK    4  A    between atoms: C_4  and  C_6
REMARK    5  A    between atoms: C_7  and  N_38
REMARK    6  A    between atoms: C_27  and  C_29
REMARK    7  A    between atoms: C_34  and  C_36
REMARK    8  A    between atoms: C_34  and  C_37
REMARK                            x       y       z     vdW  Elec       q    Type
REMARK                         _______ _______ _______ _____ _____    ______ ____
ROOT
ATOM      1  C   UNL     1      -0.985   4.160   3.882  0.00  0.00    +0.117 C 
ATOM      2  C   UNL     1      -1.313   4.444   5.171  0.00  0.00    +0.195 C 
ATOM      3  O   UNL     1      -1.907   3.534   5.955  0.00  0.00    -0.446 OA
ATOM      4  C   UNL     1      -1.811   2.223   5.662  0.00  0.00    +0.116 C 
ATOM      5  C   UNL     1      -1.522   1.805   4.415  0.00  0.00    +0.057 C 
ATOM      6  C   UNL     1      -1.282   2.804   3.313  0.00  0.00    +0.142 C 
ATOM      7  C   UNL     1      -2.446   2.853   2.377  0.00  0.00    +0.001 A 
ATOM      8  C   UNL     1      -3.776   3.190   2.507  0.00  0.00    +0.045 A 
ATOM      9  C   UNL     1      -4.566   3.100   1.361  0.00  0.00    +0.124 A 
ATOM     10  C   UNL     1      -4.058   2.690   0.135  0.00  0.00    +0.044 A 
ATOM     11  C   UNL     1      -2.732   2.352   0.003  0.00  0.00    -0.020 A 
ATOM     12  C   UNL     1      -1.943   2.447   1.149  0.00  0.00    +0.045 A 
ATOM     13  N   UNL     1      -0.579   2.160   1.207  0.00  0.00    -0.263 N 
ATOM     14  C   UNL     1      -0.116   2.339   2.454  0.00  0.00    +0.240 C 
ATOM     15  O   UNL     1       1.024   2.163   2.828  0.00  0.00    -0.274 OA
ATOM     16  C   UNL     1       0.132   1.731  -0.004  0.00  0.00    +0.043 C 
ATOM     17  C   UNL     1       1.584   2.239   0.036  0.00  0.00    +0.026 C 
ATOM     18  C   UNL     1       2.388   1.038   0.596  0.00  0.00    +0.002 C 
ATOM     19  C   UNL     1       1.689  -0.179  -0.061  0.00  0.00    +0.002 C 
ATOM     20  C   UNL     1       0.193   0.200  -0.064  0.00  0.00    +0.026 C 
ATOM     21  C   UNL     1      -0.583   2.283  -1.236  0.00  0.00    +0.034 C 
ATOM     22  C   UNL     1      -2.065   1.893  -1.260  0.00  0.00    +0.020 C 
ATOM     23  C   UNL     1      -2.745   2.552  -2.461  0.00  0.00    +0.012 C 
ATOM     24  F   UNL     1      -5.875   3.425   1.447  0.00  0.00    -0.205 F 
ATOM     25  C   UNL     1      -1.438   0.434   4.104  0.00  0.00    +0.165 C 
ATOM     26  O   UNL     1      -1.159   0.095   2.972  0.00  0.00    -0.292 OA
ATOM     27  C   UNL     1      -1.687  -0.619   5.150  0.00  0.00    +0.086 C 
ATOM     28  C   UNL     1      -2.647  -0.054   6.203  0.00  0.00    -0.021 C 
ATOM     29  C   UNL     1      -2.039   1.228   6.775  0.00  0.00    +0.081 C 
ATOM     30  C   UNL     1      -3.995   0.262   5.552  0.00  0.00    +0.012 C 
ATOM     31  C   UNL     1      -2.840  -1.077   7.324  0.00  0.00    +0.012 C 
ENDROOT
BRANCH   2  32
ATOM     32  N   UNL     1      -1.030   5.684   5.678  0.00  0.00    -0.329 N 
ATOM     33  H   UNL     1      -0.226   6.150   5.400  0.00  0.00    +0.145 HD
ATOM     34  H   UNL     1      -1.634   6.097   6.315  0.00  0.00    +0.145 HD
ENDBRANCH   2  32
BRANCH   1  35
ATOM     35  C   UNL     1      -0.369   5.136   3.084  0.00  0.00    +0.342 C 
ATOM     36  O   UNL     1      -0.029   6.198   3.574  0.00  0.00    -0.245 OA
BRANCH  35  37
ATOM     37  O   UNL     1      -0.153   4.898   1.772  0.00  0.00    -0.462 OA
BRANCH  37  39
ATOM     38  C   UNL     1       0.638   5.487  -0.434  0.00  0.00    +0.048 C 
ATOM     39  C   UNL     1       0.479   5.935   1.020  0.00  0.00    +0.229 C 
ENDBRANCH  37  39
ENDBRANCH  35  37
ENDBRANCH   1  35
TORSDOF 4
