REMARK  Name = ZINC01980902
REMARK  7 active torsions:
REMARK  status: ('A' for Active; 'I' for Inactive)
REMARK    1  A    between atoms: C_1  and  C_2
REMARK    2  A    between atoms: C_5  and  N_9
REMARK    3  A    between atoms: C_6  and  C_8
REMARK    4  A    between atoms: C_10  and  C_12
REMARK    5  A    between atoms: C_12  and  C_14
REMARK    6  A    between atoms: C_12  and  N_15
REMARK    7  A    between atoms: C_22  and  C_25
REMARK                            x       y       z     vdW  Elec       q    Type
REMARK                         _______ _______ _______ _____ _____    ______ ____
ROOT
ATOM      1  N   UNL     1       2.407   1.044  -0.032  0.00  0.00    -0.287 N 
ATOM      2  C   UNL     1       2.524   0.163  -1.058  0.00  0.00    +0.204 A 
ATOM      3  N   UNL     1       3.515  -0.687  -1.109  0.00  0.00    -0.230 NA
ATOM      4  C   UNL     1       4.441  -0.717  -0.155  0.00  0.00    +0.116 A 
ATOM      5  C   UNL     1       4.402   0.156   0.946  0.00  0.00    +0.080 A 
ATOM      6  C   UNL     1       3.307   1.077   0.968  0.00  0.00    +0.263 A 
ATOM      7  O   UNL     1       3.190   1.877   1.880  0.00  0.00    -0.267 OA
ATOM      8  C   UNL     1       5.491  -0.007   1.901  0.00  0.00    +0.004 A 
ATOM      9  C   UNL     1       6.429  -0.956   1.666  0.00  0.00    +0.056 A 
ATOM     10  S   UNL     1       5.896  -1.690   0.132  0.00  0.00    -0.076 S 
ENDROOT
BRANCH   8  11
ATOM     11  C   UNL     1       5.571   0.851   3.108  0.00  0.00    -0.016 A 
ATOM     12  C   UNL     1       5.471   2.236   2.990  0.00  0.00    +0.010 A 
ATOM     13  C   UNL     1       5.541   3.029   4.117  0.00  0.00    +0.020 A 
ATOM     14  C   UNL     1       5.721   2.452   5.362  0.00  0.00    +0.041 A 
ATOM     15  C   UNL     1       5.826   1.077   5.485  0.00  0.00    +0.020 A 
ATOM     16  C   UNL     1       5.752   0.275   4.365  0.00  0.00    +0.010 A 
ATOM     17 CL   UNL     1       5.815   3.456   6.775  0.00  0.00    -0.084 Cl
ENDBRANCH   8  11
BRANCH   1  18
ATOM     18  C   UNL     1       1.280   1.980  -0.015  0.00  0.00    +0.174 C 
ATOM     19  C   UNL     1       1.330   2.861  -1.265  0.00  0.00    +0.041 C 
BRANCH  18  21
ATOM     20  N   UNL     1      -1.191   1.867   0.018  0.00  0.00    -0.284 N 
ATOM     21  C   UNL     1      -0.014   1.209   0.005  0.00  0.00    +0.240 C 
ATOM     22  O   UNL     1       0.003  -0.004   0.005  0.00  0.00    -0.273 OA
ATOM     23  H   UNL     1      -1.205   2.833   0.099  0.00  0.00    +0.155 HD
BRANCH  20  28
ATOM     24  C   UNL     1      -6.057  -1.018  -0.402  0.00  0.00    +0.044 C 
ATOM     25  C   UNL     1      -4.765  -0.252  -0.291  0.00  0.00    -0.050 A 
ATOM     26  C   UNL     1      -3.597  -0.791  -0.800  0.00  0.00    +0.005 A 
ATOM     27  C   UNL     1      -2.411  -0.091  -0.699  0.00  0.00    +0.024 A 
ATOM     28  C   UNL     1      -2.391   1.155  -0.086  0.00  0.00    +0.036 A 
ATOM     29  C   UNL     1      -3.564   1.691   0.428  0.00  0.00    -0.029 A 
ATOM     30  C   UNL     1      -4.748   0.989   0.320  0.00  0.00    +0.008 A 
ATOM     31  C   UNL     1      -3.546   3.040   1.100  0.00  0.00    +0.045 C 
ENDBRANCH  20  28
ENDBRANCH  18  21
ENDBRANCH   1  18
TORSDOF 4
