REMARK  Name = ZINC39704140
REMARK  14 active torsions:
REMARK  status: ('A' for Active; 'I' for Inactive)
REMARK    1  A    between atoms: C_1  and  C_2
REMARK    2  A    between atoms: C_2  and  O_3
REMARK    3  A    between atoms: O_3  and  C_4
REMARK    4  A    between atoms: C_4  and  C_6
REMARK    5  A    between atoms: C_8  and  C_35
REMARK    6  A    between atoms: C_10  and  C_32
REMARK    7  A    between atoms: C_13  and  N_15
REMARK    8  A    between atoms: C_16  and  C_18
REMARK    9  A    between atoms: C_18  and  S_19
REMARK   10  A    between atoms: S_19  and  C_20
REMARK   11  A    between atoms: C_24  and  C_27
REMARK   12  A    between atoms: C_27  and  C_28
REMARK   13  A    between atoms: C_28  and  C_29
REMARK   14  A    between atoms: C_32  and  C_34
REMARK                            x       y       z     vdW  Elec       q    Type
REMARK                         _______ _______ _______ _____ _____    ______ ____
ROOT
ATOM      1  N   UNL     1       1.571  -1.262  -4.771  0.00  0.00    -0.302 N 
ATOM      2  C   UNL     1       1.500  -1.584  -6.077  0.00  0.00    +0.224 C 
ATOM      3  O   UNL     1       0.716  -2.429  -6.452  0.00  0.00    -0.275 OA
ATOM      4  H   UNL     1       2.199  -0.585  -4.471  0.00  0.00    +0.150 HD
ENDROOT
BRANCH   1   9
ATOM      5  C   UNL     1       1.499  -2.351  -2.552  0.00  0.00    +0.132 C 
ATOM      6  C   UNL     1       1.608  -3.866  -2.381  0.00  0.00    +0.022 C 
ATOM      7  C   UNL     1       0.351  -4.566  -2.967  0.00  0.00    +0.118 C 
ATOM      8  S   UNL     1       0.099  -3.534  -4.477  0.00  0.00    -0.126 S 
ATOM      9  C   UNL     1       0.701  -1.934  -3.802  0.00  0.00    +0.146 C 
ATOM     10  C   UNL     1       1.724  -4.200  -0.892  0.00  0.00    +0.010 C 
BRANCH   7  11
ATOM     11  C   UNL     1       0.638  -6.002  -3.324  0.00  0.00    +0.143 C 
ATOM     12  O   UNL     1       0.385  -6.882  -2.537  0.00  0.00    -0.297 OA
ATOM     13  C   UNL     1       1.242  -6.339  -4.663  0.00  0.00    +0.087 C 
ENDBRANCH   7  11
BRANCH   5  14
ATOM     14  C   UNL     1       0.824  -1.775  -1.334  0.00  0.00    +0.313 C 
ATOM     15  O   UNL     1      -0.382  -1.736  -1.273  0.00  0.00    -0.250 OA
BRANCH  14  16
ATOM     16  O   UNL     1       1.562  -1.306  -0.316  0.00  0.00    -0.465 OA
BRANCH  16  18
ATOM     17  C   UNL     1       1.858  -0.291   1.857  0.00  0.00    +0.048 C 
ATOM     18  C   UNL     1       0.856  -0.774   0.807  0.00  0.00    +0.229 C 
ENDBRANCH  16  18
ENDBRANCH  14  16
ENDBRANCH   5  14
ENDBRANCH   1   9
BRANCH   2  19
ATOM     19  C   UNL     1       2.396  -0.893  -7.073  0.00  0.00    +0.173 C 
BRANCH  19  20
ATOM     20  S   UNL     1       2.064  -1.540  -8.735  0.00  0.00    -0.075 S 
BRANCH  20  21
ATOM     21  C   UNL     1       3.174  -0.645  -9.770  0.00  0.00    +0.213 A 
ATOM     22  N   UNL     1       3.189  -0.882 -11.076  0.00  0.00    -0.180 NA
ATOM     23  C   UNL     1       4.028  -0.204 -11.852  0.00  0.00    +0.296 A 
ATOM     24  O   UNL     1       4.065  -0.425 -13.189  0.00  0.00    -0.264 OA
ATOM     25  C   UNL     1       4.870   0.740 -11.263  0.00  0.00    +0.130 A 
ATOM     26  N   UNL     1       4.810   0.932  -9.959  0.00  0.00    -0.146 NA
ATOM     27  N   UNL     1       3.982   0.263  -9.236  0.00  0.00    -0.122 NA
BRANCH  25  28
ATOM     28  C   UNL     1       5.837   1.530 -12.107  0.00  0.00    +0.074 C 
BRANCH  28  29
ATOM     29  C   UNL     1       5.161   2.816 -12.589  0.00  0.00    +0.131 C 
BRANCH  29  30
ATOM     30  C   UNL     1       6.128   3.606 -13.432  0.00  0.00    +0.356 C 
ATOM     31  O   UNL     1       7.254   3.181 -13.629  0.00  0.00    -0.246 OA
ATOM     32  O   UNL     1       5.785   4.670 -13.917  0.00  0.00    -0.246 OA
ENDBRANCH  29  30
ENDBRANCH  28  29
ENDBRANCH  25  28
ENDBRANCH  20  21
ENDBRANCH  19  20
ENDBRANCH   2  19
TORSDOF 11
