REMARK  Name = ZINC12079087
REMARK  9 active torsions:
REMARK  status: ('A' for Active; 'I' for Inactive)
REMARK    1  A    between atoms: C_1  and  N_2
REMARK    2  A    between atoms: N_2  and  C_3
REMARK    3  A    between atoms: N_2  and  C_4
REMARK    4  A    between atoms: C_5  and  C_16
REMARK    5  A    between atoms: C_16  and  N_17
REMARK    6  A    between atoms: N_17  and  C_18
REMARK    7  A    between atoms: C_18  and  C_19
REMARK    8  A    between atoms: C_25  and  C_27
REMARK    9  A    between atoms: C_28  and  C_29
REMARK                            x       y       z     vdW  Elec       q    Type
REMARK                         _______ _______ _______ _____ _____    ______ ____
ROOT
ATOM      1  C   UNL     1       3.678  -6.184  -0.156  0.00  0.00    +0.146 C 
ENDROOT
BRANCH   1   3
ATOM      2  C   UNL     1       4.987  -6.924  -2.179  0.00  0.00    +0.103 A 
ATOM      3  C   UNL     1       3.744  -6.723  -1.562  0.00  0.00    +0.008 A 
ATOM      4  C   UNL     1       2.597  -7.020  -2.234  0.00  0.00    +0.018 A 
ATOM      5  C   UNL     1       2.701  -7.516  -3.549  0.00  0.00    +0.002 A 
ATOM      6  C   UNL     1       1.558  -7.836  -4.299  0.00  0.00    +0.059 A 
ATOM      7  C   UNL     1       1.692  -8.321  -5.567  0.00  0.00    +0.167 A 
ATOM      8  C   UNL     1       2.965  -8.505  -6.132  0.00  0.00    +0.168 A 
ATOM      9  C   UNL     1       4.093  -8.201  -5.423  0.00  0.00    +0.075 A 
ATOM     10  C   UNL     1       3.986  -7.699  -4.117  0.00  0.00    +0.051 A 
ATOM     11  O   UNL     1       2.809  -8.997  -7.396  0.00  0.00    -0.453 OA
ATOM     12  C   UNL     1       1.461  -9.500  -7.450  0.00  0.00    +0.466 C 
ATOM     13  O   UNL     1       0.754  -8.699  -6.486  0.00  0.00    -0.453 OA
ATOM     14  N   UNL     1       5.149  -7.404  -3.437  0.00  0.00    -0.343 N 
ATOM     15  H   UNL     1       6.076  -7.539  -3.856  0.00  0.00    +0.167 HD
BRANCH   2  17
ATOM     16  C   UNL     1       6.621  -7.784  -0.717  0.00  0.00    +0.130 C 
ATOM     17  N   UNL     1       6.147  -6.622  -1.480  0.00  0.00    -0.322 N 
ATOM     18  C   UNL     1       7.192  -6.125  -2.385  0.00  0.00    +0.130 C 
ENDBRANCH   2  17
ENDBRANCH   1   3
BRANCH   1  19
ATOM     19  N   UNL     1       3.838  -4.728  -0.183  0.00  0.00    -0.291 N 
ATOM     20  C   UNL     1       2.773  -3.938  -0.421  0.00  0.00    +0.240 C 
ATOM     21  O   UNL     1       1.678  -4.433  -0.614  0.00  0.00    -0.271 OA
BRANCH  20  22
ATOM     22  C   UNL     1       2.932  -2.482  -0.447  0.00  0.00    +0.068 C 
ATOM     23  C   UNL     1       1.867  -1.692  -0.685  0.00  0.00    +0.013 C 
BRANCH  23  24
ATOM     24  C   UNL     1       2.028  -0.229  -0.712  0.00  0.00    -0.022 A 
ATOM     25  C   UNL     1       0.924   0.595  -0.959  0.00  0.00    +0.008 A 
ATOM     26  C   UNL     1       1.081   1.965  -0.982  0.00  0.00    +0.003 A 
ATOM     27  C   UNL     1       2.327   2.526  -0.762  0.00  0.00    +0.038 A 
ATOM     28  C   UNL     1       3.425   1.718  -0.517  0.00  0.00    +0.124 A 
ATOM     29  C   UNL     1       3.283   0.344  -0.491  0.00  0.00    +0.046 A 
ATOM     30  F   UNL     1       4.638   2.275  -0.303  0.00  0.00    -0.205 F 
ENDBRANCH  23  24
ENDBRANCH  20  22
BRANCH  19  31
ATOM     31  C   UNL     1       5.156  -4.132   0.049  0.00  0.00    +0.140 C 
BRANCH  31  32
ATOM     32  C   UNL     1       5.274  -3.711   1.516  0.00  0.00    +0.136 C 
ATOM     33  C   UNL     1       6.606  -2.967   1.756  0.00  0.00    +0.035 C 
ATOM     34  C   UNL     1       7.051  -3.436   3.159  0.00  0.00    +0.031 C 
ATOM     35  C   UNL     1       5.935  -4.409   3.601  0.00  0.00    +0.160 C 
ATOM     36  O   UNL     1       5.343  -4.875   2.369  0.00  0.00    -0.375 OA
ENDBRANCH  31  32
ENDBRANCH  19  31
ENDBRANCH   1  19
TORSDOF 7
