REMARK  Name = ZINC06281789
REMARK  9 active torsions:
REMARK  status: ('A' for Active; 'I' for Inactive)
REMARK    1  A    between atoms: C_1  and  C_2
REMARK    2  A    between atoms: C_9  and  C_14
REMARK    3  A    between atoms: C_14  and  C_16
REMARK    4  A    between atoms: C_14  and  N_65
REMARK    5  A    between atoms: N_20  and  C_21
REMARK    6  A    between atoms: C_21  and  C_22
REMARK    7  A    between atoms: C_21  and  C_23
REMARK    8  A    between atoms: C_21  and  C_24
REMARK    9  A    between atoms: N_27  and  C_30
REMARK                            x       y       z     vdW  Elec       q    Type
REMARK                         _______ _______ _______ _____ _____    ______ ____
ROOT
ATOM      1  C   UNL     1       3.493   0.618  -0.307  0.00  0.00    +0.039 C 
ENDROOT
BRANCH   1  10
ATOM      2  C   UNL     1       6.357  -0.645  -7.075  0.00  0.00    +0.044 C 
ATOM      3  C   UNL     1       5.690   0.269  -6.081  0.00  0.00    -0.050 A 
ATOM      4  C   UNL     1       5.381   1.573  -6.444  0.00  0.00    +0.005 A 
ATOM      5  C   UNL     1       4.769   2.425  -5.550  0.00  0.00    +0.026 A 
ATOM      6  C   UNL     1       4.460   1.978  -4.270  0.00  0.00    +0.049 A 
ATOM      7  C   UNL     1       4.775   0.655  -3.906  0.00  0.00    -0.001 A 
ATOM      8  C   UNL     1       5.394  -0.193  -4.829  0.00  0.00    +0.013 A 
ATOM      9  C   UNL     1       4.450   0.195  -2.554  0.00  0.00    +0.017 A 
ATOM     10  C   UNL     1       3.845   1.061  -1.703  0.00  0.00    +0.011 A 
ATOM     11  C   UNL     1       3.551   2.377  -2.119  0.00  0.00    +0.251 A 
ATOM     12  O   UNL     1       3.011   3.140  -1.336  0.00  0.00    -0.268 OA
ATOM     13  N   UNL     1       3.850   2.810  -3.356  0.00  0.00    -0.322 N 
ATOM     14  H   UNL     1       3.633   3.721  -3.609  0.00  0.00    +0.169 HD
ENDBRANCH   1  10
BRANCH   1  20
ATOM     15  C   UNL     1       5.552   1.625   0.474  0.00  0.00    -0.058 C 
ATOM     16  C   UNL     1       6.132   2.650   1.452  0.00  0.00    +0.086 C 
ATOM     17  N   UNL     1       5.809   2.248   2.828  0.00  0.00    -0.331 N 
ATOM     18  C   UNL     1       4.355   2.160   3.020  0.00  0.00    +0.086 C 
ATOM     19  C   UNL     1       3.775   1.135   2.042  0.00  0.00    -0.058 C 
ATOM     20  N   UNL     1       4.088   1.563   0.662  0.00  0.00    +0.391 N 
ATOM     21  H   UNL     1       3.691   2.496   0.504  0.00  0.00    -0.080 HD
BRANCH  17  22
ATOM     22  C   UNL     1       6.385   3.123   3.754  0.00  0.00    +0.065 A 
ATOM     23  C   UNL     1       6.261   2.878   5.114  0.00  0.00    +0.026 A 
ATOM     24  C   UNL     1       6.834   3.742   6.027  0.00  0.00    +0.002 A 
ATOM     25  C   UNL     1       7.524   4.857   5.587  0.00  0.00    +0.003 A 
ATOM     26  C   UNL     1       7.647   5.109   4.233  0.00  0.00    +0.040 A 
ATOM     27  C   UNL     1       7.079   4.245   3.314  0.00  0.00    +0.144 A 
ATOM     28  F   UNL     1       7.199   4.492   1.991  0.00  0.00    -0.204 F 
ENDBRANCH  17  22
ENDBRANCH   1  20
BRANCH   1  29
ATOM     29  C   UNL     1       1.995   0.625  -0.140  0.00  0.00    +0.143 A 
ATOM     30  N   UNL     1       1.217   1.679  -0.098  0.00  0.00    -0.115 NA
ATOM     31  N   UNL     1       0.004   1.272   0.055  0.00  0.00    -0.023 NA
ATOM     32  N   UNL     1      -0.012  -0.014   0.111  0.00  0.00    -0.043 NA
ATOM     33  N   UNL     1       1.196  -0.451  -0.006  0.00  0.00    -0.225 N 
BRANCH  33  34
ATOM     34  C   UNL     1       1.620  -1.853   0.006  0.00  0.00    +0.059 C 
ATOM     35  C   UNL     1       0.390  -2.756   0.117  0.00  0.00    +0.036 C 
ATOM     36  C   UNL     1       2.370  -2.170  -1.289  0.00  0.00    +0.036 C 
ATOM     37  C   UNL     1       2.542  -2.097   1.203  0.00  0.00    +0.036 C 
ENDBRANCH  33  34
ENDBRANCH   1  29
TORSDOF 5
