REMARK  Name = ZINC39566370
REMARK  6 active torsions:
REMARK  status: ('A' for Active; 'I' for Inactive)
REMARK    1  A    between atoms: C_1  and  C_2
REMARK    2  A    between atoms: C_2  and  C_3
REMARK    3  A    between atoms: C_2  and  C_4
REMARK    4  A    between atoms: C_2  and  C_5
REMARK    5  A    between atoms: N_15  and  C_16
REMARK    6  A    between atoms: C_16  and  C_17
REMARK                            x       y       z     vdW  Elec       q    Type
REMARK                         _______ _______ _______ _____ _____    ______ ____
ROOT
ATOM      1  C   UNL     1       0.714  -0.535  -1.628  0.00  0.00    +0.216 C 
ATOM      2  N   UNL     1       0.804  -1.996  -1.720  0.00  0.00    -0.258 NA
ATOM      3  C   UNL     1       2.063  -2.319  -1.637  0.00  0.00    +0.083 C 
ATOM      4  C   UNL     1       2.752  -3.619  -1.667  0.00  0.00    +0.031 C 
ATOM      5  C   UNL     1       4.095  -3.656  -1.557  0.00  0.00    +0.027 C 
ATOM      6  C   UNL     1       4.875  -2.431  -1.409  0.00  0.00    +0.038 C 
ATOM      7  C   UNL     1       4.289  -1.208  -1.375  0.00  0.00    +0.052 C 
ATOM      8  C   UNL     1       2.880  -1.085  -1.484  0.00  0.00    +0.077 C 
ATOM      9  N   UNL     1       2.089  -0.042  -1.480  0.00  0.00    -0.222 NA
ATOM     10  N   UNL     1       6.255  -2.521  -1.299  0.00  0.00    -0.377 N 
ATOM     11  H   UNL     1       6.794  -1.714  -1.294  0.00  0.00    +0.160 HD
ENDROOT
BRANCH   1  13
ATOM     12  C   UNL     1      -0.160   1.390  -0.296  0.00  0.00    +0.014 C 
ATOM     13  C   UNL     1      -0.120  -0.135  -0.409  0.00  0.00    +0.003 C 
ATOM     14  C   UNL     1       0.508  -0.725   0.855  0.00  0.00    +0.014 C 
ATOM     15  C   UNL     1      -1.544  -0.672  -0.569  0.00  0.00    +0.014 C 
ENDBRANCH   1  13
BRANCH  10  16
ATOM     16  C   UNL     1       6.897  -3.833  -1.189  0.00  0.00    +0.187 C 
BRANCH  16  17
ATOM     17  C   UNL     1       7.738  -4.084  -2.414  0.00  0.00    +0.124 A 
ATOM     18  C   UNL     1       9.035  -3.759  -2.558  0.00  0.00    +0.046 A 
ATOM     19  C   UNL     1       9.420  -4.174  -3.854  0.00  0.00    +0.041 A 
ATOM     20  C   UNL     1       8.335  -4.728  -4.424  0.00  0.00    +0.195 A 
ATOM     21  O   UNL     1       7.321  -4.676  -3.545  0.00  0.00    -0.466 OA
ENDBRANCH  16  17
ENDBRANCH  10  16
TORSDOF 3
