REMARK  Name = ZINC36307851
REMARK  18 active torsions:
REMARK  status: ('A' for Active; 'I' for Inactive)
REMARK    1  A    between atoms: C_1  and  C_2
REMARK    2  A    between atoms: C_2  and  C_3
REMARK    3  A    between atoms: C_2  and  C_4
REMARK    4  A    between atoms: C_5  and  C_23
REMARK    5  A    between atoms: C_6  and  O_15
REMARK    6  A    between atoms: N_7  and  C_9
REMARK    7  A    between atoms: O_15  and  C_16
REMARK    8  A    between atoms: C_23  and  N_24
REMARK    9  A    between atoms: N_24  and  C_25
REMARK   10  A    between atoms: N_24  and  C_29
REMARK   11  A    between atoms: C_25  and  C_26
REMARK   12  A    between atoms: C_26  and  O_27
REMARK   13  A    between atoms: O_27  and  C_28
REMARK   14  A    between atoms: C_29  and  C_30
REMARK   15  A    between atoms: C_30  and  C_32
REMARK   16  A    between atoms: C_30  and  O_36
REMARK   17  A    between atoms: C_32  and  C_33
REMARK   18  A    between atoms: C_33  and  C_34
REMARK                            x       y       z     vdW  Elec       q    Type
REMARK                         _______ _______ _______ _____ _____    ______ ____
ROOT
ATOM      1  C   UNL     1      -0.306  -0.593  -0.916  0.00  0.00    +0.071 A 
ATOM      2  C   UNL     1       0.873  -1.334  -1.037  0.00  0.00    +0.021 A 
ATOM      3  C   UNL     1       0.965  -1.767  -2.322  0.00  0.00    +0.225 A 
ATOM      4  N   UNL     1      -0.130  -1.308  -2.987  0.00  0.00    -0.200 N 
ATOM      5  N   UNL     1      -0.908  -0.580  -2.078  0.00  0.00    -0.168 NA
ENDROOT
BRANCH   4   6
ATOM      6  C   UNL     1      -0.427  -1.527  -4.339  0.00  0.00    +0.069 A 
ATOM      7  C   UNL     1       0.576  -1.442  -5.295  0.00  0.00    +0.028 A 
ATOM      8  C   UNL     1       0.280  -1.659  -6.626  0.00  0.00    +0.002 A 
ATOM      9  C   UNL     1      -1.015  -1.960  -7.008  0.00  0.00    +0.000 A 
ATOM     10  C   UNL     1      -2.017  -2.045  -6.058  0.00  0.00    +0.002 A 
ATOM     11  C   UNL     1      -1.725  -1.835  -4.724  0.00  0.00    +0.028 A 
ENDBRANCH   4   6
BRANCH   1  13
ATOM     12  C   UNL     1      -0.934   1.579   0.103  0.00  0.00    +0.014 C 
ATOM     13  C   UNL     1      -0.803   0.073   0.341  0.00  0.00    +0.034 C 
ATOM     14  C   UNL     1      -2.168  -0.504   0.719  0.00  0.00    +0.014 C 
ENDBRANCH   1  13
BRANCH   3  15
ATOM     15  O   UNL     1       1.965  -2.519  -2.847  0.00  0.00    -0.435 OA
BRANCH  15  16
ATOM     16  C   UNL     1       3.071  -1.878  -3.308  0.00  0.00    +0.165 A 
ATOM     17  C   UNL     1       3.201  -0.507  -3.140  0.00  0.00    +0.049 A 
ATOM     18  C   UNL     1       4.326   0.142  -3.610  0.00  0.00    +0.004 A 
ATOM     19  C   UNL     1       5.324  -0.572  -4.248  0.00  0.00    +0.003 A 
ATOM     20  C   UNL     1       5.199  -1.938  -4.417  0.00  0.00    +0.042 A 
ATOM     21  C   UNL     1       4.077  -2.595  -3.945  0.00  0.00    +0.165 A 
ATOM     22  F   UNL     1       3.957  -3.931  -4.106  0.00  0.00    -0.202 F 
ENDBRANCH  15  16
ENDBRANCH   3  15
BRANCH   2  23
ATOM     23  C   UNL     1       1.867  -1.605   0.063  0.00  0.00    -0.036 C 
BRANCH  23  24
ATOM     24  N   UNL     1       1.501  -2.845   0.760  0.00  0.00    +0.386 N 
ATOM     25  H   UNL     1       0.548  -2.779   1.086  0.00  0.00    -0.081 HD
BRANCH  24  26
ATOM     26  C   UNL     1       1.624  -3.981  -0.164  0.00  0.00    -0.050 C 
BRANCH  26  27
ATOM     27  C   UNL     1       1.103  -5.249   0.514  0.00  0.00    +0.141 C 
BRANCH  27  28
ATOM     28  O   UNL     1      -0.291  -5.104   0.790  0.00  0.00    -0.385 OA
ATOM     29  C   UNL     1      -0.879  -6.239   1.428  0.00  0.00    +0.193 C 
ENDBRANCH  27  28
ENDBRANCH  26  27
ENDBRANCH  24  26
BRANCH  24  30
ATOM     30  C   UNL     1       2.397  -3.046   1.906  0.00  0.00    -0.047 C 
BRANCH  30  31
ATOM     31  C   UNL     1       2.161  -1.942   2.938  0.00  0.00    +0.098 C 
BRANCH  31  32
ATOM     32  O   UNL     1       0.813  -2.008   3.406  0.00  0.00    -0.394 OA
ATOM     33  H   UNL     1       0.605  -2.817   3.894  0.00  0.00    +0.210 HD
ENDBRANCH  31  32
BRANCH  31  34
ATOM     34  C   UNL     1       3.119  -2.132   4.116  0.00  0.00    +0.033 C 
BRANCH  34  35
ATOM     35  C   UNL     1       2.970  -0.960   5.088  0.00  0.00    +0.029 C 
BRANCH  35  36
ATOM     36  C   UNL     1       3.914  -1.147   6.248  0.00  0.00    -0.034 C 
ATOM     37  C   UNL     1       4.772  -0.205   6.553  0.00  0.00    +0.004 C 
ENDBRANCH  35  36
ENDBRANCH  34  35
ENDBRANCH  31  34
ENDBRANCH  30  31
ENDBRANCH  24  30
ENDBRANCH  23  24
ENDBRANCH   2  23
TORSDOF 15
