REMARK  Name = ZINC13036315
REMARK  2 active torsions:
REMARK  status: ('A' for Active; 'I' for Inactive)
REMARK    1  A    between atoms: C_13  and  O_18
REMARK    2  A    between atoms: C_21  and  C_24
REMARK                            x       y       z     vdW  Elec       q    Type
REMARK                         _______ _______ _______ _____ _____    ______ ____
ROOT
ATOM      1  C   UNL     1       0.135   1.536  -0.043  0.00  0.00    +0.001 A 
ATOM      2  C   UNL     1       1.355   2.188  -0.038  0.00  0.00    +0.004 A 
ATOM      3  C   UNL     1       2.529   1.464  -0.030  0.00  0.00    +0.046 A 
ATOM      4  C   UNL     1       2.497   0.073  -0.031  0.00  0.00    +0.128 A 
ATOM      5  C   UNL     1       1.264  -0.574  -0.048  0.00  0.00    +0.014 A 
ATOM      6  C   UNL     1       0.093   0.154  -0.047  0.00  0.00    +0.009 A 
ATOM      7  C   UNL     1       1.243  -2.072  -0.086  0.00  0.00    +0.119 C 
ATOM      8  C   UNL     1       0.222  -2.711   0.879  0.00  0.00    +0.078 C 
ATOM      9  C   UNL     1       0.975  -3.989   1.262  0.00  0.00    +0.032 C 
ATOM     10  C   UNL     1       0.414  -5.152   1.793  0.00  0.00    +0.043 C 
ATOM     11  C   UNL     1      -0.977  -5.242   2.025  0.00  0.00    +0.058 C 
ATOM     12  C   UNL     1      -1.504  -6.386   2.543  0.00  0.00    +0.118 C 
ATOM     13  C   UNL     1      -0.698  -7.483   2.854  0.00  0.00    +0.049 C 
ATOM     14  C   UNL     1       0.648  -7.457   2.654  0.00  0.00    +0.055 C 
ATOM     15  C   UNL     1       1.256  -6.310   2.116  0.00  0.00    +0.188 C 
ATOM     16  O   UNL     1       2.465  -6.276   1.926  0.00  0.00    -0.287 OA
ATOM     17  N   UNL     1       2.290  -3.780   0.988  0.00  0.00    -0.277 N 
ATOM     18  N   UNL     1       2.495  -2.516   0.588  0.00  0.00    -0.179 NA
ATOM     19  C   UNL     1       3.653  -2.041  -0.124  0.00  0.00    +0.294 C 
ATOM     20  O   UNL     1       3.674  -0.608  -0.004  0.00  0.00    -0.468 OA
ATOM     21  H   UNL     1       2.986  -4.452   1.062  0.00  0.00    +0.166 HD
ENDROOT
BRANCH  19  22
ATOM     22  C   UNL     1       3.559  -2.433  -1.576  0.00  0.00    +0.012 A 
ATOM     23  C   UNL     1       3.907  -1.540  -2.577  0.00  0.00    +0.028 A 
ATOM     24  C   UNL     1       3.807  -1.935  -3.897  0.00  0.00    +0.111 A 
ATOM     25  N   UNL     1       3.388  -3.146  -4.209  0.00  0.00    -0.263 NA
ATOM     26  C   UNL     1       3.049  -4.022  -3.284  0.00  0.00    +0.111 A 
ATOM     27  C   UNL     1       3.128  -3.700  -1.942  0.00  0.00    +0.028 A 
ENDBRANCH  19  22
BRANCH  12  28
ATOM     28  O   UNL     1      -2.845  -6.462   2.763  0.00  0.00    -0.507 OA
ATOM     29  H   UNL     1      -3.136  -7.307   3.131  0.00  0.00    +0.292 HD
ENDBRANCH  12  28
TORSDOF 2
