REMARK  Name = ZINC14074851
REMARK  8 active torsions:
REMARK  status: ('A' for Active; 'I' for Inactive)
REMARK    1  A    between atoms: C_5  and  C_7
REMARK    2  A    between atoms: C_7  and  C_8
REMARK    3  A    between atoms: C_11  and  S_14
REMARK    4  A    between atoms: N_12  and  N_13
REMARK    5  A    between atoms: S_14  and  C_15
REMARK    6  A    between atoms: C_15  and  C_16
REMARK    7  A    between atoms: N_26  and  C_27
REMARK    8  A    between atoms: C_27  and  C_28
REMARK                            x       y       z     vdW  Elec       q    Type
REMARK                         _______ _______ _______ _____ _____    ______ ____
ROOT
ATOM      1  C   UNL     1      -2.324   1.046   2.477  0.00  0.00    +0.151 C 
ENDROOT
BRANCH   1   2
ATOM      2  C   UNL     1      -2.930   0.527   1.199  0.00  0.00    +0.124 A 
ATOM      3  N   UNL     1      -3.903  -0.329   1.282  0.00  0.00    -0.233 NA
ATOM      4  C   UNL     1      -4.497  -0.840   0.175  0.00  0.00    +0.078 A 
ATOM      5  C   UNL     1      -5.544  -1.760   0.263  0.00  0.00    +0.028 A 
ATOM      6  C   UNL     1      -6.118  -2.252  -0.887  0.00  0.00    +0.002 A 
ATOM      7  C   UNL     1      -5.669  -1.846  -2.137  0.00  0.00    +0.001 A 
ATOM      8  C   UNL     1      -4.638  -0.939  -2.250  0.00  0.00    +0.015 A 
ATOM      9  C   UNL     1      -4.043  -0.429  -1.098  0.00  0.00    +0.065 A 
ATOM     10  C   UNL     1      -2.943   0.545  -1.157  0.00  0.00    +0.262 A 
ATOM     11  O   UNL     1      -2.508   0.945  -2.221  0.00  0.00    -0.267 OA
ATOM     12  N   UNL     1      -2.430   0.977   0.019  0.00  0.00    -0.287 N 
BRANCH  12  13
ATOM     13  C   UNL     1      -1.330   1.944   0.019  0.00  0.00    +0.222 C 
BRANCH  13  14
ATOM     14  C   UNL     1      -0.014   1.209   0.009  0.00  0.00    +0.230 C 
ATOM     15  O   UNL     1       0.002  -0.004   0.002  0.00  0.00    -0.274 OA
ATOM     16  N   UNL     1       1.143   1.898   0.001  0.00  0.00    -0.328 N 
ATOM     17  H   UNL     1       1.990   1.425  -0.009  0.00  0.00    +0.145 HD
ATOM     18  H   UNL     1       1.130   2.868   0.007  0.00  0.00    +0.145 HD
ENDBRANCH  13  14
ENDBRANCH  12  13
ENDBRANCH   1   2
BRANCH   1  19
ATOM     19  S   UNL     1      -3.165   0.294   3.893  0.00  0.00    -0.077 S 
BRANCH  19  23
ATOM     20  C   UNL     1      -1.578   1.657   7.186  0.00  0.00    +0.155 A 
ATOM     21  N   UNL     1      -0.889   2.271   6.266  0.00  0.00    -0.132 NA
ATOM     22  N   UNL     1      -1.301   1.921   5.100  0.00  0.00    -0.121 NA
ATOM     23  C   UNL     1      -2.282   1.057   5.213  0.00  0.00    +0.209 A 
ATOM     24  N   UNL     1      -2.494   0.866   6.548  0.00  0.00    -0.228 N 
BRANCH  24  25
ATOM     25  N   UNL     1      -3.425   0.051   7.128  0.00  0.00    -0.295 N 
ATOM     26  H   UNL     1      -3.052  -0.875   7.278  0.00  0.00    +0.163 HD
ATOM     27  H   UNL     1      -3.766   0.448   7.990  0.00  0.00    +0.163 HD
ENDBRANCH  24  25
BRANCH  20  28
ATOM     28  C   UNL     1      -1.402   1.796   8.676  0.00  0.00    +0.116 C 
BRANCH  28  33
ATOM     29  C   UNL     1      -4.297   3.639  10.251  0.00  0.00    +0.000 A 
ATOM     30  C   UNL     1      -3.894   4.955  10.116  0.00  0.00    +0.003 A 
ATOM     31  C   UNL     1      -2.686   5.250   9.515  0.00  0.00    +0.038 A 
ATOM     32  C   UNL     1      -1.875   4.227   9.052  0.00  0.00    +0.127 A 
ATOM     33  C   UNL     1      -2.281   2.910   9.183  0.00  0.00    -0.005 A 
ATOM     34  C   UNL     1      -3.491   2.617   9.785  0.00  0.00    +0.007 A 
ATOM     35  F   UNL     1      -0.691   4.515   8.469  0.00  0.00    -0.205 F 
ENDBRANCH  28  33
ENDBRANCH  20  28
ENDBRANCH  19  23
ENDBRANCH   1  19
TORSDOF 8
