REMARK  Name = ZINC22842464
REMARK  8 active torsions:
REMARK  status: ('A' for Active; 'I' for Inactive)
REMARK    1  A    between atoms: C_8  and  C_10
REMARK    2  A    between atoms: C_13  and  C_16
REMARK    3  A    between atoms: C_16  and  N_17
REMARK    4  A    between atoms: N_17  and  C_18
REMARK    5  A    between atoms: C_18  and  N_20
REMARK    6  A    between atoms: C_21  and  C_23
REMARK    7  A    between atoms: C_25  and  N_35
REMARK    8  A    between atoms: C_28  and  N_29
REMARK                            x       y       z     vdW  Elec       q    Type
REMARK                         _______ _______ _______ _____ _____    ______ ____
ROOT
ATOM      1  C   UNL     1       6.756  -8.563  -1.742  0.00  0.00    +0.137 C 
ATOM      2  S   UNL     1       7.336  -9.527  -0.452  0.00  0.00    -0.018 S 
ENDROOT
BRANCH   1   3
ATOM      3  N   UNL     1       6.980  -8.938  -3.017  0.00  0.00    -0.264 N 
ATOM      4  C   UNL     1       7.660 -10.072  -3.277  0.00  0.00    +0.251 C 
ATOM      5  O   UNL     1       8.071 -10.757  -2.361  0.00  0.00    -0.270 OA
ATOM      6  H   UNL     1       6.651  -8.391  -3.748  0.00  0.00    +0.157 HD
BRANCH   4   7
ATOM      7  C   UNL     1       7.904 -10.482  -4.671  0.00  0.00    +0.060 A 
ATOM      8  C   UNL     1       7.437  -9.695  -5.728  0.00  0.00    +0.047 A 
ATOM      9  C   UNL     1       7.669 -10.083  -7.028  0.00  0.00    +0.127 A 
ATOM     10  C   UNL     1       8.364 -11.253  -7.297  0.00  0.00    +0.034 A 
ATOM     11  C   UNL     1       8.830 -12.041  -6.265  0.00  0.00    +0.026 A 
ATOM     12  C   UNL     1       8.611 -11.663  -4.946  0.00  0.00    +0.042 A 
BRANCH  12  13
ATOM     13  N   UNL     1       9.085 -12.451  -3.906  0.00  0.00    -0.325 N 
ATOM     14  C   UNL     1       8.264 -13.534  -3.342  0.00  0.00    +0.133 C 
ATOM     15  C   UNL     1       9.109 -14.813  -3.306  0.00  0.00    +0.178 C 
ATOM     16  O   UNL     1      10.345 -14.542  -2.642  0.00  0.00    -0.377 OA
ATOM     17  C   UNL     1      11.163 -13.572  -3.301  0.00  0.00    +0.178 C 
ATOM     18  C   UNL     1      10.426 -12.233  -3.340  0.00  0.00    +0.133 C 
ENDBRANCH  12  13
BRANCH   9  19
ATOM     19  N   UNL     1       7.175  -9.248  -8.146  0.00  0.00    +0.056 N 
ATOM     20  O   UNL     1       6.569  -8.227  -7.915  0.00  0.00    -0.126 OA
ATOM     21  O   UNL     1       7.376  -9.586  -9.289  0.00  0.00    -0.126 OA
ENDBRANCH   9  19
ENDBRANCH   4   7
ENDBRANCH   1   3
BRANCH   1  22
ATOM     22  N   UNL     1       6.077  -7.428  -1.482  0.00  0.00    -0.322 N 
ATOM     23  H   UNL     1       5.748  -6.882  -2.213  0.00  0.00    +0.148 HD
BRANCH  22  24
ATOM     24  C   UNL     1       5.834  -7.021  -0.096  0.00  0.00    +0.138 C 
BRANCH  24  28
ATOM     25  C   UNL     1       3.635  -3.353  -0.053  0.00  0.00    +0.037 A 
ATOM     26  C   UNL     1       2.960  -4.575  -0.059  0.00  0.00    +0.013 A 
ATOM     27  C   UNL     1       3.676  -5.755  -0.073  0.00  0.00    +0.006 A 
ATOM     28  C   UNL     1       5.059  -5.728  -0.081  0.00  0.00    -0.030 A 
ATOM     29  C   UNL     1       5.734  -4.521  -0.075  0.00  0.00    +0.006 A 
ATOM     30  C   UNL     1       5.031  -3.334  -0.067  0.00  0.00    +0.013 A 
BRANCH  25  38
ATOM     31  C   UNL     1      -0.017   1.372   0.010  0.00  0.00    +0.002 A 
ATOM     32  C   UNL     1       1.170   2.091   0.002  0.00  0.00    +0.004 A 
ATOM     33  C   UNL     1       2.385   1.437  -0.013  0.00  0.00    +0.048 A 
ATOM     34  C   UNL     1       2.423   0.052  -0.021  0.00  0.00    +0.156 A 
ATOM     35  C   UNL     1       1.225  -0.680  -0.013  0.00  0.00    +0.110 A 
ATOM     36  C   UNL     1       0.002  -0.004   0.002  0.00  0.00    +0.031 A 
ATOM     37  N   UNL     1       1.570  -1.993  -0.024  0.00  0.00    -0.209 NA
ATOM     38  C   UNL     1       2.875  -2.085  -0.038  0.00  0.00    +0.228 A 
ATOM     39  O   UNL     1       3.424  -0.856  -0.037  0.00  0.00    -0.435 OA
ENDBRANCH  25  38
ENDBRANCH  24  28
ENDBRANCH  22  24
ENDBRANCH   1  22
TORSDOF 8
