REMARK  Name = ZINC34748533
REMARK  9 active torsions:
REMARK  status: ('A' for Active; 'I' for Inactive)
REMARK    1  A    between atoms: C_1  and  C_2
REMARK    2  A    between atoms: C_5  and  C_35
REMARK    3  A    between atoms: C_6  and  C_8
REMARK    4  A    between atoms: C_8  and  N_9
REMARK    5  A    between atoms: C_19  and  C_23
REMARK    6  A    between atoms: C_20  and  C_22
REMARK    7  A    between atoms: N_26  and  C_27
REMARK    8  A    between atoms: C_27  and  C_28
REMARK    9  A    between atoms: C_28  and  C_29
REMARK                            x       y       z     vdW  Elec       q    Type
REMARK                         _______ _______ _______ _____ _____    ______ ____
ROOT
ATOM      1  N   UNL     1       2.391  -2.976   1.916  0.00  0.00    +0.384 N 
ATOM      2  C   UNL     1       3.788  -3.426   1.857  0.00  0.00    -0.059 C 
ATOM      3  C   UNL     1       4.097  -4.293   3.082  0.00  0.00    +0.089 C 
ATOM      4  N   UNL     1       3.756  -3.528   4.292  0.00  0.00    -0.304 N 
ATOM      5  C   UNL     1       2.427  -2.902   4.365  0.00  0.00    +0.089 C 
ATOM      6  C   UNL     1       2.197  -2.100   3.079  0.00  0.00    -0.059 C 
ATOM      7  C   UNL     1       4.652  -3.404   5.324  0.00  0.00    +0.202 A 
ATOM      8  N   UNL     1       5.543  -2.435   5.298  0.00  0.00    -0.208 NA
ATOM      9  C   UNL     1       6.422  -2.289   6.282  0.00  0.00    +0.117 A 
ATOM     10  C   UNL     1       6.449  -3.153   7.393  0.00  0.00    +0.075 A 
ATOM     11  C   UNL     1       7.473  -2.853   8.378  0.00  0.00    -0.026 A 
ATOM     12  C   UNL     1       8.295  -1.813   8.173  0.00  0.00    -0.008 A 
ATOM     13  S   UNL     1       7.741  -1.150   6.614  0.00  0.00    -0.073 S 
ATOM     14  C   UNL     1       9.417  -1.323   9.051  0.00  0.00    +0.052 C 
ATOM     15  C   UNL     1       7.611  -3.701   9.616  0.00  0.00    +0.045 C 
ATOM     16  C   UNL     1       5.470  -4.197   7.393  0.00  0.00    +0.264 A 
ATOM     17  O   UNL     1       5.417  -4.994   8.314  0.00  0.00    -0.267 OA
ATOM     18  N   UNL     1       4.605  -4.283   6.366  0.00  0.00    -0.280 N 
ATOM     19  H   UNL     1       1.785  -3.779   1.996  0.00  0.00    -0.081 HD
ENDROOT
BRANCH   1  20
ATOM     20  C   UNL     1       2.064  -2.237   0.690  0.00  0.00    -0.043 C 
BRANCH  20  26
ATOM     21  C   UNL     1       4.561  -4.011  -3.268  0.00  0.00    +0.044 C 
ATOM     22  C   UNL     1       3.339  -4.016  -2.387  0.00  0.00    -0.050 A 
ATOM     23  C   UNL     1       2.291  -4.873  -2.664  0.00  0.00    +0.003 A 
ATOM     24  C   UNL     1       1.169  -4.878  -1.856  0.00  0.00    +0.004 A 
ATOM     25  C   UNL     1       1.096  -4.025  -0.771  0.00  0.00    -0.049 A 
ATOM     26  C   UNL     1       2.144  -3.168  -0.493  0.00  0.00    -0.061 A 
ATOM     27  C   UNL     1       3.268  -3.166  -1.299  0.00  0.00    +0.005 A 
ATOM     28  C   UNL     1      -0.127  -4.029   0.110  0.00  0.00    +0.044 C 
ENDBRANCH  20  26
ENDBRANCH   1  20
BRANCH  18  29
ATOM     29  C   UNL     1       3.596  -5.346   6.364  0.00  0.00    +0.133 C 
BRANCH  29  30
ATOM     30  C   UNL     1       4.207  -6.628   5.795  0.00  0.00    +0.057 C 
BRANCH  30  31
ATOM     31  C   UNL     1       3.170  -7.721   5.793  0.00  0.00    -0.046 A 
ATOM     32  C   UNL     1       3.030  -8.544   6.894  0.00  0.00    +0.004 A 
ATOM     33  C   UNL     1       2.079  -9.547   6.892  0.00  0.00    +0.000 A 
ATOM     34  C   UNL     1       1.266  -9.726   5.789  0.00  0.00    +0.000 A 
ATOM     35  C   UNL     1       1.404  -8.902   4.687  0.00  0.00    +0.000 A 
ATOM     36  C   UNL     1       2.353  -7.896   4.691  0.00  0.00    +0.004 A 
ENDBRANCH  30  31
ENDBRANCH  29  30
ENDBRANCH  18  29
TORSDOF 5
