REMARK  Name = ZINC44095182
REMARK  12 active torsions:
REMARK  status: ('A' for Active; 'I' for Inactive)
REMARK    1  A    between atoms: C_1  and  C_2
REMARK    2  A    between atoms: C_2  and  C_3
REMARK    3  A    between atoms: C_2  and  C_4
REMARK    4  A    between atoms: C_6  and  C_9
REMARK    5  A    between atoms: C_21  and  C_23
REMARK    6  A    between atoms: C_24  and  C_25
REMARK    7  A    between atoms: C_27  and  O_35
REMARK    8  A    between atoms: C_28  and  O_33
REMARK    9  A    between atoms: C_29  and  O_31
REMARK   10  A    between atoms: O_31  and  C_32
REMARK   11  A    between atoms: O_33  and  C_34
REMARK   12  A    between atoms: O_35  and  C_36
REMARK                            x       y       z     vdW  Elec       q    Type
REMARK                         _______ _______ _______ _____ _____    ______ ____
ROOT
ATOM      1  C   UNL     1      -5.152  -1.066  -2.267  0.00  0.00    +0.038 A 
ATOM      2  C   UNL     1      -6.167  -1.601  -1.464  0.00  0.00    +0.016 A 
ATOM      3  C   UNL     1      -7.034  -2.516  -2.025  0.00  0.00    +0.042 A 
ATOM      4  C   UNL     1      -6.873  -2.874  -3.361  0.00  0.00    +0.099 A 
ATOM      5  N   UNL     1      -5.902  -2.349  -4.093  0.00  0.00    -0.349 N 
ATOM      6  C   UNL     1      -5.058  -1.469  -3.596  0.00  0.00    +0.095 A 
ATOM      7  N   UNL     1      -7.741  -3.794  -3.933  0.00  0.00    -0.314 N 
ATOM      8  C   UNL     1      -7.678  -4.089  -5.371  0.00  0.00    +0.125 C 
ATOM      9  C   UNL     1      -7.495  -5.601  -5.555  0.00  0.00    +0.127 C 
ATOM     10  N   UNL     1      -8.493  -6.298  -4.732  0.00  0.00    -0.295 N 
ATOM     11  C   UNL     1      -8.557  -6.003  -3.294  0.00  0.00    +0.127 C 
ATOM     12  C   UNL     1      -8.736  -4.496  -3.110  0.00  0.00    +0.125 C 
ATOM     13  C   UNL     1      -9.336  -7.191  -5.287  0.00  0.00    +0.240 C 
ATOM     14  O   UNL     1      -9.214  -7.496  -6.460  0.00  0.00    -0.271 OA
ATOM     15  H   UNL     1      -5.813  -2.617  -5.021  0.00  0.00    +0.167 HD
ENDROOT
BRANCH   1  18
ATOM     16  C   UNL     1      -3.217   1.235  -0.288  0.00  0.00    +0.230 A 
ATOM     17  N   UNL     1      -4.189   0.382  -0.447  0.00  0.00    -0.191 NA
ATOM     18  C   UNL     1      -4.194  -0.079  -1.710  0.00  0.00    +0.203 A 
ATOM     19  N   UNL     1      -3.213   0.488  -2.368  0.00  0.00    -0.056 NA
ATOM     20  O   UNL     1      -2.565   1.358  -1.451  0.00  0.00    -0.337 OA
BRANCH  16  22
ATOM     21  C   UNL     1      -1.462   1.620   1.420  0.00  0.00    +0.017 C 
ATOM     22  C   UNL     1      -2.888   1.967   0.988  0.00  0.00    +0.072 C 
ATOM     23  C   UNL     1      -2.997   3.475   0.754  0.00  0.00    +0.017 C 
ENDBRANCH  16  22
ENDBRANCH   1  18
BRANCH  13  24
ATOM     24  C   UNL     1     -10.397  -7.794  -4.482  0.00  0.00    +0.068 C 
ATOM     25  C   UNL     1     -11.149  -8.791  -4.993  0.00  0.00    +0.013 C 
BRANCH  25  26
ATOM     26  C   UNL     1     -10.759  -9.432  -6.257  0.00  0.00    -0.018 A 
ATOM     27  C   UNL     1      -9.432  -9.826  -6.463  0.00  0.00    +0.057 A 
ATOM     28  C   UNL     1      -9.069 -10.428  -7.653  0.00  0.00    +0.166 A 
ATOM     29  C   UNL     1     -10.022 -10.642  -8.646  0.00  0.00    +0.204 A 
ATOM     30  C   UNL     1     -11.343 -10.251  -8.445  0.00  0.00    +0.166 A 
ATOM     31  C   UNL     1     -11.715  -9.654  -7.255  0.00  0.00    +0.057 A 
BRANCH  30  32
ATOM     32  O   UNL     1     -12.270 -10.461  -9.418  0.00  0.00    -0.491 OA
ATOM     33  C   UNL     1     -13.606 -10.034  -9.145  0.00  0.00    +0.277 C 
ENDBRANCH  30  32
BRANCH  29  34
ATOM     34  O   UNL     1      -9.661 -11.235  -9.815  0.00  0.00    -0.488 OA
ATOM     35  C   UNL     1      -9.751 -12.659  -9.876  0.00  0.00    +0.277 C 
ENDBRANCH  29  34
BRANCH  28  36
ATOM     36  O   UNL     1      -7.780 -10.812  -7.854  0.00  0.00    -0.491 OA
ATOM     37  C   UNL     1      -6.856 -10.561  -6.794  0.00  0.00    +0.277 C 
ENDBRANCH  28  36
ENDBRANCH  25  26
ENDBRANCH  13  24
TORSDOF 7
