REMARK  Name = ZINC13274353
REMARK  12 active torsions:
REMARK  status: ('A' for Active; 'I' for Inactive)
REMARK    1  A    between atoms: C_1  and  C_2
REMARK    2  A    between atoms: C_2  and  O_3
REMARK    3  A    between atoms: O_3  and  C_4
REMARK    4  A    between atoms: C_7  and  C_10
REMARK    5  A    between atoms: C_13  and  S_19
REMARK    6  A    between atoms: N_14  and  C_15
REMARK    7  A    between atoms: C_15  and  C_16
REMARK    8  A    between atoms: C_16  and  C_17
REMARK    9  A    between atoms: S_19  and  C_20
REMARK   10  A    between atoms: C_23  and  C_29
REMARK   11  A    between atoms: C_25  and  N_26
REMARK   12  A    between atoms: C_30  and  C_31
REMARK                            x       y       z     vdW  Elec       q    Type
REMARK                         _______ _______ _______ _____ _____    ______ ____
ROOT
ATOM      1  C   UNL     1       1.167   1.585   2.998  0.00  0.00    +0.165 A 
ATOM      2  N   UNL     1       1.588   0.713   3.948  0.00  0.00    -0.128 NA
ATOM      3  N   UNL     1       0.726  -0.234   4.074  0.00  0.00    -0.122 NA
ATOM      4  C   UNL     1      -0.304  -0.023   3.216  0.00  0.00    +0.197 A 
ATOM      5  N   UNL     1      -0.031   1.127   2.522  0.00  0.00    -0.301 N 
ENDROOT
BRANCH   1   9
ATOM      6  C   UNL     1       3.164   5.039   1.753  0.00  0.00    +0.121 A 
ATOM      7  C   UNL     1       3.493   4.448   2.977  0.00  0.00    +0.046 A 
ATOM      8  C   UNL     1       2.847   3.323   3.389  0.00  0.00    +0.015 A 
ATOM      9  C   UNL     1       1.843   2.753   2.577  0.00  0.00    +0.020 A 
ATOM     10  C   UNL     1       1.520   3.352   1.340  0.00  0.00    +0.015 A 
ATOM     11  C   UNL     1       2.170   4.481   0.944  0.00  0.00    +0.046 A 
BRANCH   6  12
ATOM     12  O   UNL     1       3.810   6.158   1.350  0.00  0.00    -0.492 OA
BRANCH  12  14
ATOM     13  C   UNL     1       4.260   7.962  -0.193  0.00  0.00    +0.048 C 
ATOM     14  C   UNL     1       3.425   6.711   0.090  0.00  0.00    +0.225 C 
ENDBRANCH  12  14
ENDBRANCH   6  12
ENDBRANCH   1   9
BRANCH   5  15
ATOM     15  C   UNL     1      -0.859   1.745   1.484  0.00  0.00    +0.137 C 
BRANCH  15  16
ATOM     16  C   UNL     1      -0.536   1.112   0.129  0.00  0.00    +0.147 C 
BRANCH  16  17
ATOM     17  C   UNL     1      -1.388   1.748  -0.939  0.00  0.00    +0.358 C 
ATOM     18  O   UNL     1      -2.173   2.619  -0.646  0.00  0.00    -0.246 OA
ATOM     19  O   UNL     1      -1.274   1.348  -2.215  0.00  0.00    -0.246 OA
ENDBRANCH  16  17
ENDBRANCH  15  16
ENDBRANCH   5  15
BRANCH   4  20
ATOM     20  S   UNL     1      -1.687  -1.015   3.030  0.00  0.00    -0.048 S 
BRANCH  20  21
ATOM     21  C   UNL     1      -1.405  -2.178   4.322  0.00  0.00    +0.046 A 
ATOM     22  C   UNL     1      -2.113  -2.072   5.526  0.00  0.00    +0.018 A 
ATOM     23  C   UNL     1      -1.896  -2.972   6.527  0.00  0.00    +0.009 A 
ATOM     24  C   UNL     1      -0.964  -4.005   6.351  0.00  0.00    -0.023 A 
ATOM     25  C   UNL     1      -0.256  -4.111   5.145  0.00  0.00    +0.041 A 
ATOM     26  C   UNL     1      -0.479  -3.212   4.143  0.00  0.00    +0.140 A 
BRANCH  26  27
ATOM     27  N   UNL     1       0.264  -3.326   2.868  0.00  0.00    +0.058 N 
ATOM     28  O   UNL     1       1.135  -4.298   2.698  0.00  0.00    -0.126 OA
ATOM     29  O   UNL     1       0.052  -2.456   1.902  0.00  0.00    -0.126 OA
ENDBRANCH  26  27
BRANCH  24  30
ATOM     30  C   UNL     1      -0.729  -4.975   7.428  0.00  0.00    +0.015 C 
ATOM     31  C   UNL     1      -1.411  -4.873   8.590  0.00  0.00    +0.096 C 
BRANCH  31  32
ATOM     32  C   UNL     1      -1.178  -5.840   9.664  0.00  0.00    +0.380 C 
ATOM     33  O   UNL     1      -0.369  -6.736   9.511  0.00  0.00    -0.241 OA
ATOM     34  O   UNL     1      -1.859  -5.738  10.824  0.00  0.00    -0.241 OA
ENDBRANCH  31  32
ENDBRANCH  24  30
ENDBRANCH  20  21
ENDBRANCH   4  20
TORSDOF 11
