REMARK  Name = ZINC19798600
REMARK  16 active torsions:
REMARK  status: ('A' for Active; 'I' for Inactive)
REMARK    1  A    between atoms: C_1  and  C_2
REMARK    2  A    between atoms: C_3  and  C_37
REMARK    3  A    between atoms: C_4  and  C_25
REMARK    4  A    between atoms: C_10  and  C_15
REMARK    5  A    between atoms: C_18  and  O_23
REMARK    6  A    between atoms: C_19  and  O_21
REMARK    7  A    between atoms: O_21  and  C_22
REMARK    8  A    between atoms: O_23  and  C_24
REMARK    9  A    between atoms: C_27  and  O_35
REMARK   10  A    between atoms: C_28  and  O_33
REMARK   11  A    between atoms: C_29  and  O_31
REMARK   12  A    between atoms: O_31  and  C_32
REMARK   13  A    between atoms: O_33  and  C_34
REMARK   14  A    between atoms: O_35  and  C_36
REMARK   15  A    between atoms: C_37  and  O_39
REMARK   16  A    between atoms: O_39  and  C_40
REMARK                            x       y       z     vdW  Elec       q    Type
REMARK                         _______ _______ _______ _____ _____    ______ ____
ROOT
ATOM      1  C   UNL     1      -2.653   7.028   2.556  0.00  0.00    +0.061 C 
ATOM      2  C   UNL     1      -2.010   6.565   1.275  0.00  0.00    +0.016 C 
ATOM      3  C   UNL     1      -0.744   6.113   1.288  0.00  0.00    +0.065 C 
ATOM      4  C   UNL     1      -0.074   5.636   0.033  0.00  0.00    +0.092 C 
ATOM      5  C   UNL     1      -0.805   6.128  -1.191  0.00  0.00    +0.024 C 
ATOM      6  C   UNL     1      -2.073   6.582  -1.101  0.00  0.00    +0.016 C 
ATOM      7  N   UNL     1      -2.718   6.606   0.106  0.00  0.00    -0.321 N 
ATOM      8  C   UNL     1      -2.810   7.078  -2.321  0.00  0.00    +0.059 C 
ATOM      9  C   UNL     1      -2.315   6.329  -3.560  0.00  0.00    +0.032 C 
ATOM     10  C   UNL     1      -0.805   6.552  -3.691  0.00  0.00    +0.088 C 
ATOM     11  C   UNL     1      -0.132   6.097  -2.425  0.00  0.00    +0.162 C 
ATOM     12  O   UNL     1       1.015   5.697  -2.469  0.00  0.00    -0.292 OA
ATOM     13  H   UNL     1      -3.817   6.659   0.130  0.00  0.00    +0.152 HD
ENDROOT
BRANCH   9  14
ATOM     14  C   UNL     1      -3.017   6.856  -4.785  0.00  0.00    -0.040 A 
ATOM     15  C   UNL     1      -2.893   8.189  -5.130  0.00  0.00    +0.008 A 
ATOM     16  C   UNL     1      -3.535   8.678  -6.253  0.00  0.00    +0.049 A 
ATOM     17  C   UNL     1      -4.305   7.832  -7.035  0.00  0.00    +0.161 A 
ATOM     18  C   UNL     1      -4.429   6.490  -6.687  0.00  0.00    +0.162 A 
ATOM     19  C   UNL     1      -3.779   6.005  -5.563  0.00  0.00    +0.053 A 
BRANCH  18  20
ATOM     20  O   UNL     1      -5.183   5.655  -7.451  0.00  0.00    -0.491 OA
ATOM     21  C   UNL     1      -5.265   4.291  -7.034  0.00  0.00    +0.277 C 
ENDBRANCH  18  20
BRANCH  17  22
ATOM     22  O   UNL     1      -4.937   8.311  -8.139  0.00  0.00    -0.491 OA
ATOM     23  C   UNL     1      -4.764   9.698  -8.435  0.00  0.00    +0.277 C 
ENDBRANCH  17  22
ENDBRANCH   9  14
BRANCH   4  24
ATOM     24  C   UNL     1      -0.054   4.129   0.025  0.00  0.00    -0.028 A 
ATOM     25  C   UNL     1       1.153   3.456   0.010  0.00  0.00    +0.054 A 
ATOM     26  C   UNL     1       1.177   2.070   0.002  0.00  0.00    +0.165 A 
ATOM     27  C   UNL     1      -0.016   1.357   0.009  0.00  0.00    +0.204 A 
ATOM     28  C   UNL     1      -1.228   2.037   0.019  0.00  0.00    +0.165 A 
ATOM     29  C   UNL     1      -1.243   3.424   0.032  0.00  0.00    +0.054 A 
BRANCH  28  30
ATOM     30  O   UNL     1      -2.398   1.344   0.021  0.00  0.00    -0.491 OA
ATOM     31  C   UNL     1      -3.605   2.109   0.031  0.00  0.00    +0.277 C 
ENDBRANCH  28  30
BRANCH  27  32
ATOM     32  O   UNL     1       0.002  -0.004   0.002  0.00  0.00    -0.488 OA
ATOM     33  C   UNL     1       0.023  -0.660   1.272  0.00  0.00    +0.277 C 
ENDBRANCH  27  32
BRANCH  26  34
ATOM     34  O   UNL     1       2.365   1.409  -0.013  0.00  0.00    -0.491 OA
ATOM     35  C   UNL     1       3.551   2.206  -0.021  0.00  0.00    +0.277 C 
ENDBRANCH  26  34
ENDBRANCH   4  24
BRANCH   3  36
ATOM     36  C   UNL     1      -0.029   6.087   2.508  0.00  0.00    +0.337 C 
ATOM     37  O   UNL     1      -0.561   6.471   3.533  0.00  0.00    -0.245 OA
BRANCH  36  38
ATOM     38  O   UNL     1       1.242   5.637   2.536  0.00  0.00    -0.465 OA
ATOM     39  C   UNL     1       1.904   5.639   3.803  0.00  0.00    +0.280 C 
ENDBRANCH  36  38
ENDBRANCH   3  36
TORSDOF 9
