REMARK  Name = ZINC39981199
REMARK  8 active torsions:
REMARK  status: ('A' for Active; 'I' for Inactive)
REMARK    1  A    between atoms: C_1  and  C_2
REMARK    2  A    between atoms: C_2  and  C_3
REMARK    3  A    between atoms: C_2  and  C_4
REMARK    4  A    between atoms: C_16  and  S_18
REMARK    5  A    between atoms: S_18  and  C_19
REMARK    6  A    between atoms: C_19  and  C_20
REMARK    7  A    between atoms: N_22  and  C_23
REMARK    8  A    between atoms: C_28  and  C_29
REMARK                            x       y       z     vdW  Elec       q    Type
REMARK                         _______ _______ _______ _____ _____    ______ ____
ROOT
ATOM      1  C   UNL     1      -1.458  -0.483  -0.034  0.00  0.00    -0.044 A 
ATOM      2  C   UNL     1      -2.297  -0.141   1.036  0.00  0.00    +0.006 A 
ATOM      3  C   UNL     1      -3.575  -0.577   1.107  0.00  0.00    +0.026 A 
ATOM      4  C   UNL     1      -4.101  -1.433   0.036  0.00  0.00    +0.046 A 
ATOM      5  N   UNL     1      -5.267  -2.011  -0.127  0.00  0.00    -0.358 N 
ATOM      6  C   UNL     1      -5.296  -2.648  -1.433  0.00  0.00    +0.252 C 
ATOM      7  C   UNL     1      -3.868  -2.602  -1.947  0.00  0.00    +0.117 C 
ATOM      8  C   UNL     1      -3.184  -1.788  -1.077  0.00  0.00    +0.025 A 
ATOM      9  C   UNL     1      -1.870  -1.267  -1.056  0.00  0.00    +0.015 A 
ATOM     10  N   UNL     1      -3.463  -3.365  -2.965  0.00  0.00    -0.147 NA
ATOM     11  N   UNL     1      -4.119  -4.474  -3.128  0.00  0.00    -0.122 NA
ATOM     12  C   UNL     1      -5.103  -4.860  -2.280  0.00  0.00    +0.208 C 
ATOM     13  N   UNL     1      -5.688  -4.057  -1.421  0.00  0.00    -0.227 NA
ATOM     14  H   UNL     1      -5.992  -2.014   0.518  0.00  0.00    +0.162 HD
ENDROOT
BRANCH   1  16
ATOM     15  C   UNL     1      -0.078   1.577  -0.048  0.00  0.00    +0.012 C 
ATOM     16  C   UNL     1      -0.048   0.047  -0.048  0.00  0.00    +0.013 C 
ATOM     17  C   UNL     1       0.696  -0.449   1.194  0.00  0.00    +0.012 C 
ENDBRANCH   1  16
BRANCH  12  18
ATOM     18  S   UNL     1      -5.634  -6.539  -2.335  0.00  0.00    -0.075 S 
BRANCH  18  19
ATOM     19  C   UNL     1      -6.932  -6.631  -1.071  0.00  0.00    +0.173 C 
BRANCH  19  20
ATOM     20  C   UNL     1      -7.479  -8.034  -1.014  0.00  0.00    +0.227 C 
ATOM     21  O   UNL     1      -7.037  -8.888  -1.754  0.00  0.00    -0.275 OA
ATOM     22  N   UNL     1      -8.460  -8.340  -0.142  0.00  0.00    -0.284 N 
ATOM     23  H   UNL     1      -8.758  -7.680   0.504  0.00  0.00    +0.155 HD
BRANCH  22  24
ATOM     24  C   UNL     1      -9.048  -9.610  -0.167  0.00  0.00    +0.045 A 
ATOM     25  C   UNL     1      -9.034 -10.360  -1.336  0.00  0.00    +0.024 A 
ATOM     26  C   UNL     1      -9.615 -11.612  -1.358  0.00  0.00    +0.002 A 
ATOM     27  C   UNL     1     -10.211 -12.119  -0.218  0.00  0.00    +0.001 A 
ATOM     28  C   UNL     1     -10.228 -11.375   0.947  0.00  0.00    +0.014 A 
ATOM     29  C   UNL     1      -9.643 -10.124   0.977  0.00  0.00    +0.076 A 
BRANCH  29  30
ATOM     30  C   UNL     1      -9.655  -9.316   2.249  0.00  0.00    +0.419 C 
ATOM     31  F   UNL     1     -10.305 -10.039   3.255  0.00  0.00    -0.166 F 
ATOM     32  F   UNL     1      -8.340  -9.047   2.644  0.00  0.00    -0.166 F 
ATOM     33  F   UNL     1     -10.331  -8.111   2.030  0.00  0.00    -0.166 F 
ENDBRANCH  29  30
ENDBRANCH  22  24
ENDBRANCH  19  20
ENDBRANCH  18  19
ENDBRANCH  12  18
TORSDOF 6
