REMARK  Name = ZINC01438544
REMARK  8 active torsions:
REMARK  status: ('A' for Active; 'I' for Inactive)
REMARK    1  A    between atoms: C_1  and  C_2
REMARK    2  A    between atoms: C_3  and  C_29
REMARK    3  A    between atoms: C_4  and  C_20
REMARK    4  A    between atoms: C_10  and  C_15
REMARK    5  A    between atoms: C_29  and  O_31
REMARK    6  A    between atoms: O_31  and  C_32
REMARK    7  A    between atoms: C_32  and  C_33
REMARK    8  A    between atoms: C_33  and  C_34
REMARK                            x       y       z     vdW  Elec       q    Type
REMARK                         _______ _______ _______ _____ _____    ______ ____
ROOT
ATOM      1  C   UNL     1      -7.551   0.821   3.790  0.00  0.00    +0.061 C 
ATOM      2  C   UNL     1      -6.803   0.776   2.482  0.00  0.00    +0.016 C 
ATOM      3  C   UNL     1      -7.469   0.535   1.340  0.00  0.00    +0.065 C 
ATOM      4  C   UNL     1      -6.756   0.473   0.021  0.00  0.00    +0.092 C 
ATOM      5  C   UNL     1      -5.396   1.119   0.110  0.00  0.00    +0.024 C 
ATOM      6  C   UNL     1      -4.815   1.339   1.308  0.00  0.00    +0.016 C 
ATOM      7  N   UNL     1      -5.452   0.980   2.466  0.00  0.00    -0.321 N 
ATOM      8  C   UNL     1      -3.456   1.989   1.405  0.00  0.00    +0.060 C 
ATOM      9  C   UNL     1      -2.629   1.637   0.167  0.00  0.00    +0.039 C 
ATOM     10  C   UNL     1      -3.388   2.114  -1.076  0.00  0.00    +0.088 C 
ATOM     11  C   UNL     1      -4.754   1.483  -1.086  0.00  0.00    +0.162 C 
ATOM     12  O   UNL     1      -5.311   1.284  -2.147  0.00  0.00    -0.292 OA
ATOM     13  H   UNL     1      -4.865   0.856   3.388  0.00  0.00    +0.152 HD
ENDROOT
BRANCH   4  14
ATOM     14  C   UNL     1      -6.593  -0.969  -0.385  0.00  0.00    -0.032 A 
ATOM     15  C   UNL     1      -5.854  -1.829   0.407  0.00  0.00    +0.008 A 
ATOM     16  C   UNL     1      -5.705  -3.154   0.041  0.00  0.00    +0.050 A 
ATOM     17  C   UNL     1      -6.288  -3.621  -1.125  0.00  0.00    +0.166 A 
ATOM     18  C   UNL     1      -7.028  -2.753  -1.926  0.00  0.00    +0.167 A 
ATOM     19  C   UNL     1      -7.177  -1.428  -1.550  0.00  0.00    +0.054 A 
ATOM     20  O   UNL     1      -7.492  -3.446  -3.006  0.00  0.00    -0.453 OA
ATOM     21  C   UNL     1      -7.374  -4.837  -2.652  0.00  0.00    +0.466 C 
ATOM     22  O   UNL     1      -6.289  -4.857  -1.705  0.00  0.00    -0.453 OA
ENDBRANCH   4  14
BRANCH   9  23
ATOM     23  C   UNL     1      -1.292   2.328   0.239  0.00  0.00    -0.006 A 
ATOM     24  C   UNL     1      -0.050   1.785   0.237  0.00  0.00    +0.011 A 
ATOM     25  C   UNL     1       1.048   2.623   0.305  0.00  0.00    +0.008 A 
ATOM     26  C   UNL     1       0.850   3.962   0.378  0.00  0.00    +0.045 A 
ATOM     27  S   UNL     1      -0.932   4.073   0.351  0.00  0.00    -0.101 S 
ENDBRANCH   9  23
BRANCH   3  28
ATOM     28  C   UNL     1      -8.869   0.335   1.382  0.00  0.00    +0.338 C 
ATOM     29  O   UNL     1      -9.620   1.210   0.992  0.00  0.00    -0.245 OA
BRANCH  28  30
ATOM     30  O   UNL     1      -9.371  -0.825   1.854  0.00  0.00    -0.461 OA
BRANCH  30  31
ATOM     31  C   UNL     1     -10.794  -0.958   1.867  0.00  0.00    +0.237 C 
BRANCH  31  32
ATOM     32  C   UNL     1     -11.173  -2.329   2.431  0.00  0.00    +0.076 C 
BRANCH  32  33
ATOM     33  C   UNL     1     -12.673  -2.469   2.445  0.00  0.00    -0.044 A 
ATOM     34  C   UNL     1     -13.394  -2.076   3.557  0.00  0.00    +0.004 A 
ATOM     35  C   UNL     1     -14.771  -2.201   3.569  0.00  0.00    +0.000 A 
ATOM     36  C   UNL     1     -15.426  -2.727   2.471  0.00  0.00    +0.000 A 
ATOM     37  C   UNL     1     -14.705  -3.126   1.361  0.00  0.00    +0.000 A 
ATOM     38  C   UNL     1     -13.328  -2.997   1.348  0.00  0.00    +0.004 A 
ENDBRANCH  32  33
ENDBRANCH  31  32
ENDBRANCH  30  31
ENDBRANCH  28  30
ENDBRANCH   3  28
TORSDOF 7
