REMARK  Name = ZINC09673452
REMARK  4 active torsions:
REMARK  status: ('A' for Active; 'I' for Inactive)
REMARK    1  A    between atoms: C_1  and  C_2
REMARK    2  A    between atoms: C_5  and  N_8
REMARK    3  A    between atoms: C_13  and  C_30
REMARK    4  A    between atoms: C_21  and  C_23
REMARK                            x       y       z     vdW  Elec       q    Type
REMARK                         _______ _______ _______ _____ _____    ______ ____
ROOT
ATOM      1  N   UNL     1       0.439  -3.954  -0.420  0.00  0.00    -0.208 N 
ATOM      2  C   UNL     1       0.384  -4.591   0.794  0.00  0.00    +0.234 C 
ATOM      3  O   UNL     1       0.207  -4.091   1.884  0.00  0.00    -0.274 OA
ATOM      4  C   UNL     1       0.585  -5.984   0.489  0.00  0.00    +0.130 C 
ATOM      5  C   UNL     1       0.349  -7.325   1.043  0.00  0.00    +0.120 C 
ATOM      6  N   UNL     1       0.345  -8.194  -0.181  0.00  0.00    -0.229 NA
ATOM      7  N   UNL     1       0.493  -7.377  -1.303  0.00  0.00    -0.220 N 
ATOM      8  C   UNL     1      -0.156  -6.114  -0.904  0.00  0.00    +0.194 C 
ATOM      9  C   UNL     1       0.360  -4.820  -1.473  0.00  0.00    +0.249 C 
ATOM     10  O   UNL     1       0.648  -4.594  -2.629  0.00  0.00    -0.273 OA
ATOM     11  C   UNL     1       1.080  -7.685  -2.477  0.00  0.00    +0.261 C 
ATOM     12  O   UNL     1       1.215  -6.832  -3.332  0.00  0.00    -0.269 OA
ATOM     13  H   UNL     1      -0.505  -8.735  -0.238  0.00  0.00    +0.145 HD
ENDROOT
BRANCH   1  18
ATOM     14  C   UNL     1       0.913   1.672  -1.003  0.00  0.00    +0.044 C 
ATOM     15  C   UNL     1       0.787   0.178  -0.848  0.00  0.00    -0.050 A 
ATOM     16  C   UNL     1       0.714  -0.627  -1.969  0.00  0.00    +0.005 A 
ATOM     17  C   UNL     1       0.599  -1.997  -1.831  0.00  0.00    +0.024 A 
ATOM     18  C   UNL     1       0.556  -2.564  -0.564  0.00  0.00    +0.044 A 
ATOM     19  C   UNL     1       0.630  -1.752   0.560  0.00  0.00    +0.024 A 
ATOM     20  C   UNL     1       0.750  -0.384   0.415  0.00  0.00    +0.005 A 
ENDBRANCH   1  18
BRANCH  11  21
ATOM     21  C   UNL     1       1.559  -9.062  -2.725  0.00  0.00    +0.039 A 
ATOM     22  C   UNL     1       2.292  -9.352  -3.877  0.00  0.00    +0.013 A 
ATOM     23  C   UNL     1       2.736 -10.638  -4.103  0.00  0.00    +0.002 A 
ATOM     24  C   UNL     1       2.456 -11.640  -3.190  0.00  0.00    +0.015 A 
ATOM     25  C   UNL     1       1.729 -11.360  -2.046  0.00  0.00    +0.019 A 
ATOM     26  C   UNL     1       1.285 -10.075  -1.805  0.00  0.00    +0.028 A 
ATOM     27 BR   UNL     1       1.352 -12.737  -0.806  0.00  0.00    -0.050 Br
ENDBRANCH  11  21
BRANCH   5  28
ATOM     28  C   UNL     1      -0.981  -7.385   1.750  0.00  0.00    +0.007 A 
ATOM     29  C   UNL     1      -2.110  -7.794   1.065  0.00  0.00    +0.008 A 
ATOM     30  C   UNL     1      -3.330  -7.848   1.712  0.00  0.00    +0.000 A 
ATOM     31  C   UNL     1      -3.422  -7.495   3.046  0.00  0.00    +0.003 A 
ATOM     32  C   UNL     1      -2.295  -7.087   3.732  0.00  0.00    +0.038 A 
ATOM     33  C   UNL     1      -1.071  -7.036   3.086  0.00  0.00    +0.128 A 
ATOM     34  F   UNL     1       0.032  -6.642   3.758  0.00  0.00    -0.205 F 
ENDBRANCH   5  28
TORSDOF 3
