REMARK  Name = ZINC20284157
REMARK  9 active torsions:
REMARK  status: ('A' for Active; 'I' for Inactive)
REMARK    1  A    between atoms: C_1  and  C_2
REMARK    2  A    between atoms: C_5  and  N_8
REMARK    3  A    between atoms: C_11  and  C_13
REMARK    4  A    between atoms: C_14  and  C_19
REMARK    5  A    between atoms: C_16  and  C_18
REMARK    6  A    between atoms: N_21  and  C_22
REMARK    7  A    between atoms: C_22  and  C_23
REMARK    8  A    between atoms: C_26  and  C_28
REMARK    9  A    between atoms: C_28  and  N_29
REMARK                            x       y       z     vdW  Elec       q    Type
REMARK                         _______ _______ _______ _____ _____    ______ ____
ROOT
ATOM      1  C   UNL     1       2.049   6.242  -1.630  0.00  0.00    +0.245 C 
ATOM      2  O   UNL     1       2.616   6.789  -0.705  0.00  0.00    -0.270 OA
ATOM      3  N   UNL     1       1.117   5.299  -1.386  0.00  0.00    -0.304 N 
ATOM      4  H   UNL     1       0.603   4.804  -2.224  0.00  0.00    +0.149 HD
ENDROOT
BRANCH   1  11
ATOM      5  N   UNL     1       4.382   9.082  -4.623  0.00  0.00    -0.214 N 
ATOM      6  C   UNL     1       3.530   8.005  -4.650  0.00  0.00    +0.164 A 
ATOM      7  C   UNL     1       3.244   7.692  -3.305  0.00  0.00    +0.054 A 
ATOM      8  C   UNL     1       3.953   8.614  -2.504  0.00  0.00    +0.070 A 
ATOM      9  N   UNL     1       4.614   9.421  -3.284  0.00  0.00    -0.169 NA
ATOM     10  C   UNL     1       3.944   8.658  -0.998  0.00  0.00    +0.068 C 
ATOM     11  C   UNL     1       2.380   6.612  -3.023  0.00  0.00    +0.051 A 
ATOM     12  C   UNL     1       1.855   5.901  -4.100  0.00  0.00    +0.037 A 
ATOM     13  C   UNL     1       2.186   6.281  -5.392  0.00  0.00    +0.041 A 
ATOM     14  N   UNL     1       2.993   7.292  -5.628  0.00  0.00    -0.232 NA
ATOM     15  C   UNL     1       1.611   5.513  -6.554  0.00  0.00    +0.065 C 
BRANCH   5  20
ATOM     16  C   UNL     1       6.582  11.700  -9.151  0.00  0.00    +0.044 C 
ATOM     17  C   UNL     1       5.997  11.005  -7.948  0.00  0.00    -0.050 A 
ATOM     18  C   UNL     1       5.668  11.735  -6.821  0.00  0.00    +0.005 A 
ATOM     19  C   UNL     1       5.133  11.101  -5.717  0.00  0.00    +0.028 A 
ATOM     20  C   UNL     1       4.925   9.728  -5.740  0.00  0.00    +0.068 A 
ATOM     21  C   UNL     1       5.262   8.996  -6.872  0.00  0.00    +0.028 A 
ATOM     22  C   UNL     1       5.792   9.638  -7.974  0.00  0.00    +0.005 A 
ENDBRANCH   5  20
ENDBRANCH   1  11
BRANCH   3  23
ATOM     23  C   UNL     1       0.788   4.933  -0.006  0.00  0.00    +0.179 C 
BRANCH  23  24
ATOM     24  C   UNL     1      -0.274   3.865  -0.009  0.00  0.00    +0.122 A 
ATOM     25  C   UNL     1      -0.056   2.538  -0.031  0.00  0.00    +0.046 A 
ATOM     26  C   UNL     1      -1.324   1.913  -0.025  0.00  0.00    +0.043 A 
ATOM     27  C   UNL     1      -2.242   2.896  -0.006  0.00  0.00    +0.089 A 
ATOM     28  O   UNL     1      -1.601   4.076   0.008  0.00  0.00    -0.465 OA
BRANCH  27  29
ATOM     29  C   UNL     1      -3.737   2.706   0.001  0.00  0.00    -0.003 C 
BRANCH  29  30
ATOM     30  N   UNL     1      -4.214   2.626   1.388  0.00  0.00    +0.384 N 
ATOM     31  C   UNL     1      -3.611   1.471   2.090  0.00  0.00    -0.078 C 
ATOM     32  C   UNL     1      -4.266   1.185   3.414  0.00  0.00    -0.019 C 
ATOM     33  C   UNL     1      -5.365   0.124   3.197  0.00  0.00    -0.002 C 
ATOM     34  C   UNL     1      -6.580   0.697   2.629  0.00  0.00    -0.002 C 
ATOM     35  C   UNL     1      -6.332   1.332   1.244  0.00  0.00    -0.019 C 
ATOM     36  C   UNL     1      -5.692   2.679   1.444  0.00  0.00    -0.078 C 
ATOM     37  H   UNL     1      -3.868   3.515   1.935  0.00  0.00    -0.081 HD
ENDBRANCH  29  30
ENDBRANCH  27  29
ENDBRANCH  23  24
ENDBRANCH   3  23
TORSDOF 6
