REMARK  Name = ZINC09264280
REMARK  5 active torsions:
REMARK  status: ('A' for Active; 'I' for Inactive)
REMARK    1  A    between atoms: C_1  and  C_2
REMARK    2  A    between atoms: C_2  and  C_3
REMARK    3  A    between atoms: C_3  and  N_4
REMARK    4  A    between atoms: C_17  and  C_19
REMARK    5  A    between atoms: C_28  and  C_31
REMARK                            x       y       z     vdW  Elec       q    Type
REMARK                         _______ _______ _______ _____ _____    ______ ____
ROOT
ATOM      1  N   UNL     1      -5.610   1.756   1.628  0.00  0.00    -0.299 N 
ATOM      2  C   UNL     1      -4.415   1.195   1.359  0.00  0.00    +0.307 C 
ATOM      3  O   UNL     1      -3.950   0.363   2.115  0.00  0.00    -0.252 OA
ATOM      4  N   UNL     1      -3.734   1.556   0.253  0.00  0.00    -0.242 N 
ATOM      5  C   UNL     1      -4.278   2.511  -0.607  0.00  0.00    +0.060 A 
ATOM      6  C   UNL     1      -5.448   2.272  -1.309  0.00  0.00    +0.025 A 
ATOM      7  C   UNL     1      -5.924   3.232  -2.185  0.00  0.00    +0.002 A 
ATOM      8  C   UNL     1      -5.237   4.419  -2.364  0.00  0.00    +0.002 A 
ATOM      9  C   UNL     1      -4.077   4.668  -1.651  0.00  0.00    +0.025 A 
ATOM     10  C   UNL     1      -3.612   3.718  -0.757  0.00  0.00    +0.053 A 
ATOM     11  N   UNL     1      -2.521   3.949   0.082  0.00  0.00    -0.316 N 
ATOM     12  C   UNL     1      -1.362   3.243   0.051  0.00  0.00    +0.017 C 
ATOM     13  C   UNL     1      -1.283   1.902   0.007  0.00  0.00    +0.037 C 
ATOM     14  C   UNL     1      -2.451   0.946  -0.025  0.00  0.00    +0.148 C 
ATOM     15  C   UNL     1      -0.021   1.264  -0.015  0.00  0.00    +0.163 C 
ATOM     16  O   UNL     1       0.022   0.049  -0.024  0.00  0.00    -0.292 OA
ATOM     17  C   UNL     1       1.266   2.033  -0.036  0.00  0.00    +0.091 C 
ATOM     18  C   UNL     1       1.012   3.390  -0.703  0.00  0.00    +0.068 C 
ATOM     19  C   UNL     1      -0.100   4.090   0.076  0.00  0.00    +0.063 C 
ATOM     20  H   UNL     1      -5.981   2.419   1.026  0.00  0.00    +0.150 HD
ATOM     21  H   UNL     1      -2.591   4.670   0.728  0.00  0.00    +0.152 HD
ENDROOT
BRANCH  14  22
ATOM     22  C   UNL     1      -2.510   0.310  -1.390  0.00  0.00    -0.022 A 
ATOM     23  C   UNL     1      -2.320  -1.052  -1.526  0.00  0.00    +0.006 A 
ATOM     24  C   UNL     1      -2.379  -1.636  -2.778  0.00  0.00    +0.000 A 
ATOM     25  C   UNL     1      -2.618  -0.856  -3.894  0.00  0.00    +0.000 A 
ATOM     26  C   UNL     1      -2.803   0.507  -3.758  0.00  0.00    +0.000 A 
ATOM     27  C   UNL     1      -2.749   1.090  -2.506  0.00  0.00    +0.006 A 
ENDBRANCH  14  22
BRANCH  18  28
ATOM     28  C   UNL     1       2.267   4.223  -0.660  0.00  0.00    +0.109 A 
ATOM     29  C   UNL     1       2.929   4.704  -1.727  0.00  0.00    +0.045 A 
ATOM     30  C   UNL     1       4.040   5.424  -1.230  0.00  0.00    +0.041 A 
ATOM     31  C   UNL     1       3.990   5.340   0.111  0.00  0.00    +0.195 A 
ATOM     32  O   UNL     1       2.911   4.617   0.452  0.00  0.00    -0.468 OA
ENDBRANCH  18  28
BRANCH   1  33
ATOM     33  C   UNL     1      -6.350   1.363   2.830  0.00  0.00    +0.105 C 
BRANCH  33  35
ATOM     34  C   UNL     1      -8.437   1.733   4.153  0.00  0.00    +0.005 C 
ATOM     35  C   UNL     1      -7.665   2.143   2.898  0.00  0.00    +0.015 C 
ENDBRANCH  33  35
ENDBRANCH   1  33
TORSDOF 4
