REMARK  Name = ZINC13034668
REMARK  6 active torsions:
REMARK  status: ('A' for Active; 'I' for Inactive)
REMARK    1  A    between atoms: C_6  and  N_7
REMARK    2  A    between atoms: C_13  and  C_31
REMARK    3  A    between atoms: C_17  and  S_18
REMARK    4  A    between atoms: S_18  and  C_19
REMARK    5  A    between atoms: C_19  and  C_20
REMARK    6  A    between atoms: N_22  and  C_23
REMARK                            x       y       z     vdW  Elec       q    Type
REMARK                         _______ _______ _______ _____ _____    ______ ____
ROOT
ATOM      1  N   UNL     1       2.620   7.870   0.020  0.00  0.00    -0.255 N 
ATOM      2  C   UNL     1       1.502   7.298   0.521  0.00  0.00    +0.267 A 
ATOM      3  O   UNL     1       0.599   7.973   0.980  0.00  0.00    -0.267 OA
ATOM      4  C   UNL     1       1.416   5.829   0.490  0.00  0.00    +0.065 A 
ATOM      5  C   UNL     1       0.302   5.151   0.984  0.00  0.00    +0.016 A 
ATOM      6  C   UNL     1       0.258   3.787   0.933  0.00  0.00    +0.016 A 
ATOM      7  C   UNL     1       1.328   3.059   0.398  0.00  0.00    +0.065 A 
ATOM      8  C   UNL     1       2.447   3.714  -0.100  0.00  0.00    +0.043 A 
ATOM      9  C   UNL     1       2.502   5.110  -0.058  0.00  0.00    +0.080 A 
ATOM     10  N   UNL     1       3.572   5.790  -0.531  0.00  0.00    -0.223 NA
ATOM     11  C   UNL     1       3.626   7.098  -0.493  0.00  0.00    +0.177 A 
ENDROOT
BRANCH   1  17
ATOM     12  C   UNL     1       3.325   9.905   1.117  0.00  0.00    +0.029 A 
ATOM     13  C   UNL     1       3.456  11.280   1.120  0.00  0.00    +0.040 A 
ATOM     14  C   UNL     1       3.005  12.021   0.041  0.00  0.00    +0.124 A 
ATOM     15  C   UNL     1       2.426  11.386  -1.045  0.00  0.00    +0.040 A 
ATOM     16  C   UNL     1       2.298  10.011  -1.054  0.00  0.00    +0.029 A 
ATOM     17  C   UNL     1       2.750   9.266   0.027  0.00  0.00    +0.052 A 
ATOM     18  F   UNL     1       3.129  13.367   0.048  0.00  0.00    -0.205 F 
ENDBRANCH   1  17
BRANCH   7  19
ATOM     19  C   UNL     1       1.263   1.581   0.357  0.00  0.00    +0.387 C 
ATOM     20  O   UNL     1       2.187   0.946  -0.110  0.00  0.00    -0.241 OA
ATOM     21  O   UNL     1       0.180   0.941   0.838  0.00  0.00    -0.241 OA
ENDBRANCH   7  19
BRANCH  11  22
ATOM     22  S   UNL     1       5.059   7.900  -1.132  0.00  0.00    -0.078 S 
BRANCH  22  23
ATOM     23  C   UNL     1       6.018   6.458  -1.656  0.00  0.00    +0.173 C 
BRANCH  23  24
ATOM     24  C   UNL     1       7.325   6.914  -2.252  0.00  0.00    +0.224 C 
ATOM     25  O   UNL     1       7.582   8.097  -2.316  0.00  0.00    -0.275 OA
ATOM     26  N   UNL     1       8.208   6.006  -2.714  0.00  0.00    -0.310 N 
ATOM     27  H   UNL     1       8.002   5.060  -2.663  0.00  0.00    +0.149 HD
BRANCH  26  28
ATOM     28  C   UNL     1       9.479   6.449  -3.294  0.00  0.00    +0.095 C 
ATOM     29  C   UNL     1       9.288   6.758  -4.788  0.00  0.00    +0.046 C 
ATOM     30  C   UNL     1      10.667   6.913  -5.474  0.00  0.00    +0.168 C 
ATOM     31  S   UNL     1      11.754   5.846  -4.444  0.00  0.00    -0.029 S 
ATOM     32  O   UNL     1      12.749   6.655  -3.831  0.00  0.00    -0.174 OA
ATOM     33  O   UNL     1      12.146   4.712  -5.205  0.00  0.00    -0.174 OA
ATOM     34  C   UNL     1      10.538   5.318  -3.164  0.00  0.00    +0.188 C 
ENDBRANCH  26  28
ENDBRANCH  23  24
ENDBRANCH  22  23
ENDBRANCH  11  22
TORSDOF 6
