REMARK  Name = ZINC06811983
REMARK  9 active torsions:
REMARK  status: ('A' for Active; 'I' for Inactive)
REMARK    1  A    between atoms: C_1  and  C_2
REMARK    2  A    between atoms: C_2  and  C_3
REMARK    3  A    between atoms: C_6  and  C_9
REMARK    4  A    between atoms: C_11  and  C_22
REMARK    5  A    between atoms: C_17  and  C_20
REMARK    6  A    between atoms: C_20  and  C_21
REMARK    7  A    between atoms: N_24  and  C_25
REMARK    8  A    between atoms: C_28  and  C_32
REMARK    9  A    between atoms: C_30  and  C_31
REMARK                            x       y       z     vdW  Elec       q    Type
REMARK                         _______ _______ _______ _____ _____    ______ ____
ROOT
ATOM      1  C   UNL     1       7.094   1.269  -1.051  0.00  0.00    +0.140 C 
ATOM      2  C   UNL     1       6.149   2.067  -0.143  0.00  0.00    +0.166 C 
ATOM      3  S   UNL     1       6.885   2.121   1.518  0.00  0.00    -0.069 S 
ATOM      4  C   UNL     1       7.368   0.426   1.625  0.00  0.00    +0.209 A 
ATOM      5  N   UNL     1       7.762  -0.234   2.679  0.00  0.00    -0.121 NA
ATOM      6  N   UNL     1       8.041  -1.447   2.345  0.00  0.00    -0.132 NA
ATOM      7  C   UNL     1       7.837  -1.620   1.067  0.00  0.00    +0.151 A 
ATOM      8  N   UNL     1       7.392  -0.432   0.562  0.00  0.00    -0.225 N 
ATOM      9  N   UNL     1       7.041  -0.155  -0.720  0.00  0.00    -0.272 N 
ATOM     10  H   UNL     1       6.136  -0.544  -0.939  0.00  0.00    +0.167 HD
ENDROOT
BRANCH   1  14
ATOM     11  C   UNL     1       5.927   1.805  -5.125  0.00  0.00    -0.048 A 
ATOM     12  C   UNL     1       6.983   2.531  -4.607  0.00  0.00    +0.004 A 
ATOM     13  C   UNL     1       7.361   2.358  -3.289  0.00  0.00    +0.006 A 
ATOM     14  C   UNL     1       6.682   1.458  -2.488  0.00  0.00    -0.024 A 
ATOM     15  C   UNL     1       5.630   0.728  -3.007  0.00  0.00    +0.006 A 
ATOM     16  C   UNL     1       5.249   0.904  -4.324  0.00  0.00    +0.004 A 
BRANCH  11  18
ATOM     17  C   UNL     1       6.289   1.014  -7.447  0.00  0.00    +0.009 C 
ATOM     18  C   UNL     1       5.515   1.994  -6.562  0.00  0.00    +0.032 C 
ENDBRANCH  11  18
ENDBRANCH   1  14
BRANCH   2  19
ATOM     19  C   UNL     1       4.805   1.387  -0.084  0.00  0.00    +0.233 C 
ATOM     20  O   UNL     1       3.977   1.604  -0.943  0.00  0.00    -0.274 OA
ATOM     21  N   UNL     1       4.524   0.537   0.924  0.00  0.00    -0.284 N 
ATOM     22  H   UNL     1       5.154   0.424   1.653  0.00  0.00    +0.155 HD
BRANCH  21  23
ATOM     23  C   UNL     1       3.323  -0.181   0.919  0.00  0.00    +0.036 A 
ATOM     24  C   UNL     1       2.621  -0.355  -0.267  0.00  0.00    +0.024 A 
ATOM     25  C   UNL     1       1.437  -1.065  -0.269  0.00  0.00    +0.005 A 
ATOM     26  C   UNL     1       0.949  -1.602   0.909  0.00  0.00    -0.050 A 
ATOM     27  C   UNL     1       1.645  -1.431   2.091  0.00  0.00    +0.008 A 
ATOM     28  C   UNL     1       2.831  -0.722   2.099  0.00  0.00    -0.029 A 
ATOM     29  C   UNL     1       3.589  -0.535   3.388  0.00  0.00    +0.045 C 
ATOM     30  C   UNL     1      -0.344  -2.376   0.903  0.00  0.00    +0.044 C 
ENDBRANCH  21  23
ENDBRANCH   2  19
BRANCH   7  31
ATOM     31  C   UNL     1       8.050  -2.895   0.293  0.00  0.00    +0.074 C 
ATOM     32  C   UNL     1       9.484  -2.933  -0.240  0.00  0.00    +0.012 C 
ENDBRANCH   7  31
TORSDOF 5
