REMARK  Name = ZINC09045328
REMARK  8 active torsions:
REMARK  status: ('A' for Active; 'I' for Inactive)
REMARK    1  A    between atoms: C_1  and  C_2
REMARK    2  A    between atoms: C_11  and  O_19
REMARK    3  A    between atoms: C_12  and  C_14
REMARK    4  A    between atoms: O_19  and  C_20
REMARK    5  A    between atoms: C_20  and  C_22
REMARK    6  A    between atoms: C_20  and  C_23
REMARK    7  A    between atoms: N_25  and  C_26
REMARK    8  A    between atoms: C_31  and  C_32
REMARK                            x       y       z     vdW  Elec       q    Type
REMARK                         _______ _______ _______ _____ _____    ______ ____
ROOT
ATOM      1  C   UNL     1       2.429   1.639  -0.005  0.00  0.00    +0.045 C 
ATOM      2  C   UNL     1       1.125   2.395   0.012  0.00  0.00    -0.029 A 
ATOM      3  C   UNL     1       1.136   3.773   0.016  0.00  0.00    +0.051 A 
ATOM      4  C   UNL     1      -0.062   4.477   0.031  0.00  0.00    +0.140 A 
ATOM      5  C   UNL     1      -1.275   3.770   0.042  0.00  0.00    +0.069 A 
ATOM      6  C   UNL     1      -1.274   2.376   0.032  0.00  0.00    +0.035 A 
ATOM      7  C   UNL     1      -0.074   1.696   0.023  0.00  0.00    +0.045 A 
ATOM      8 CL   UNL     1      -0.064  -0.040   0.018  0.00  0.00    -0.083 Cl
ATOM      9  C   UNL     1      -2.539   4.532   0.057  0.00  0.00    +0.235 A 
ATOM     10  O   UNL     1      -3.620   3.966   0.067  0.00  0.00    -0.283 OA
ATOM     11  C   UNL     1      -2.449   5.944   0.060  0.00  0.00    +0.215 A 
ATOM     12  C   UNL     1      -1.206   6.541   0.048  0.00  0.00    +0.216 A 
ATOM     13  O   UNL     1      -0.068   5.827   0.035  0.00  0.00    -0.448 OA
ENDROOT
BRANCH  12  14
ATOM     14  C   UNL     1      -1.125   8.004   0.051  0.00  0.00    +0.173 A 
ATOM     15  C   UNL     1       0.024   8.744   0.040  0.00  0.00    +0.053 A 
ATOM     16  C   UNL     1      -0.365  10.094   0.047  0.00  0.00    +0.042 A 
ATOM     17  C   UNL     1      -1.715  10.118   0.062  0.00  0.00    +0.196 A 
ATOM     18  O   UNL     1      -2.170   8.856   0.058  0.00  0.00    -0.460 OA
ENDBRANCH  12  14
BRANCH  11  19
ATOM     19  O   UNL     1      -3.578   6.704   0.073  0.00  0.00    -0.473 OA
BRANCH  19  20
ATOM     20  C   UNL     1      -4.129   7.069  -1.193  0.00  0.00    +0.256 C 
ATOM     21  C   UNL     1      -5.132   6.003  -1.639  0.00  0.00    +0.062 C 
BRANCH  20  22
ATOM     22  C   UNL     1      -4.829   8.398  -1.072  0.00  0.00    +0.258 C 
ATOM     23  O   UNL     1      -4.854   8.976  -0.006  0.00  0.00    -0.271 OA
ATOM     24  N   UNL     1      -5.428   8.945  -2.148  0.00  0.00    -0.282 N 
ATOM     25  H   UNL     1      -5.341   8.524  -3.018  0.00  0.00    +0.155 HD
BRANCH  24  26
ATOM     26  C   UNL     1      -6.176  10.120  -2.011  0.00  0.00    +0.045 A 
ATOM     27  C   UNL     1      -6.739  10.447  -0.785  0.00  0.00    +0.024 A 
ATOM     28  C   UNL     1      -7.473  11.610  -0.652  0.00  0.00    +0.002 A 
ATOM     29  C   UNL     1      -7.655  12.442  -1.741  0.00  0.00    +0.001 A 
ATOM     30  C   UNL     1      -7.101  12.116  -2.965  0.00  0.00    +0.014 A 
ATOM     31  C   UNL     1      -6.362  10.957  -3.103  0.00  0.00    +0.076 A 
BRANCH  31  32
ATOM     32  C   UNL     1      -5.759  10.602  -4.438  0.00  0.00    +0.419 C 
ATOM     33  F   UNL     1      -6.082  11.591  -5.373  0.00  0.00    -0.166 F 
ATOM     34  F   UNL     1      -4.368  10.514  -4.312  0.00  0.00    -0.166 F 
ATOM     35  F   UNL     1      -6.267   9.371  -4.866  0.00  0.00    -0.166 F 
ENDBRANCH  31  32
ENDBRANCH  24  26
ENDBRANCH  20  22
ENDBRANCH  19  20
ENDBRANCH  11  19
TORSDOF 6
