REMARK  Name = ZINC34988115
REMARK  14 active torsions:
REMARK  status: ('A' for Active; 'I' for Inactive)
REMARK    1  A    between atoms: C_1  and  C_2
REMARK    2  A    between atoms: C_3  and  C_34
REMARK    3  A    between atoms: C_4  and  N_12
REMARK    4  A    between atoms: C_6  and  C_7
REMARK    5  A    between atoms: N_9  and  C_10
REMARK    6  A    between atoms: N_9  and  C_11
REMARK    7  A    between atoms: C_13  and  C_15
REMARK    8  A    between atoms: C_15  and  C_32
REMARK    9  A    between atoms: C_16  and  C_17
REMARK   10  A    between atoms: C_20  and  O_23
REMARK   11  A    between atoms: O_23  and  C_24
REMARK   12  A    between atoms: C_24  and  C_25
REMARK   13  A    between atoms: C_34  and  O_36
REMARK   14  A    between atoms: O_36  and  C_37
REMARK                            x       y       z     vdW  Elec       q    Type
REMARK                         _______ _______ _______ _____ _____    ______ ____
ROOT
ATOM      1  N   UNL     1       2.142  -3.665  -2.019  0.00  0.00    -0.275 N 
ATOM      2  C   UNL     1       2.210  -4.943  -1.597  0.00  0.00    +0.259 C 
ATOM      3  O   UNL     1       2.403  -5.185  -0.420  0.00  0.00    -0.269 OA
ATOM      4  H   UNL     1       1.988  -3.472  -2.957  0.00  0.00    +0.156 HD
ENDROOT
BRANCH   1   8
ATOM      5  C   UNL     1       2.405   1.095  -0.449  0.00  0.00    +0.046 C 
ATOM      6  C   UNL     1       2.430  -0.403  -0.288  0.00  0.00    -0.015 A 
ATOM      7  C   UNL     1       2.252  -1.258  -1.368  0.00  0.00    +0.091 A 
ATOM      8  C   UNL     1       2.291  -2.632  -1.117  0.00  0.00    +0.087 A 
ATOM      9  S   UNL     1       2.562  -2.731   0.537  0.00  0.00    -0.068 S 
ATOM     10  C   UNL     1       2.634  -0.995   0.928  0.00  0.00    +0.079 A 
BRANCH  10  11
ATOM     11  C   UNL     1       2.855  -0.360   2.229  0.00  0.00    +0.253 C 
ATOM     12  O   UNL     1       3.036   0.842   2.296  0.00  0.00    -0.269 OA
ATOM     13  N   UNL     1       2.859  -1.105   3.352  0.00  0.00    -0.303 N 
ATOM     14  C   UNL     1       3.046  -0.465   4.656  0.00  0.00    +0.132 C 
ATOM     15  C   UNL     1       2.675  -2.556   3.268  0.00  0.00    +0.132 C 
ENDBRANCH  10  11
BRANCH   7  16
ATOM     16  C   UNL     1       2.030  -0.738  -2.721  0.00  0.00    +0.342 C 
ATOM     17  O   UNL     1       2.977  -0.523  -3.453  0.00  0.00    -0.245 OA
BRANCH  16  18
ATOM     18  O   UNL     1       0.775  -0.498  -3.154  0.00  0.00    -0.464 OA
ATOM     19  C   UNL     1       0.633   0.008  -4.483  0.00  0.00    +0.280 C 
ENDBRANCH  16  18
ENDBRANCH   7  16
ENDBRANCH   1   8
BRANCH   2  20
ATOM     20  C   UNL     1       2.051  -6.045  -2.558  0.00  0.00    +0.114 C 
ATOM     21  C   UNL     1       1.972  -7.345  -2.108  0.00  0.00    +0.032 C 
BRANCH  21  22
ATOM     22  C   UNL     1       1.770  -7.617  -0.683  0.00  0.00    -0.023 A 
ATOM     23  C   UNL     1       0.802  -6.904   0.039  0.00  0.00    +0.011 A 
ATOM     24  C   UNL     1       0.618  -7.162   1.368  0.00  0.00    +0.046 A 
ATOM     25  C   UNL     1       1.390  -8.128   2.005  0.00  0.00    +0.121 A 
ATOM     26  C   UNL     1       2.352  -8.839   1.294  0.00  0.00    +0.046 A 
ATOM     27  C   UNL     1       2.541  -8.594  -0.037  0.00  0.00    +0.011 A 
BRANCH  25  28
ATOM     28  O   UNL     1       1.203  -8.380   3.325  0.00  0.00    -0.487 OA
BRANCH  28  29
ATOM     29  C   UNL     1       2.028  -9.384   3.917  0.00  0.00    +0.267 C 
BRANCH  29  30
ATOM     30  C   UNL     1       1.681  -9.524   5.377  0.00  0.00    +0.025 A 
ATOM     31  C   UNL     1       0.687  -8.738   5.929  0.00  0.00    +0.010 A 
ATOM     32  C   UNL     1       0.368  -8.865   7.268  0.00  0.00    +0.001 A 
ATOM     33  C   UNL     1       1.043  -9.779   8.057  0.00  0.00    +0.003 A 
ATOM     34  C   UNL     1       2.037 -10.566   7.507  0.00  0.00    +0.039 A 
ATOM     35  C   UNL     1       2.353 -10.443   6.164  0.00  0.00    +0.130 A 
ATOM     36  F   UNL     1       3.322 -11.215   5.625  0.00  0.00    -0.205 F 
ENDBRANCH  29  30
ENDBRANCH  28  29
ENDBRANCH  25  28
ENDBRANCH  21  22
BRANCH  20  37
ATOM     37  C   UNL     1       1.978  -5.766  -3.960  0.00  0.00    +0.104 C 
ATOM     38  N   UNL     1       1.920  -5.546  -5.073  0.00  0.00    -0.191 NA
ENDBRANCH  20  37
ENDBRANCH   2  20
TORSDOF 10
