REMARK  Name = ZINC39503264
REMARK  7 active torsions:
REMARK  status: ('A' for Active; 'I' for Inactive)
REMARK    1  A    between atoms: C_4  and  C_7
REMARK    2  A    between atoms: C_7  and  C_8
REMARK    3  A    between atoms: C_15  and  S_26
REMARK    4  A    between atoms: N_18  and  C_19
REMARK    5  A    between atoms: C_19  and  C_20
REMARK    6  A    between atoms: S_26  and  O_29
REMARK    7  A    between atoms: O_29  and  C_30
REMARK                            x       y       z     vdW  Elec       q    Type
REMARK                         _______ _______ _______ _____ _____    ______ ____
ROOT
ATOM      1  C   UNL     1       4.599  -1.209   0.240  0.00  0.00    -0.008 C 
ATOM      2  C   UNL     1       4.743   0.165   0.929  0.00  0.00    +0.002 C 
ATOM      3  C   UNL     1       5.721  -0.097   2.103  0.00  0.00    -0.012 C 
ATOM      4  C   UNL     1       6.712  -1.110   1.498  0.00  0.00    -0.063 C 
ATOM      5  C   UNL     1       5.861  -2.017   0.598  0.00  0.00    -0.008 C 
ATOM      6  C   UNL     1       7.787  -0.383   0.679  0.00  0.00    +0.016 C 
ATOM      7  C   UNL     1       8.993  -0.338   1.657  0.00  0.00    +0.154 C 
ATOM      8  C   UNL     1       8.844  -1.688   2.405  0.00  0.00    -0.048 C 
ATOM      9  N   UNL     1       7.382  -1.880   2.550  0.00  0.00    +0.387 N 
ATOM     10  H   UNL     1       7.084  -1.551   3.456  0.00  0.00    -0.080 HD
ENDROOT
BRANCH   7  11
ATOM     11  S   UNL     1      10.563  -0.267   0.751  0.00  0.00    +0.122 S 
ATOM     12  O   UNL     1      10.742  -1.453  -0.010  0.00  0.00    -0.137 OA
ATOM     13  O   UNL     1      10.723   1.011   0.150  0.00  0.00    -0.137 OA
BRANCH  11  14
ATOM     14  O   UNL     1      11.638  -0.328   1.826  0.00  0.00    -0.346 OA
BRANCH  14  15
ATOM     15  C   UNL     1      11.794   0.830   2.519  0.00  0.00    +0.156 A 
ATOM     16  C   UNL     1      12.678   1.798   2.066  0.00  0.00    +0.048 A 
ATOM     17  C   UNL     1      12.834   2.975   2.772  0.00  0.00    +0.004 A 
ATOM     18  C   UNL     1      12.110   3.189   3.930  0.00  0.00    +0.000 A 
ATOM     19  C   UNL     1      11.228   2.226   4.385  0.00  0.00    +0.004 A 
ATOM     20  C   UNL     1      11.064   1.050   3.679  0.00  0.00    +0.048 A 
ENDBRANCH  14  15
ENDBRANCH  11  14
ENDBRANCH   7  11
BRANCH   1  21
ATOM     21  C   UNL     1       4.505  -1.027  -1.277  0.00  0.00    +0.038 C 
BRANCH  21  25
ATOM     22  C   UNL     1       0.849   0.953  -2.254  0.00  0.00    +0.000 A 
ATOM     23  C   UNL     1       1.989   1.692  -2.002  0.00  0.00    +0.000 A 
ATOM     24  C   UNL     1       3.172   1.051  -1.685  0.00  0.00    +0.003 A 
ATOM     25  C   UNL     1       3.215  -0.329  -1.621  0.00  0.00    -0.047 A 
ATOM     26  C   UNL     1       2.075  -1.068  -1.872  0.00  0.00    +0.003 A 
ATOM     27  C   UNL     1       0.892  -0.428  -2.190  0.00  0.00    +0.000 A 
ENDBRANCH  21  25
ENDBRANCH   1  21
BRANCH   9  28
ATOM     28  C   UNL     1       7.053  -3.305   2.407  0.00  0.00    -0.042 C 
BRANCH  28  29
ATOM     29  C   UNL     1       7.739  -4.090   3.496  0.00  0.00    -0.064 A 
ATOM     30  C   UNL     1       9.009  -4.595   3.289  0.00  0.00    +0.002 A 
ATOM     31  C   UNL     1       9.638  -5.315   4.287  0.00  0.00    +0.000 A 
ATOM     32  C   UNL     1       8.996  -5.530   5.493  0.00  0.00    +0.000 A 
ATOM     33  C   UNL     1       7.726  -5.025   5.700  0.00  0.00    +0.000 A 
ATOM     34  C   UNL     1       7.099  -4.301   4.703  0.00  0.00    +0.002 A 
ENDBRANCH  28  29
ENDBRANCH   9  28
TORSDOF 7
