REMARK  Name = ZINC37604919
REMARK  9 active torsions:
REMARK  status: ('A' for Active; 'I' for Inactive)
REMARK    1  A    between atoms: C_1  and  C_2
REMARK    2  A    between atoms: C_6  and  C_8
REMARK    3  A    between atoms: C_12  and  O_24
REMARK    4  A    between atoms: C_19  and  C_21
REMARK    5  A    between atoms: O_24  and  C_25
REMARK    6  A    between atoms: C_25  and  C_26
REMARK    7  A    between atoms: C_28  and  C_31
REMARK    8  A    between atoms: N_33  and  C_34
REMARK    9  A    between atoms: C_34  and  C_35
REMARK                            x       y       z     vdW  Elec       q    Type
REMARK                         _______ _______ _______ _____ _____    ______ ____
ROOT
ATOM      1  C   UNL     1       0.065  -2.854   2.478  0.00  0.00    +0.137 C 
ATOM      2  C   UNL     1       1.442  -3.417   2.725  0.00  0.00    -0.016 A 
ATOM      3  C   UNL     1       2.526  -2.566   2.568  0.00  0.00    +0.051 A 
ATOM      4  C   UNL     1       3.815  -3.022   2.791  0.00  0.00    +0.122 A 
ATOM      5  C   UNL     1       4.019  -4.339   3.176  0.00  0.00    +0.046 A 
ATOM      6  C   UNL     1       2.940  -5.183   3.327  0.00  0.00    +0.007 A 
ATOM      7  C   UNL     1       1.646  -4.727   3.098  0.00  0.00    -0.040 A 
ATOM      8  C   UNL     1       0.521  -5.716   3.257  0.00  0.00    +0.054 C 
ATOM      9  C   UNL     1      -0.812  -4.996   3.450  0.00  0.00    +0.113 C 
ATOM     10  N   UNL     1      -0.912  -3.946   2.422  0.00  0.00    -0.290 N 
ATOM     11  C   UNL     1      -1.864  -3.988   1.469  0.00  0.00    +0.219 C 
ATOM     12  O   UNL     1      -1.879  -3.152   0.590  0.00  0.00    -0.275 OA
ENDROOT
BRANCH   1  18
ATOM     13  C   UNL     1      -0.818   1.333  -0.117  0.00  0.00    +0.044 C 
ATOM     14  C   UNL     1      -0.366  -0.104  -0.073  0.00  0.00    -0.050 A 
ATOM     15  C   UNL     1       0.041  -0.737  -1.233  0.00  0.00    +0.003 A 
ATOM     16  C   UNL     1       0.456  -2.055  -1.192  0.00  0.00    +0.001 A 
ATOM     17  C   UNL     1       0.463  -2.740   0.009  0.00  0.00    +0.006 A 
ATOM     18  C   UNL     1       0.057  -2.107   1.169  0.00  0.00    -0.022 A 
ATOM     19  C   UNL     1      -0.353  -0.787   1.128  0.00  0.00    +0.009 A 
ENDBRANCH   1  18
BRANCH  11  20
ATOM     20  C   UNL     1      -2.910  -5.072   1.494  0.00  0.00    +0.075 C 
ATOM     21  C   UNL     1      -2.861  -6.127   0.387  0.00  0.00    +0.013 C 
ATOM     22  C   UNL     1      -3.963  -5.065   0.385  0.00  0.00    +0.013 C 
ENDBRANCH  11  20
BRANCH   4  23
ATOM     23  O   UNL     1       4.873  -2.184   2.634  0.00  0.00    -0.483 OA
BRANCH  23  24
ATOM     24  C   UNL     1       6.172  -2.725   2.882  0.00  0.00    +0.324 C 
BRANCH  24  25
ATOM     25  C   UNL     1       7.212  -1.658   2.659  0.00  0.00    +0.234 A 
ATOM     26  N   UNL     1       7.660  -0.843   3.567  0.00  0.00    -0.206 NA
ATOM     27  C   UNL     1       8.586  -0.027   2.994  0.00  0.00    +0.164 A 
ATOM     28  C   UNL     1       8.682  -0.387   1.685  0.00  0.00    +0.230 A 
ATOM     29  O   UNL     1       7.826  -1.404   1.495  0.00  0.00    -0.444 OA
BRANCH  27  30
ATOM     30  C   UNL     1       9.343   1.046   3.665  0.00  0.00    +0.266 C 
ATOM     31  O   UNL     1      10.147   1.708   3.036  0.00  0.00    -0.268 OA
ATOM     32  N   UNL     1       9.145   1.292   4.975  0.00  0.00    -0.306 N 
ATOM     33  H   UNL     1       8.504   0.764   5.476  0.00  0.00    +0.149 HD
BRANCH  32  34
ATOM     34  C   UNL     1       9.897   2.358   5.641  0.00  0.00    +0.140 C 
BRANCH  34  35
ATOM     35  C   UNL     1       9.492   2.427   7.091  0.00  0.00    -0.030 A 
ATOM     36  C   UNL     1       8.441   3.237   7.478  0.00  0.00    +0.005 A 
ATOM     37  C   UNL     1       8.070   3.300   8.808  0.00  0.00    +0.000 A 
ATOM     38  C   UNL     1       8.750   2.553   9.752  0.00  0.00    +0.000 A 
ATOM     39  C   UNL     1       9.800   1.743   9.365  0.00  0.00    +0.000 A 
ATOM     40  C   UNL     1      10.169   1.676   8.034  0.00  0.00    +0.005 A 
ENDBRANCH  34  35
ENDBRANCH  32  34
ENDBRANCH  27  30
ENDBRANCH  24  25
ENDBRANCH  23  24
ENDBRANCH   4  23
TORSDOF 8
