REMARK  Name = ZINC02236325
REMARK  9 active torsions:
REMARK  status: ('A' for Active; 'I' for Inactive)
REMARK    1  A    between atoms: C_1  and  N_2
REMARK    2  A    between atoms: N_2  and  C_3
REMARK    3  A    between atoms: N_2  and  C_4
REMARK    4  A    between atoms: C_7  and  C_10
REMARK    5  A    between atoms: N_11  and  N_12
REMARK    6  A    between atoms: C_13  and  C_15
REMARK    7  A    between atoms: C_15  and  S_16
REMARK    8  A    between atoms: S_16  and  C_17
REMARK    9  A    between atoms: N_27  and  C_28
REMARK                            x       y       z     vdW  Elec       q    Type
REMARK                         _______ _______ _______ _____ _____    ______ ____
ROOT
ATOM      1  C   UNL     1      -3.721  -4.782   0.323  0.00  0.00    +0.177 A 
ATOM      2  N   UNL     1      -4.617  -3.826   0.309  0.00  0.00    -0.223 NA
ATOM      3  C   UNL     1      -5.938  -4.097   0.293  0.00  0.00    +0.079 A 
ATOM      4  C   UNL     1      -6.894  -3.077   0.273  0.00  0.00    +0.028 A 
ATOM      5  C   UNL     1      -8.223  -3.397   0.263  0.00  0.00    +0.002 A 
ATOM      6  C   UNL     1      -8.640  -4.721   0.272  0.00  0.00    +0.001 A 
ATOM      7  C   UNL     1      -7.729  -5.741   0.291  0.00  0.00    +0.015 A 
ATOM      8  C   UNL     1      -6.367  -5.444   0.302  0.00  0.00    +0.065 A 
ATOM      9  C   UNL     1      -5.343  -6.498   0.324  0.00  0.00    +0.267 A 
ATOM     10  O   UNL     1      -5.650  -7.676   0.332  0.00  0.00    -0.267 OA
ATOM     11  N   UNL     1      -4.047  -6.110   0.334  0.00  0.00    -0.255 N 
ENDROOT
BRANCH  11  12
ATOM     12  C   UNL     1      -3.031  -7.075   0.354  0.00  0.00    +0.052 A 
ATOM     13  C   UNL     1      -2.184  -7.217  -0.737  0.00  0.00    +0.028 A 
ATOM     14  C   UNL     1      -1.181  -8.166  -0.712  0.00  0.00    +0.022 A 
ATOM     15  C   UNL     1      -1.027  -8.983   0.394  0.00  0.00    +0.041 A 
ATOM     16  C   UNL     1      -1.874  -8.848   1.480  0.00  0.00    +0.022 A 
ATOM     17  C   UNL     1      -2.875  -7.896   1.463  0.00  0.00    +0.028 A 
ATOM     18 CL   UNL     1       0.231 -10.179   0.420  0.00  0.00    -0.084 Cl
ENDBRANCH  11  12
BRANCH   1  19
ATOM     19  S   UNL     1      -2.017  -4.334   0.337  0.00  0.00    -0.078 S 
BRANCH  19  20
ATOM     20  C   UNL     1      -2.165  -2.530   0.316  0.00  0.00    +0.174 C 
BRANCH  20  22
ATOM     21  N   UNL     1      -0.653  -0.573   0.311  0.00  0.00    -0.206 N 
ATOM     22  C   UNL     1      -0.790  -1.913   0.324  0.00  0.00    +0.242 C 
ATOM     23  O   UNL     1       0.193  -2.623   0.342  0.00  0.00    -0.273 OA
ATOM     24  H   UNL     1      -1.440  -0.005   0.293  0.00  0.00    +0.177 HD
BRANCH  21  26
ATOM     25  C   UNL     1       0.756   1.292   0.307  0.00  0.00    +0.138 C 
ATOM     26  N   UNL     1       0.625   0.001   0.319  0.00  0.00    -0.188 NA
BRANCH  25  30
ATOM     27  C   UNL     1       4.630   3.031   0.330  0.00  0.00    +0.029 A 
ATOM     28  C   UNL     1       3.503   3.847   0.309  0.00  0.00    +0.024 A 
ATOM     29  C   UNL     1       2.245   3.286   0.302  0.00  0.00    +0.011 A 
ATOM     30  C   UNL     1       2.101   1.896   0.315  0.00  0.00    -0.005 A 
ATOM     31  C   UNL     1       3.235   1.080   0.342  0.00  0.00    +0.011 A 
ATOM     32  C   UNL     1       4.490   1.647   0.344  0.00  0.00    +0.024 A 
BRANCH  27  34
ATOM     33  C   UNL     1       6.052   5.056   0.449  0.00  0.00    +0.129 C 
ATOM     34  N   UNL     1       5.902   3.603   0.338  0.00  0.00    -0.336 N 
ATOM     35  C   UNL     1       7.088   2.749   0.235  0.00  0.00    +0.129 C 
ENDBRANCH  27  34
ENDBRANCH  25  30
ENDBRANCH  21  26
ENDBRANCH  20  22
ENDBRANCH  19  20
ENDBRANCH   1  19
TORSDOF 7
