REMARK  Name = ZINC20883002
REMARK  8 active torsions:
REMARK  status: ('A' for Active; 'I' for Inactive)
REMARK    1  A    between atoms: C_1  and  C_2
REMARK    2  A    between atoms: C_2  and  C_3
REMARK    3  A    between atoms: C_3  and  O_4
REMARK    4  A    between atoms: O_4  and  C_5
REMARK    5  A    between atoms: C_8  and  C_11
REMARK    6  A    between atoms: C_16  and  C_26
REMARK    7  A    between atoms: C_29  and  O_32
REMARK    8  A    between atoms: O_32  and  C_33
REMARK                            x       y       z     vdW  Elec       q    Type
REMARK                         _______ _______ _______ _____ _____    ______ ____
ROOT
ATOM      1  C   UNL     1       2.673   0.551  -0.531  0.00  0.00    +0.032 C 
ATOM      2  C   UNL     1       1.685  -0.395   0.148  0.00  0.00    +0.059 C 
ATOM      3  C   UNL     1       0.280   0.179   0.071  0.00  0.00    +0.017 C 
ATOM      4  C   UNL     1       0.085   1.508   0.086  0.00  0.00    +0.036 C 
ATOM      5  C   UNL     1      -1.251   2.209   0.015  0.00  0.00    +0.136 C 
ATOM      6  N   UNL     1      -2.395   1.340   0.189  0.00  0.00    -0.331 N 
ATOM      7  C   UNL     1      -2.684   0.338  -0.737  0.00  0.00    +0.049 A 
ATOM      8  C   UNL     1      -3.809   0.402  -1.544  0.00  0.00    +0.025 A 
ATOM      9  C   UNL     1      -3.997  -0.555  -2.525  0.00  0.00    +0.002 A 
ATOM     10  C   UNL     1      -3.072  -1.569  -2.701  0.00  0.00    +0.002 A 
ATOM     11  C   UNL     1      -1.959  -1.648  -1.882  0.00  0.00    +0.025 A 
ATOM     12  C   UNL     1      -1.779  -0.701  -0.888  0.00  0.00    +0.052 A 
ATOM     13  N   UNL     1      -0.710  -0.747  -0.001  0.00  0.00    -0.316 N 
ATOM     14  C   UNL     1       1.190   2.389   0.164  0.00  0.00    +0.163 C 
ATOM     15  O   UNL     1       0.983   3.586   0.204  0.00  0.00    -0.292 OA
ATOM     16  C   UNL     1       2.606   1.898   0.199  0.00  0.00    +0.088 C 
ATOM     17  H   UNL     1      -3.053   1.464   1.062  0.00  0.00    +0.147 HD
ATOM     18  H   UNL     1      -0.702  -1.615   0.675  0.00  0.00    +0.152 HD
ENDROOT
BRANCH   1  22
ATOM     19  C   UNL     1       6.626  -1.049  -0.267  0.00  0.00    +0.121 A 
ATOM     20  C   UNL     1       6.054  -0.812  -1.508  0.00  0.00    +0.046 A 
ATOM     21  C   UNL     1       4.776  -0.295  -1.591  0.00  0.00    +0.007 A 
ATOM     22  C   UNL     1       4.067  -0.013  -0.438  0.00  0.00    -0.043 A 
ATOM     23  C   UNL     1       4.637  -0.244   0.800  0.00  0.00    +0.007 A 
ATOM     24  C   UNL     1       5.913  -0.766   0.889  0.00  0.00    +0.046 A 
BRANCH  19  25
ATOM     25  O   UNL     1       7.883  -1.559  -0.183  0.00  0.00    -0.492 OA
BRANCH  25  26
ATOM     26  C   UNL     1       8.409  -1.777   1.128  0.00  0.00    +0.229 C 
BRANCH  26  28
ATOM     27  C   UNL     1      10.386  -2.584   2.426  0.00  0.00    +0.007 C 
ATOM     28  C   UNL     1       9.823  -2.350   1.022  0.00  0.00    +0.038 C 
ENDBRANCH  26  28
ENDBRANCH  25  26
ENDBRANCH  19  25
ENDBRANCH   1  22
BRANCH   5  29
ATOM     29  C   UNL     1      -1.365   2.885  -1.327  0.00  0.00    -0.023 A 
ATOM     30  C   UNL     1      -1.367   2.127  -2.484  0.00  0.00    +0.009 A 
ATOM     31  C   UNL     1      -1.477   2.744  -3.715  0.00  0.00    +0.046 A 
ATOM     32  C   UNL     1      -1.573   4.126  -3.791  0.00  0.00    +0.120 A 
ATOM     33  C   UNL     1      -1.564   4.885  -2.629  0.00  0.00    +0.046 A 
ATOM     34  C   UNL     1      -1.460   4.263  -1.400  0.00  0.00    +0.009 A 
BRANCH  32  35
ATOM     35  O   UNL     1      -1.676   4.736  -5.001  0.00  0.00    -0.495 OA
ATOM     36  C   UNL     1      -1.679   3.893  -6.154  0.00  0.00    +0.277 C 
ENDBRANCH  32  35
ENDBRANCH   5  29
TORSDOF 6
