REMARK  Name = ZINC20764208
REMARK  7 active torsions:
REMARK  status: ('A' for Active; 'I' for Inactive)
REMARK    1  A    between atoms: C_1  and  C_2
REMARK    2  A    between atoms: C_2  and  O_3
REMARK    3  A    between atoms: O_3  and  C_4
REMARK    4  A    between atoms: C_8  and  C_11
REMARK    5  A    between atoms: C_9  and  O_10
REMARK    6  A    between atoms: C_14  and  C_27
REMARK    7  A    between atoms: C_16  and  C_19
REMARK                            x       y       z     vdW  Elec       q    Type
REMARK                         _______ _______ _______ _____ _____    ______ ____
ROOT
ATOM      1  C   UNL     1      -2.396  -2.729  -0.875  0.00  0.00    -0.028 C 
ATOM      2  C   UNL     1      -3.234  -1.904  -1.855  0.00  0.00    +0.044 C 
ATOM      3  C   UNL     1      -3.192  -0.455  -1.456  0.00  0.00    +0.040 C 
ATOM      4  N   UNL     1      -2.328   0.020  -0.639  0.00  0.00    -0.299 NA
ATOM      5  C   UNL     1      -1.293  -0.775   0.010  0.00  0.00    +0.081 C 
ATOM      6  N   UNL     1      -1.101  -2.050  -0.692  0.00  0.00    +0.401 N 
ATOM      7  H   UNL     1      -0.432  -2.690  -0.099  0.00  0.00    -0.081 HD
ATOM      8  H   UNL     1      -0.647  -1.855  -1.675  0.00  0.00    -0.081 HD
ENDROOT
BRANCH   5   9
ATOM      9  C   UNL     1       0.002  -0.004   0.002  0.00  0.00    -0.039 A 
ATOM     10  C   UNL     1      -0.017   1.378   0.010  0.00  0.00    +0.006 A 
ATOM     11  C   UNL     1       1.170   2.087   0.002  0.00  0.00    +0.040 A 
ATOM     12  C   UNL     1       2.379   1.411  -0.013  0.00  0.00    +0.137 A 
ATOM     13  C   UNL     1       2.397   0.026  -0.021  0.00  0.00    +0.053 A 
ATOM     14  C   UNL     1       1.208  -0.680  -0.013  0.00  0.00    +0.022 A 
ATOM     15 BR   UNL     1       4.046  -0.898  -0.041  0.00  0.00    -0.047 Br
ATOM     16  F   UNL     1       3.539   2.103  -0.021  0.00  0.00    -0.204 F 
ENDBRANCH   5   9
BRANCH   3  17
ATOM     17  C   UNL     1      -4.192   0.463  -2.034  0.00  0.00    -0.004 A 
ATOM     18  C   UNL     1      -5.147  -0.016  -2.933  0.00  0.00    +0.011 A 
ATOM     19  C   UNL     1      -6.082   0.846  -3.466  0.00  0.00    +0.020 A 
ATOM     20  C   UNL     1      -6.070   2.186  -3.118  0.00  0.00    +0.041 A 
ATOM     21  C   UNL     1      -5.123   2.669  -2.231  0.00  0.00    +0.020 A 
ATOM     22  C   UNL     1      -4.185   1.816  -1.687  0.00  0.00    +0.011 A 
ATOM     23 CL   UNL     1      -7.247   3.267  -3.798  0.00  0.00    -0.084 Cl
ENDBRANCH   3  17
BRANCH   1  28
ATOM     24  C   UNL     1      -2.943  -6.351  -1.829  0.00  0.00    +0.162 A 
ATOM     25  C   UNL     1      -1.750  -6.646  -2.468  0.00  0.00    +0.049 A 
ATOM     26  C   UNL     1      -0.772  -5.677  -2.589  0.00  0.00    +0.004 A 
ATOM     27  C   UNL     1      -0.984  -4.410  -2.079  0.00  0.00    +0.006 A 
ATOM     28  C   UNL     1      -2.170  -4.110  -1.435  0.00  0.00    -0.016 A 
ATOM     29  C   UNL     1      -3.154  -5.077  -1.310  0.00  0.00    +0.160 A 
BRANCH  29  30
ATOM     30  O   UNL     1      -4.324  -4.782  -0.681  0.00  0.00    -0.503 OA
ATOM     31  H   UNL     1      -4.489  -3.775  -0.272  0.00  0.00    +0.292 HD
ENDBRANCH  29  30
BRANCH  24  32
ATOM     32  O   UNL     1      -3.906  -7.304  -1.709  0.00  0.00    -0.489 OA
BRANCH  32  34
ATOM     33  C   UNL     1      -4.812  -9.521  -2.035  0.00  0.00    +0.048 C 
ATOM     34  C   UNL     1      -3.620  -8.589  -2.265  0.00  0.00    +0.226 C 
ENDBRANCH  32  34
ENDBRANCH  24  32
ENDBRANCH   1  28
TORSDOF 6
