REMARK  Name = ZINC40377212
REMARK  6 active torsions:
REMARK  status: ('A' for Active; 'I' for Inactive)
REMARK    1  A    between atoms: C_1  and  C_2
REMARK    2  A    between atoms: C_6  and  S_8
REMARK    3  A    between atoms: S_8  and  N_11
REMARK    4  A    between atoms: N_11  and  C_12
REMARK    5  A    between atoms: C_12  and  C_18
REMARK    6  A    between atoms: N_19  and  O_20
REMARK                            x       y       z     vdW  Elec       q    Type
REMARK                         _______ _______ _______ _____ _____    ______ ____
ROOT
ATOM      1  C   UNL     1       2.405  -2.028   3.244  0.00  0.00    +0.098 C 
ATOM      2  C   UNL     1       2.418  -0.990   2.120  0.00  0.00    +0.031 C 
ATOM      3  C   UNL     1       2.832  -1.663   0.810  0.00  0.00    +0.002 C 
ATOM      4  C   UNL     1       4.230  -2.265   0.965  0.00  0.00    +0.000 C 
ATOM      5  C   UNL     1       4.216  -3.303   2.089  0.00  0.00    +0.002 C 
ATOM      6  C   UNL     1       3.803  -2.631   3.399  0.00  0.00    +0.031 C 
ENDROOT
BRANCH   1   7
ATOM      7  C   UNL     1       1.997  -1.366   4.535  0.00  0.00    +0.153 C 
ATOM      8  N   UNL     1       2.843  -1.270   5.506  0.00  0.00    -0.075 NA
ATOM      9  N   UNL     1       0.723  -0.863   4.679  0.00  0.00    -0.342 N 
ATOM     10  H   UNL     1       0.057  -1.027   3.993  0.00  0.00    +0.144 HD
ATOM     11  H   UNL     1       0.491  -0.346   5.466  0.00  0.00    +0.144 HD
BRANCH   8  12
ATOM     12  O   UNL     1       2.460  -0.647   6.719  0.00  0.00    -0.408 OA
ATOM     13  H   UNL     1       3.159  -0.622   7.387  0.00  0.00    +0.328 HD
ENDBRANCH   8  12
ENDBRANCH   1   7
BRANCH   1  14
ATOM     14  N   UNL     1       1.449  -3.090   2.917  0.00  0.00    -0.177 NA
ATOM     15  H   UNL     1       0.879  -3.005   2.137  0.00  0.00    +0.149 HD
BRANCH  14  16
ATOM     16  S   UNL     1       1.343  -4.434   3.879  0.00  0.00    +0.059 S 
ATOM     17  O   UNL     1       2.670  -4.911   4.058  0.00  0.00    -0.153 OA
ATOM     18  O   UNL     1       0.310  -5.243   3.333  0.00  0.00    -0.153 OA
BRANCH  16  24
ATOM     19  C   UNL     1       2.241  -3.044   8.837  0.00  0.00    +0.044 C 
ATOM     20  C   UNL     1       1.251  -3.272   7.724  0.00  0.00    -0.049 A 
ATOM     21  C   UNL     1      -0.098  -3.062   7.945  0.00  0.00    +0.003 A 
ATOM     22  C   UNL     1      -1.006  -3.271   6.924  0.00  0.00    +0.002 A 
ATOM     23  C   UNL     1      -0.566  -3.690   5.682  0.00  0.00    +0.028 A 
ATOM     24  C   UNL     1       0.783  -3.899   5.461  0.00  0.00    +0.106 A 
ATOM     25  C   UNL     1       1.692  -3.686   6.481  0.00  0.00    +0.032 A 
ENDBRANCH  16  24
ENDBRANCH  14  16
ENDBRANCH   1  14
TORSDOF 5
