REMARK  Name = ZINC20232748
REMARK  11 active torsions:
REMARK  status: ('A' for Active; 'I' for Inactive)
REMARK    1  A    between atoms: C_1  and  C_2
REMARK    2  A    between atoms: C_5  and  N_9
REMARK    3  A    between atoms: C_10  and  C_12
REMARK    4  A    between atoms: C_12  and  C_14
REMARK    5  A    between atoms: C_12  and  N_18
REMARK    6  A    between atoms: C_14  and  C_15
REMARK    7  A    between atoms: C_15  and  C_16
REMARK    8  A    between atoms: C_15  and  C_17
REMARK    9  A    between atoms: N_18  and  S_19
REMARK   10  A    between atoms: S_19  and  C_22
REMARK   11  A    between atoms: C_31  and  C_33
REMARK                            x       y       z     vdW  Elec       q    Type
REMARK                         _______ _______ _______ _____ _____    ______ ____
ROOT
ATOM      1  C   UNL     1       0.724  -0.744   1.222  0.00  0.00    +0.163 C 
ENDROOT
BRANCH   1   3
ATOM      2  N   UNL     1       0.773  -2.810   2.581  0.00  0.00    -0.283 N 
ATOM      3  C   UNL     1       0.203  -2.111   1.580  0.00  0.00    +0.236 C 
ATOM      4  O   UNL     1      -0.731  -2.584   0.966  0.00  0.00    -0.274 OA
ATOM      5  H   UNL     1       1.570  -2.352   3.186  0.00  0.00    +0.155 HD
BRANCH   2  10
ATOM      6  C   UNL     1      -0.931  -8.110   3.675  0.00  0.00    +0.044 C 
ATOM      7  C   UNL     1      -0.478  -6.702   3.385  0.00  0.00    -0.049 A 
ATOM      8  C   UNL     1      -0.482  -6.230   2.085  0.00  0.00    +0.005 A 
ATOM      9  C   UNL     1      -0.068  -4.941   1.815  0.00  0.00    +0.024 A 
ATOM     10  C   UNL     1       0.353  -4.117   2.851  0.00  0.00    +0.048 A 
ATOM     11  C   UNL     1       0.361  -4.596   4.155  0.00  0.00    +0.039 A 
ATOM     12  C   UNL     1      -0.059  -5.885   4.419  0.00  0.00    +0.020 A 
ATOM     13 BR   UNL     1       0.942  -3.482   5.569  0.00  0.00    -0.048 Br
ENDBRANCH   2  10
ENDBRANCH   1   3
BRANCH   1  14
ATOM     14  N   UNL     1      -0.058  -0.198   0.110  0.00  0.00    -0.178 NA
ATOM     15  H   UNL     1       0.288  -0.334  -0.925  0.00  0.00    +0.149 HD
BRANCH  14  16
ATOM     16  S   UNL     1      -1.322   0.828   0.412  0.00  0.00    +0.059 S 
ATOM     17  O   UNL     1      -1.807   1.259  -0.853  0.00  0.00    -0.153 OA
ATOM     18  O   UNL     1      -2.152   0.180   1.366  0.00  0.00    -0.153 OA
BRANCH  16  19
ATOM     19  C   UNL     1      -0.657   2.253   1.208  0.00  0.00    +0.106 A 
ATOM     20  C   UNL     1      -0.467   2.256   2.578  0.00  0.00    +0.030 A 
ATOM     21  C   UNL     1       0.058   3.367   3.203  0.00  0.00    +0.026 A 
ATOM     22  C   UNL     1       0.391   4.501   2.460  0.00  0.00    +0.040 A 
ATOM     23  C   UNL     1       0.191   4.490   1.089  0.00  0.00    -0.023 A 
ATOM     24  C   UNL     1      -0.330   3.372   0.466  0.00  0.00    +0.034 A 
ATOM     25  C   UNL     1       0.627   5.825   0.528  0.00  0.00    +0.056 C 
ATOM     26  C   UNL     1       1.109   6.620   1.752  0.00  0.00    +0.118 C 
ATOM     27  N   UNL     1       0.923   5.720   2.893  0.00  0.00    -0.271 N 
ATOM     28  C   UNL     1       1.222   6.021   4.172  0.00  0.00    +0.217 C 
ATOM     29  O   UNL     1       1.032   5.204   5.048  0.00  0.00    -0.276 OA
ATOM     30  C   UNL     1       1.794   7.373   4.513  0.00  0.00    +0.109 C 
ENDBRANCH  16  19
ENDBRANCH  14  16
ENDBRANCH   1  14
BRANCH   1  31
ATOM     31  C   UNL     1       2.193  -0.851   0.807  0.00  0.00    +0.032 C 
BRANCH  31  32
ATOM     32  C   UNL     1       2.769   0.552   0.603  0.00  0.00    -0.015 C 
ATOM     33  C   UNL     1       4.278   0.456   0.372  0.00  0.00    +0.007 C 
ATOM     34  C   UNL     1       2.107   1.203  -0.613  0.00  0.00    +0.007 C 
ENDBRANCH  31  32
ENDBRANCH   1  31
TORSDOF 7
