REMARK  Name = ZINC13302893
REMARK  7 active torsions:
REMARK  status: ('A' for Active; 'I' for Inactive)
REMARK    1  A    between atoms: C_1  and  C_2
REMARK    2  A    between atoms: C_2  and  C_34
REMARK    3  A    between atoms: C_4  and  N_28
REMARK    4  A    between atoms: N_8  and  C_21
REMARK    5  A    between atoms: P_9  and  N_11
REMARK    6  A    between atoms: N_11  and  C_12
REMARK    7  A    between atoms: C_17  and  N_18
REMARK                            x       y       z     vdW  Elec       q    Type
REMARK                         _______ _______ _______ _____ _____    ______ ____
ROOT
ATOM      1  C   UNL     1       0.667   1.826   0.511  0.00  0.00    +0.011 C 
ATOM      2  C   UNL     1       0.441   0.317   0.394  0.00  0.00    -0.024 C 
ATOM      3  C   UNL     1      -1.050   0.047   0.211  0.00  0.00    +0.058 C 
ATOM      4  C   UNL     1      -1.303  -1.440   0.057  0.00  0.00    +0.022 C 
ATOM      5  C   UNL     1      -0.492  -2.267   0.691  0.00  0.00    +0.088 C 
ATOM      6  C   UNL     1       0.663  -1.854   1.526  0.00  0.00    +0.075 C 
ATOM      7  N   UNL     1       1.290  -2.839   2.045  0.00  0.00    -0.176 NA
ATOM      8  N   UNL     1       0.917  -4.170   1.826  0.00  0.00    -0.152 N 
ATOM      9  P   UNL     1      -0.411  -4.079   0.822  0.00  0.00    +0.299 P 
ATOM     10  O   UNL     1      -1.623  -4.637   1.462  0.00  0.00    -0.272 OA
ATOM     11  C   UNL     1       0.978  -0.371   1.656  0.00  0.00    +0.064 C 
ATOM     12  C   UNL     1       1.199  -0.210  -0.826  0.00  0.00    +0.011 C 
ENDROOT
BRANCH   8  13
ATOM     13  C   UNL     1       1.521  -5.319   2.335  0.00  0.00    +0.060 A 
ATOM     14  C   UNL     1       1.087  -6.575   1.927  0.00  0.00    +0.025 A 
ATOM     15  C   UNL     1       1.688  -7.710   2.433  0.00  0.00    +0.002 A 
ATOM     16  C   UNL     1       2.722  -7.598   3.346  0.00  0.00    +0.000 A 
ATOM     17  C   UNL     1       3.157  -6.351   3.754  0.00  0.00    +0.002 A 
ATOM     18  C   UNL     1       2.565  -5.211   3.248  0.00  0.00    +0.025 A 
ENDBRANCH   8  13
BRANCH   4  19
ATOM     19  N   UNL     1      -2.345  -1.913  -0.718  0.00  0.00    -0.332 N 
ATOM     20  C   UNL     1      -3.383  -2.773  -0.133  0.00  0.00    +0.105 C 
ATOM     21  C   UNL     1      -4.755  -2.161  -0.431  0.00  0.00    +0.019 C 
ATOM     22  C   UNL     1      -4.896  -1.943  -1.939  0.00  0.00    +0.003 C 
ATOM     23  C   UNL     1      -3.818  -0.968  -2.418  0.00  0.00    +0.019 C 
ATOM     24  C   UNL     1      -2.439  -1.562  -2.142  0.00  0.00    +0.105 C 
ENDBRANCH   4  19
BRANCH   9  25
ATOM     25  N   UNL     1      -0.122  -4.780  -0.632  0.00  0.00    -0.274 N 
ATOM     26  H   UNL     1      -0.699  -5.491  -0.952  0.00  0.00    +0.155 HD
BRANCH  25  27
ATOM     27  C   UNL     1       0.956  -4.353  -1.412  0.00  0.00    +0.064 A 
ATOM     28  C   UNL     1       2.080  -3.806  -0.805  0.00  0.00    +0.025 A 
ATOM     29  C   UNL     1       3.143  -3.385  -1.578  0.00  0.00    +0.002 A 
ATOM     30  C   UNL     1       3.091  -3.507  -2.955  0.00  0.00    +0.002 A 
ATOM     31  C   UNL     1       1.974  -4.051  -3.562  0.00  0.00    +0.034 A 
ATOM     32  C   UNL     1       0.909  -4.479  -2.794  0.00  0.00    +0.147 A 
BRANCH  32  33
ATOM     33  N   UNL     1      -0.284  -5.066  -3.444  0.00  0.00    +0.058 N 
ATOM     34  O   UNL     1      -0.286  -5.268  -4.636  0.00  0.00    -0.126 OA
ATOM     35  O   UNL     1      -1.257  -5.345  -2.783  0.00  0.00    -0.126 OA
ENDBRANCH  32  33
ENDBRANCH  25  27
ENDBRANCH   9  25
TORSDOF 5
