REMARK  Name = ZINC39363079
REMARK  11 active torsions:
REMARK  status: ('A' for Active; 'I' for Inactive)
REMARK    1  A    between atoms: C_1  and  C_2
REMARK    2  A    between atoms: C_2  and  C_3
REMARK    3  A    between atoms: C_2  and  C_4
REMARK    4  A    between atoms: C_4  and  C_5
REMARK    5  A    between atoms: C_7  and  C_11
REMARK    6  A    between atoms: C_11  and  N_12
REMARK    7  A    between atoms: C_24  and  N_29
REMARK    8  A    between atoms: C_26  and  O_28
REMARK    9  A    between atoms: C_30  and  C_32
REMARK   10  A    between atoms: C_37  and  O_38
REMARK   11  A    between atoms: O_38  and  C_39
REMARK                            x       y       z     vdW  Elec       q    Type
REMARK                         _______ _______ _______ _____ _____    ______ ____
ROOT
ATOM      1  N   UNL     1      -2.674  -6.314  -0.180  0.00  0.00    +0.381 N 
ATOM      2  C   UNL     1      -1.559  -7.143   0.294  0.00  0.00    -0.078 C 
ATOM      3  C   UNL     1      -1.482  -8.425  -0.540  0.00  0.00    -0.005 C 
ATOM      4  C   UNL     1      -2.798  -9.188  -0.415  0.00  0.00    +0.021 C 
ATOM      5  C   UNL     1      -3.968  -8.294  -0.818  0.00  0.00    -0.005 C 
ATOM      6  C   UNL     1      -3.944  -7.019   0.028  0.00  0.00    -0.078 C 
ATOM      7  C   UNL     1      -2.766 -10.433  -1.269  0.00  0.00    -0.034 A 
ATOM      8  C   UNL     1      -2.320 -10.626  -2.566  0.00  0.00    +0.004 A 
ATOM      9  C   UNL     1      -2.390 -11.876  -3.147  0.00  0.00    +0.000 A 
ATOM     10  C   UNL     1      -2.907 -12.941  -2.433  0.00  0.00    +0.000 A 
ATOM     11  C   UNL     1      -3.353 -12.751  -1.140  0.00  0.00    +0.006 A 
ATOM     12  C   UNL     1      -3.284 -11.498  -0.555  0.00  0.00    -0.021 A 
ATOM     13  C   UNL     1      -3.700 -11.036   0.825  0.00  0.00    +0.133 C 
ATOM     14  C   UNL     1      -2.986  -9.682   1.031  0.00  0.00    +0.149 C 
ATOM     15  H   UNL     1      -2.553  -6.123  -1.163  0.00  0.00    -0.082 HD
ENDROOT
BRANCH  13  16
ATOM     16  N   UNL     1      -3.265 -12.001   1.838  0.00  0.00    -0.302 N 
ATOM     17  C   UNL     1      -4.044 -13.059   2.139  0.00  0.00    +0.248 C 
ATOM     18  O   UNL     1      -5.108 -13.212   1.571  0.00  0.00    -0.270 OA
ATOM     19  H   UNL     1      -2.416 -11.879   2.291  0.00  0.00    +0.150 HD
BRANCH  17  20
ATOM     20  C   UNL     1      -3.606 -14.031   3.159  0.00  0.00    +0.078 A 
ATOM     21  C   UNL     1      -2.387 -13.856   3.818  0.00  0.00    +0.017 A 
ATOM     22  C   UNL     1      -1.983 -14.767   4.770  0.00  0.00    +0.001 A 
ATOM     23  C   UNL     1      -2.781 -15.857   5.076  0.00  0.00    +0.004 A 
ATOM     24  C   UNL     1      -3.989 -16.042   4.432  0.00  0.00    +0.046 A 
ATOM     25  C   UNL     1      -4.413 -15.132   3.476  0.00  0.00    +0.132 A 
BRANCH  25  26
ATOM     26  O   UNL     1      -5.601 -15.309   2.846  0.00  0.00    -0.494 OA
ATOM     27  C   UNL     1      -6.369 -16.454   3.221  0.00  0.00    +0.277 C 
ENDBRANCH  25  26
ENDBRANCH  17  20
ENDBRANCH  13  16
BRANCH  14  28
ATOM     28  O   UNL     1      -3.809  -8.780   1.773  0.00  0.00    -0.389 OA
ATOM     29  H   UNL     1      -3.958  -9.047   2.690  0.00  0.00    +0.210 HD
ENDBRANCH  14  28
BRANCH   1  30
ATOM     30  C   UNL     1      -2.690  -5.047   0.564  0.00  0.00    -0.046 C 
BRANCH  30  33
ATOM     31  C   UNL     1      -1.416  -2.035  -0.119  0.00  0.00    +0.062 C 
ATOM     32  C   UNL     1      -1.465  -2.886   0.907  0.00  0.00    +0.024 C 
ATOM     33  C   UNL     1      -1.420  -4.254   0.250  0.00  0.00    +0.136 C 
ATOM     34  N   UNL     1      -1.346  -3.930  -1.185  0.00  0.00    -0.182 NA
ATOM     35  N   UNL     1      -1.355  -2.701  -1.293  0.00  0.00    -0.159 NA
BRANCH  31  36
ATOM     36  C   UNL     1      -1.433  -0.534   0.013  0.00  0.00    +0.060 C 
BRANCH  36  38
ATOM     37  C   UNL     1      -0.019   1.526   0.010  0.00  0.00    +0.007 C 
ATOM     38  C   UNL     1       0.002  -0.004   0.002  0.00  0.00    -0.011 C 
ATOM     39  C   UNL     1       0.742  -0.511   1.242  0.00  0.00    +0.007 C 
ENDBRANCH  36  38
ENDBRANCH  31  36
ENDBRANCH  30  33
ENDBRANCH   1  30
TORSDOF 8
