REMARK  Name = ZINC37769939
REMARK  10 active torsions:
REMARK  status: ('A' for Active; 'I' for Inactive)
REMARK    1  A    between atoms: C_1  and  C_2
REMARK    2  A    between atoms: C_2  and  C_3
REMARK    3  A    between atoms: C_3  and  C_4
REMARK    4  A    between atoms: C_4  and  C_5
REMARK    5  A    between atoms: C_4  and  C_6
REMARK    6  A    between atoms: C_4  and  N_21
REMARK    7  A    between atoms: N_8  and  C_9
REMARK    8  A    between atoms: C_10  and  C_17
REMARK    9  A    between atoms: C_17  and  O_19
REMARK   10  A    between atoms: O_19  and  C_20
REMARK                            x       y       z     vdW  Elec       q    Type
REMARK                         _______ _______ _______ _____ _____    ______ ____
ROOT
ATOM      1  C   UNL     1      -2.587  -2.840  -0.534  0.00  0.00    +0.206 C 
ATOM      2  O   UNL     1      -3.376  -2.053  -1.015  0.00  0.00    -0.277 OA
ATOM      3  N   UNL     1      -2.977  -4.100  -0.258  0.00  0.00    -0.285 N 
ATOM      4  H   UNL     1      -2.333  -4.744   0.078  0.00  0.00    +0.155 HD
ENDROOT
BRANCH   3   5
ATOM      5  C   UNL     1      -4.304  -4.478  -0.453  0.00  0.00    +0.062 A 
ATOM      6  C   UNL     1      -4.619  -5.505  -1.356  0.00  0.00    +0.082 A 
ATOM      7  C   UNL     1      -5.953  -5.874  -1.542  0.00  0.00    +0.032 A 
ATOM      8  C   UNL     1      -6.950  -5.230  -0.840  0.00  0.00    +0.020 A 
ATOM      9  C   UNL     1      -6.636  -4.216   0.051  0.00  0.00    +0.032 A 
ATOM     10  C   UNL     1      -5.320  -3.844   0.250  0.00  0.00    +0.041 A 
ATOM     11 BR   UNL     1      -4.904  -2.465   1.476  0.00  0.00    -0.048 Br
ATOM     12 BR   UNL     1      -8.755  -5.732  -1.095  0.00  0.00    -0.050 Br
BRANCH   6  13
ATOM     13  C   UNL     1      -3.549  -6.189  -2.103  0.00  0.00    +0.341 C 
ATOM     14  O   UNL     1      -2.404  -5.790  -2.027  0.00  0.00    -0.245 OA
BRANCH  13  15
ATOM     15  O   UNL     1      -3.840  -7.256  -2.872  0.00  0.00    -0.464 OA
ATOM     16  C   UNL     1      -2.754  -7.870  -3.568  0.00  0.00    +0.280 C 
ENDBRANCH  13  15
ENDBRANCH   6  13
ENDBRANCH   3   5
BRANCH   1  17
ATOM     17  C   UNL     1      -1.173  -2.408  -0.247  0.00  0.00    +0.005 C 
ATOM     18  C   UNL     1      -1.061  -1.966   1.213  0.00  0.00    -0.001 C 
BRANCH  17  19
ATOM     19  N   UNL     1      -0.259  -3.533  -0.489  0.00  0.00    +0.387 N 
ATOM     20  H   UNL     1       0.689  -3.244  -0.297  0.00  0.00    -0.089 HD
ATOM     21  H   UNL     1      -0.505  -4.302   0.115  0.00  0.00    -0.089 HD
ATOM     22  H   UNL     1      -0.333  -3.825  -1.452  0.00  0.00    -0.089 HD
ENDBRANCH  17  19
BRANCH  17  23
ATOM     23  C   UNL     1      -0.799  -1.241  -1.164  0.00  0.00    -0.004 C 
BRANCH  23  25
ATOM     24  C   UNL     1       1.048   0.282  -1.877  0.00  0.00    +0.004 C 
ATOM     25  C   UNL     1       0.675  -0.884  -0.961  0.00  0.00    -0.004 C 
ENDBRANCH  23  25
ENDBRANCH  17  23
ENDBRANCH   1  17
TORSDOF 7
