REMARK  Name = ZINC34974150
REMARK  11 active torsions:
REMARK  status: ('A' for Active; 'I' for Inactive)
REMARK    1  A    between atoms: C_1  and  C_2
REMARK    2  A    between atoms: C_5  and  C_8
REMARK    3  A    between atoms: C_8  and  N_9
REMARK    4  A    between atoms: N_9  and  C_10
REMARK    5  A    between atoms: C_10  and  C_11
REMARK    6  A    between atoms: C_11  and  C_12
REMARK    7  A    between atoms: C_12  and  C_13
REMARK    8  A    between atoms: C_13  and  C_14
REMARK    9  A    between atoms: C_14  and  C_15
REMARK   10  A    between atoms: C_15  and  N_16
REMARK   11  A    between atoms: N_25  and  C_26
REMARK                            x       y       z     vdW  Elec       q    Type
REMARK                         _______ _______ _______ _____ _____    ______ ____
ROOT
ATOM      1  N   UNL     1       1.452  -4.729  -0.032  0.00  0.00    -0.281 N 
ATOM      2  C   UNL     1       2.080  -4.951  -1.203  0.00  0.00    +0.307 C 
ATOM      3  O   UNL     1       3.229  -5.349  -1.212  0.00  0.00    -0.252 OA
ATOM      4  N   UNL     1       1.434  -4.733  -2.366  0.00  0.00    -0.267 N 
ATOM      5  H   UNL     1       0.494  -4.495  -2.361  0.00  0.00    +0.156 HD
ENDROOT
BRANCH   4   6
ATOM      6  C   UNL     1       2.121  -4.850  -3.582  0.00  0.00    +0.070 A 
ATOM      7  C   UNL     1       3.498  -4.677  -3.622  0.00  0.00    +0.029 A 
ATOM      8  C   UNL     1       4.173  -4.793  -4.822  0.00  0.00    +0.040 A 
ATOM      9  C   UNL     1       3.479  -5.082  -5.984  0.00  0.00    +0.126 A 
ATOM     10  C   UNL     1       2.106  -5.254  -5.949  0.00  0.00    +0.078 A 
ATOM     11  C   UNL     1       1.426  -5.145  -4.749  0.00  0.00    +0.147 A 
ATOM     12  F   UNL     1       0.087  -5.320  -4.713  0.00  0.00    -0.203 F 
ATOM     13  F   UNL     1       4.143  -5.194  -7.156  0.00  0.00    -0.205 F 
ENDBRANCH   4   6
BRANCH   1  14
ATOM     14  C   UNL     1       0.068  -4.249  -0.022  0.00  0.00    +0.144 C 
BRANCH  14  19
ATOM     15  C   UNL     1       0.027   1.529  -0.033  0.00  0.00    +0.044 C 
ATOM     16  C   UNL     1       0.038   0.022  -0.030  0.00  0.00    -0.050 A 
ATOM     17  C   UNL     1       0.034  -0.671  -1.226  0.00  0.00    +0.003 A 
ATOM     18  C   UNL     1       0.044  -2.053  -1.223  0.00  0.00    +0.005 A 
ATOM     19  C   UNL     1       0.058  -2.742  -0.025  0.00  0.00    -0.030 A 
ATOM     20  C   UNL     1       0.062  -2.049   1.171  0.00  0.00    +0.005 A 
ATOM     21  C   UNL     1       0.057  -0.666   1.169  0.00  0.00    +0.003 A 
ENDBRANCH  14  19
ENDBRANCH   1  14
BRANCH   1  22
ATOM     22  C   UNL     1       2.154  -4.966   1.232  0.00  0.00    +0.110 C 
BRANCH  22  23
ATOM     23  C   UNL     1       1.926  -6.412   1.678  0.00  0.00    +0.019 C 
BRANCH  23  24
ATOM     24  C   UNL     1       2.659  -6.660   2.998  0.00  0.00    +0.002 C 
BRANCH  24  25
ATOM     25  C   UNL     1       2.432  -8.105   3.444  0.00  0.00    +0.002 C 
BRANCH  25  26
ATOM     26  C   UNL     1       3.165  -8.353   4.764  0.00  0.00    +0.019 C 
BRANCH  26  27
ATOM     27  C   UNL     1       2.937  -9.799   5.210  0.00  0.00    +0.103 C 
BRANCH  27  28
ATOM     28  N   UNL     1       3.639 -10.036   6.474  0.00  0.00    -0.331 N 
ATOM     29  C   UNL     1       3.578 -11.286   7.079  0.00  0.00    +0.096 A 
ATOM     30  C   UNL     1       2.853 -12.309   6.476  0.00  0.00    +0.041 A 
ATOM     31  C   UNL     1       2.801 -13.548   7.088  0.00  0.00    +0.005 A 
ATOM     32  C   UNL     1       3.478 -13.723   8.288  0.00  0.00    +0.018 A 
ATOM     33  C   UNL     1       4.178 -12.664   8.831  0.00  0.00    +0.084 A 
ATOM     34  N   UNL     1       4.215 -11.494   8.221  0.00  0.00    -0.350 N 
ATOM     35  H   UNL     1       4.146  -9.321   6.889  0.00  0.00    +0.147 HD
ATOM     36  H   UNL     1       4.717 -10.768   8.622  0.00  0.00    +0.166 HD
ENDBRANCH  27  28
ENDBRANCH  26  27
ENDBRANCH  25  26
ENDBRANCH  24  25
ENDBRANCH  23  24
ENDBRANCH  22  23
ENDBRANCH   1  22
TORSDOF 10
