REMARK  Name = ZINC39638987
REMARK  6 active torsions:
REMARK  status: ('A' for Active; 'I' for Inactive)
REMARK    1  A    between atoms: C_5  and  C_7
REMARK    2  A    between atoms: C_7  and  C_8
REMARK    3  A    between atoms: C_8  and  N_9
REMARK    4  A    between atoms: C_10  and  C_12
REMARK    5  A    between atoms: C_23  and  C_25
REMARK    6  A    between atoms: C_28  and  C_30
REMARK                            x       y       z     vdW  Elec       q    Type
REMARK                         _______ _______ _______ _____ _____    ______ ____
ROOT
ATOM      1  C   UNL     1       1.536  -6.353   2.551  0.00  0.00    +0.100 C 
ATOM      2  C   UNL     1       0.155  -6.907   2.137  0.00  0.00    +0.121 C 
ATOM      3  N   UNL     1      -0.032  -8.113   2.978  0.00  0.00    -0.294 N 
ATOM      4  C   UNL     1       0.515  -7.729   4.301  0.00  0.00    +0.115 C 
ATOM      5  C   UNL     1       1.769  -6.894   3.972  0.00  0.00    -0.004 C 
ATOM      6  C   UNL     1       1.908  -5.740   4.960  0.00  0.00    -0.010 C 
ATOM      7  C   UNL     1       2.197  -6.301   6.356  0.00  0.00    -0.082 C 
ATOM      8  N   UNL     1       3.432  -7.093   6.321  0.00  0.00    +0.379 N 
ATOM      9  C   UNL     1       3.258  -8.254   5.439  0.00  0.00    -0.082 C 
ATOM     10  C   UNL     1       3.014  -7.775   4.005  0.00  0.00    -0.010 C 
ATOM     11  C   UNL     1      -0.577  -9.293   2.620  0.00  0.00    +0.282 C 
ATOM     12  O   UNL     1      -0.661 -10.196   3.433  0.00  0.00    -0.267 OA
ATOM     13  H   UNL     1       4.188  -6.521   5.975  0.00  0.00    -0.086 HD
ATOM     14  H   UNL     1       3.653  -7.411   7.253  0.00  0.00    -0.086 HD
ENDROOT
BRANCH  11  15
ATOM     15  C   UNL     1      -1.068  -9.489   1.254  0.00  0.00    +0.190 A 
ATOM     16  C   UNL     1      -1.649 -10.637   0.760  0.00  0.00    +0.055 A 
ATOM     17  C   UNL     1      -1.964 -10.386  -0.579  0.00  0.00    +0.051 A 
ATOM     18  C   UNL     1      -1.568  -9.107  -0.852  0.00  0.00    +0.139 A 
ATOM     19  O   UNL     1      -1.035  -8.575   0.261  0.00  0.00    -0.450 OA
BRANCH  18  20
ATOM     20  C   UNL     1      -1.708  -8.421  -2.151  0.00  0.00    +0.052 A 
ATOM     21  C   UNL     1      -1.277  -9.045  -3.324  0.00  0.00    +0.014 A 
ATOM     22  C   UNL     1      -1.411  -8.399  -4.535  0.00  0.00    +0.001 A 
ATOM     23  C   UNL     1      -1.972  -7.135  -4.591  0.00  0.00    +0.003 A 
ATOM     24  C   UNL     1      -2.401  -6.509  -3.436  0.00  0.00    +0.039 A 
ATOM     25  C   UNL     1      -2.279  -7.146  -2.215  0.00  0.00    +0.134 A 
ATOM     26  F   UNL     1      -2.704  -6.537  -1.087  0.00  0.00    -0.205 F 
ENDBRANCH  18  20
ENDBRANCH  11  15
BRANCH   1  28
ATOM     27  N   UNL     1       2.649  -4.156   2.321  0.00  0.00    -0.315 N 
ATOM     28  C   UNL     1       1.516  -4.847   2.560  0.00  0.00    +0.218 C 
ATOM     29  O   UNL     1       0.481  -4.255   2.782  0.00  0.00    -0.275 OA
ATOM     30  H   UNL     1       3.477  -4.629   2.143  0.00  0.00    +0.149 HD
BRANCH  27  31
ATOM     31  C   UNL     1       2.629  -2.691   2.329  0.00  0.00    +0.109 C 
BRANCH  31  32
ATOM     32  C   UNL     1       4.033  -2.161   2.032  0.00  0.00    +0.056 C 
BRANCH  32  37
ATOM     33  C   UNL     1       3.840   1.425   0.864  0.00  0.00    +0.000 A 
ATOM     34  C   UNL     1       3.977   2.112   2.056  0.00  0.00    +0.003 A 
ATOM     35  C   UNL     1       4.132   1.418   3.241  0.00  0.00    +0.038 A 
ATOM     36  C   UNL     1       4.150   0.034   3.234  0.00  0.00    +0.127 A 
ATOM     37  C   UNL     1       4.013  -0.654   2.041  0.00  0.00    -0.011 A 
ATOM     38  C   UNL     1       3.858   0.042   0.857  0.00  0.00    +0.006 A 
ATOM     39  F   UNL     1       4.303  -0.646   4.392  0.00  0.00    -0.205 F 
ENDBRANCH  32  37
ENDBRANCH  31  32
ENDBRANCH  27  31
ENDBRANCH   1  28
TORSDOF 6
