REMARK  Name = ZINC40916965
REMARK  9 active torsions:
REMARK  status: ('A' for Active; 'I' for Inactive)
REMARK    1  A    between atoms: C_1  and  C_2
REMARK    2  A    between atoms: C_5  and  C_8
REMARK    3  A    between atoms: C_8  and  O_9
REMARK    4  A    between atoms: O_9  and  C_10
REMARK    5  A    between atoms: C_15  and  C_16
REMARK    6  A    between atoms: C_18  and  C_27
REMARK    7  A    between atoms: C_19  and  C_26
REMARK    8  A    between atoms: C_27  and  O_29
REMARK    9  A    between atoms: O_29  and  C_30
REMARK                            x       y       z     vdW  Elec       q    Type
REMARK                         _______ _______ _______ _____ _____    ______ ____
ROOT
ATOM      1  C   UNL     1       1.607  -6.301  -0.261  0.00  0.00    +0.127 A 
ATOM      2  C   UNL     1       0.577  -7.213  -0.443  0.00  0.00    +0.047 A 
ATOM      3  C   UNL     1       0.866  -8.554  -0.606  0.00  0.00    +0.019 A 
ATOM      4  C   UNL     1       2.180  -8.987  -0.589  0.00  0.00    +0.018 A 
ATOM      5  C   UNL     1       3.207  -8.079  -0.407  0.00  0.00    +0.025 A 
ATOM      6  C   UNL     1       2.923  -6.736  -0.249  0.00  0.00    +0.024 A 
ATOM      7 BR   UNL     1       2.571 -10.824  -0.813  0.00  0.00    -0.050 Br
ENDROOT
BRANCH   6   8
ATOM      8  C   UNL     1       4.043  -5.746  -0.059  0.00  0.00    +0.182 C 
ATOM      9  C   UNL     1       4.826  -6.106   1.176  0.00  0.00    +0.082 C 
ATOM     10  C   UNL     1       6.061  -6.630   1.134  0.00  0.00    +0.020 C 
ATOM     11  N   UNL     1       6.713  -6.870  -0.049  0.00  0.00    -0.287 N 
ATOM     12  C   UNL     1       6.173  -6.316  -1.201  0.00  0.00    +0.218 A 
ATOM     13  N   UNL     1       4.927  -5.781  -1.221  0.00  0.00    -0.221 N 
ATOM     14  N   UNL     1       4.716  -5.314  -2.517  0.00  0.00    -0.156 NA
ATOM     15  C   UNL     1       5.803  -5.584  -3.197  0.00  0.00    +0.247 A 
ATOM     16  N   UNL     1       6.683  -6.193  -2.396  0.00  0.00    -0.201 NA
ATOM     17  C   UNL     1       6.754  -6.966   2.430  0.00  0.00    +0.061 C 
ATOM     18  H   UNL     1       7.521  -7.407  -0.079  0.00  0.00    +0.155 HD
BRANCH   9  19
ATOM     19  C   UNL     1       4.233  -5.880   2.438  0.00  0.00    +0.339 C 
ATOM     20  O   UNL     1       4.141  -4.747   2.874  0.00  0.00    -0.245 OA
BRANCH  19  21
ATOM     21  O   UNL     1       3.768  -6.921   3.162  0.00  0.00    -0.465 OA
ATOM     22  C   UNL     1       3.181  -6.619   4.429  0.00  0.00    +0.280 C 
ENDBRANCH  19  21
ENDBRANCH   9  19
ENDBRANCH   6   8
BRANCH   1  23
ATOM     23  O   UNL     1       1.325  -4.981  -0.099  0.00  0.00    -0.487 OA
BRANCH  23  24
ATOM     24  C   UNL     1      -0.053  -4.604  -0.122  0.00  0.00    +0.264 C 
BRANCH  24  29
ATOM     25  C   UNL     1      -0.504   1.109   0.617  0.00  0.00    +0.044 C 
ATOM     26  C   UNL     1      -0.386  -0.381   0.425  0.00  0.00    -0.050 A 
ATOM     27  C   UNL     1      -0.269  -0.906  -0.849  0.00  0.00    +0.004 A 
ATOM     28  C   UNL     1      -0.161  -2.272  -1.026  0.00  0.00    +0.007 A 
ATOM     29  C   UNL     1      -0.170  -3.114   0.071  0.00  0.00    -0.010 A 
ATOM     30  C   UNL     1      -0.286  -2.589   1.345  0.00  0.00    +0.007 A 
ATOM     31  C   UNL     1      -0.390  -1.222   1.522  0.00  0.00    +0.004 A 
ENDBRANCH  24  29
ENDBRANCH  23  24
ENDBRANCH   1  23
TORSDOF 6
