REMARK  Name = ZINC33936234
REMARK  7 active torsions:
REMARK  status: ('A' for Active; 'I' for Inactive)
REMARK    1  A    between atoms: C_1  and  C_2
REMARK    2  A    between atoms: C_2  and  N_3
REMARK    3  A    between atoms: C_10  and  C_22
REMARK    4  A    between atoms: C_12  and  C_18
REMARK    5  A    between atoms: C_12  and  C_20
REMARK    6  A    between atoms: C_13  and  N_17
REMARK    7  A    between atoms: C_14  and  C_15
REMARK                            x       y       z     vdW  Elec       q    Type
REMARK                         _______ _______ _______ _____ _____    ______ ____
ROOT
ATOM      1  N   UNL     1      -1.430  -0.188   0.453  0.00  0.00    -0.298 NA
ATOM      2  C   UNL     1      -2.039   0.233  -0.822  0.00  0.00    +0.112 C 
ATOM      3  C   UNL     1      -3.456  -0.287  -0.842  0.00  0.00    -0.007 C 
ATOM      4  C   UNL     1      -3.746  -1.433  -0.255  0.00  0.00    -0.026 C 
ATOM      5  C   UNL     1      -2.711  -2.298   0.406  0.00  0.00    +0.044 C 
ATOM      6  C   UNL     1      -1.351  -1.650   0.518  0.00  0.00    +0.093 C 
ATOM      7  C   UNL     1      -3.256  -2.735   1.767  0.00  0.00    +0.068 C 
ATOM      8  C   UNL     1      -4.507  -3.585   1.550  0.00  0.00    +0.188 C 
ATOM      9  C   UNL     1      -5.486  -2.913   0.635  0.00  0.00    +0.054 C 
ATOM     10  C   UNL     1      -5.149  -1.916  -0.223  0.00  0.00    +0.074 C 
ENDROOT
BRANCH   7  11
ATOM     11  C   UNL     1      -2.212  -3.544   2.492  0.00  0.00    -0.038 A 
ATOM     12  C   UNL     1      -1.966  -3.313   3.833  0.00  0.00    +0.007 A 
ATOM     13  C   UNL     1      -1.010  -4.055   4.499  0.00  0.00    +0.041 A 
ATOM     14  C   UNL     1      -0.296  -5.030   3.825  0.00  0.00    +0.158 A 
ATOM     15  C   UNL     1      -0.542  -5.262   2.480  0.00  0.00    +0.159 A 
ATOM     16  C   UNL     1      -1.504  -4.521   1.817  0.00  0.00    +0.045 A 
ATOM     17  F   UNL     1       0.154  -6.213   1.820  0.00  0.00    -0.202 F 
ATOM     18  F   UNL     1       0.640  -5.755   4.476  0.00  0.00    -0.202 F 
ENDBRANCH   7  11
BRANCH   9  19
ATOM     19  N   UNL     1      -6.788  -3.327   0.665  0.00  0.00    -0.358 N 
ATOM     20  H   UNL     1      -7.057  -4.038   1.268  0.00  0.00    +0.142 HD
ATOM     21  H   UNL     1      -7.444  -2.910   0.084  0.00  0.00    +0.142 HD
ENDBRANCH   9  19
BRANCH   1  23
ATOM     22  C   UNL     1      -0.254   1.932   0.803  0.00  0.00    +0.020 C 
ATOM     23  C   UNL     1      -0.103   0.419   0.627  0.00  0.00    +0.081 C 
ENDBRANCH   1  23
BRANCH  10  24
ATOM     24  C   UNL     1      -6.135  -1.337  -1.085  0.00  0.00    +0.101 C 
ATOM     25  N   UNL     1      -6.917  -0.879  -1.770  0.00  0.00    -0.191 NA
ENDBRANCH  10  24
BRANCH   8  26
ATOM     26  C   UNL     1      -5.154  -3.827   2.849  0.00  0.00    +0.091 C 
ATOM     27  N   UNL     1      -5.653  -4.014   3.853  0.00  0.00    -0.194 NA
ENDBRANCH   8  26
BRANCH   8  28
ATOM     28  C   UNL     1      -4.114  -4.877   0.964  0.00  0.00    +0.091 C 
ATOM     29  N   UNL     1      -3.809  -5.874   0.513  0.00  0.00    -0.194 NA
ENDBRANCH   8  28
TORSDOF 6
