REMARK  Name = ZINC20894968
REMARK  11 active torsions:
REMARK  status: ('A' for Active; 'I' for Inactive)
REMARK    1  A    between atoms: C_1  and  C_2
REMARK    2  A    between atoms: C_3  and  C_32
REMARK    3  A    between atoms: N_9  and  C_29
REMARK    4  A    between atoms: C_10  and  S_12
REMARK    5  A    between atoms: S_12  and  C_13
REMARK    6  A    between atoms: C_13  and  C_15
REMARK    7  A    between atoms: C_13  and  C_16
REMARK    8  A    between atoms: N_18  and  C_19
REMARK    9  A    between atoms: C_22  and  S_25
REMARK   10  A    between atoms: S_25  and  N_28
REMARK   11  A    between atoms: C_29  and  C_30
REMARK                            x       y       z     vdW  Elec       q    Type
REMARK                         _______ _______ _______ _____ _____    ______ ____
ROOT
ATOM      1  C   UNL     1      -2.689   0.484   0.037  0.00  0.00    +0.137 C 
ATOM      2  C   UNL     1      -2.561   1.282  -1.262  0.00  0.00    +0.029 C 
ENDROOT
BRANCH   1   3
ATOM      3  C   UNL     1      -4.093  -0.048   0.163  0.00  0.00    +0.230 C 
ATOM      4  O   UNL     1      -4.334  -1.200  -0.128  0.00  0.00    -0.274 OA
ATOM      5  N   UNL     1      -5.082   0.757   0.600  0.00  0.00    -0.285 N 
ATOM      6  H   UNL     1      -4.851   1.779   0.936  0.00  0.00    +0.155 HD
BRANCH   5   7
ATOM      7  C   UNL     1      -6.402   0.294   0.625  0.00  0.00    +0.034 A 
ATOM      8  C   UNL     1      -7.450   1.164   0.358  0.00  0.00    +0.025 A 
ATOM      9  C   UNL     1      -8.752   0.702   0.377  0.00  0.00    +0.030 A 
ATOM     10  C   UNL     1      -9.012  -0.623   0.675  0.00  0.00    +0.105 A 
ATOM     11  C   UNL     1      -7.970  -1.491   0.948  0.00  0.00    +0.030 A 
ATOM     12  C   UNL     1      -6.666  -1.037   0.924  0.00  0.00    +0.025 A 
BRANCH  10  13
ATOM     13  S   UNL     1     -10.674  -1.207   0.707  0.00  0.00    +0.056 S 
ATOM     14  O   UNL     1     -11.429  -0.330  -0.117  0.00  0.00    -0.153 OA
ATOM     15  O   UNL     1     -10.617  -2.608   0.476  0.00  0.00    -0.153 OA
BRANCH  13  16
ATOM     16  N   UNL     1     -11.235  -1.005   2.252  0.00  0.00    -0.204 NA
ATOM     17  H   UNL     1     -12.274  -1.359   2.314  0.00  0.00    +0.144 HD
ATOM     18  H   UNL     1     -11.194   0.061   2.520  0.00  0.00    +0.144 HD
ENDBRANCH  13  16
ENDBRANCH  10  13
ENDBRANCH   5   7
ENDBRANCH   1   3
BRANCH   1  19
ATOM     19  S   UNL     1      -1.520  -0.898   0.014  0.00  0.00    -0.075 S 
BRANCH  19  29
ATOM     20  C   UNL     1       4.921   1.743   0.005  0.00  0.00    +0.045 C 
ATOM     21  C   UNL     1       3.514   2.282   0.020  0.00  0.00    -0.026 A 
ATOM     22  C   UNL     1       3.295   3.605   0.036  0.00  0.00    -0.008 A 
ATOM     23  S   UNL     1       1.516   3.730   0.048  0.00  0.00    -0.073 S 
ATOM     24  C   UNL     1       1.119   2.001   0.031  0.00  0.00    +0.117 A 
ATOM     25  C   UNL     1       2.380   1.375   0.016  0.00  0.00    +0.075 A 
ATOM     26  C   UNL     1       2.364  -0.056   0.000  0.00  0.00    +0.263 A 
ATOM     27  O   UNL     1       3.408  -0.684  -0.013  0.00  0.00    -0.267 OA
ATOM     28  N   UNL     1       1.182  -0.698  -0.000  0.00  0.00    -0.283 N 
ATOM     29  C   UNL     1       0.003  -0.011   0.015  0.00  0.00    +0.174 A 
ATOM     30  N   UNL     1      -0.013   1.306   0.030  0.00  0.00    -0.216 NA
ATOM     31  C   UNL     1       4.309   4.720   0.043  0.00  0.00    +0.052 C 
BRANCH  28  32
ATOM     32  C   UNL     1       1.160  -2.163  -0.016  0.00  0.00    +0.154 C 
BRANCH  32  33
ATOM     33  C   UNL     1       1.144  -2.650  -1.442  0.00  0.00    -0.013 C 
ATOM     34  C   UNL     1       2.058  -3.491  -1.858  0.00  0.00    +0.005 C 
ENDBRANCH  32  33
ENDBRANCH  28  32
ENDBRANCH  19  29
ENDBRANCH   1  19
TORSDOF 8
