REMARK  Name = ZINC40319833
REMARK  12 active torsions:
REMARK  status: ('A' for Active; 'I' for Inactive)
REMARK    1  A    between atoms: C_1  and  C_2
REMARK    2  A    between atoms: C_2  and  C_4
REMARK    3  A    between atoms: C_9  and  O_10
REMARK    4  A    between atoms: O_10  and  C_11
REMARK    5  A    between atoms: C_11  and  C_12
REMARK    6  A    between atoms: C_12  and  C_14
REMARK    7  A    between atoms: C_12  and  O_37
REMARK    8  A    between atoms: C_14  and  N_15
REMARK    9  A    between atoms: N_15  and  C_16
REMARK   10  A    between atoms: N_15  and  C_29
REMARK   11  A    between atoms: C_16  and  C_17
REMARK   12  A    between atoms: C_20  and  C_22
REMARK                            x       y       z     vdW  Elec       q    Type
REMARK                         _______ _______ _______ _____ _____    ______ ____
ROOT
ATOM      1  N   UNL     1      -0.344  -7.051   2.221  0.00  0.00    +0.389 N 
ATOM      2  H   UNL     1      -1.264  -7.199   2.610  0.00  0.00    -0.081 HD
ENDROOT
BRANCH   1   3
ATOM      3  C   UNL     1       0.346  -6.000   2.981  0.00  0.00    -0.045 C 
ATOM      4  C   UNL     1       0.297  -6.328   4.483  0.00  0.00    +0.009 C 
ATOM      5  C   UNL     1       0.728  -5.091   5.307  0.00  0.00    +0.164 C 
ATOM      6  S   UNL     1       0.251  -3.691   4.214  0.00  0.00    -0.033 S 
ATOM      7  O   UNL     1       1.422  -2.978   3.837  0.00  0.00    -0.174 OA
ATOM      8  O   UNL     1      -0.833  -2.990   4.807  0.00  0.00    -0.174 OA
ATOM      9  C   UNL     1      -0.369  -4.637   2.759  0.00  0.00    +0.151 C 
ENDBRANCH   1   3
BRANCH   1  10
ATOM     10  C   UNL     1      -0.467  -6.639   0.817  0.00  0.00    -0.043 C 
BRANCH  10  11
ATOM     11  C   UNL     1      -1.945  -6.447   0.469  0.00  0.00    +0.135 C 
BRANCH  11  12
ATOM     12  O   UNL     1      -2.619  -7.705   0.541  0.00  0.00    -0.390 OA
ATOM     13  H   UNL     1      -2.269  -8.374  -0.062  0.00  0.00    +0.210 HD
ENDBRANCH  11  12
BRANCH  11  14
ATOM     14  C   UNL     1      -2.066  -5.884  -0.949  0.00  0.00    +0.258 C 
BRANCH  14  15
ATOM     15  O   UNL     1      -3.437  -5.595  -1.231  0.00  0.00    -0.489 OA
BRANCH  15  21
ATOM     16  C   UNL     1      -5.044  -4.777  -2.803  0.00  0.00    +0.059 A 
ATOM     17  C   UNL     1      -5.320  -4.246  -4.069  0.00  0.00    +0.015 A 
ATOM     18  C   UNL     1      -4.295  -4.036  -4.963  0.00  0.00    +0.001 A 
ATOM     19  C   UNL     1      -2.989  -4.347  -4.617  0.00  0.00    +0.004 A 
ATOM     20  C   UNL     1      -2.701  -4.872  -3.373  0.00  0.00    +0.046 A 
ATOM     21  C   UNL     1      -3.719  -5.085  -2.455  0.00  0.00    +0.131 A 
BRANCH  16  23
ATOM     22  C   UNL     1      -7.552  -4.671  -2.222  0.00  0.00    +0.092 C 
ATOM     23  C   UNL     1      -6.132  -5.004  -1.844  0.00  0.00    +0.164 C 
ATOM     24  O   UNL     1      -5.887  -5.460  -0.747  0.00  0.00    -0.292 OA
ENDBRANCH  16  23
ENDBRANCH  15  21
ENDBRANCH  14  15
ENDBRANCH  11  14
ENDBRANCH  10  11
ENDBRANCH   1  10
BRANCH   1  25
ATOM     25  C   UNL     1       0.427  -8.299   2.300  0.00  0.00    -0.003 C 
BRANCH  25  26
ATOM     26  C   UNL     1       0.427  -8.801   3.721  0.00  0.00    +0.089 A 
ATOM     27  C   UNL     1      -0.655  -9.221   4.406  0.00  0.00    +0.043 A 
ATOM     28  C   UNL     1      -0.210  -9.600   5.688  0.00  0.00    +0.050 A 
ATOM     29  C   UNL     1       1.133  -9.388   5.716  0.00  0.00    +0.135 A 
ATOM     30  O   UNL     1       1.506  -8.908   4.514  0.00  0.00    -0.462 OA
BRANCH  29  31
ATOM     31  C   UNL     1       2.028  -9.644   6.863  0.00  0.00    +0.017 A 
ATOM     32  C   UNL     1       1.511 -10.156   8.055  0.00  0.00    +0.014 A 
ATOM     33  C   UNL     1       2.351 -10.393   9.122  0.00  0.00    +0.039 A 
ATOM     34  C   UNL     1       3.707 -10.125   9.014  0.00  0.00    +0.123 A 
ATOM     35  C   UNL     1       4.225  -9.617   7.834  0.00  0.00    +0.039 A 
ATOM     36  C   UNL     1       3.395  -9.381   6.758  0.00  0.00    +0.014 A 
ATOM     37  F   UNL     1       4.525 -10.358  10.063  0.00  0.00    -0.205 F 
ENDBRANCH  29  31
ENDBRANCH  25  26
ENDBRANCH   1  25
TORSDOF 11
