REMARK  Name = ZINC36660469
REMARK  10 active torsions:
REMARK  status: ('A' for Active; 'I' for Inactive)
REMARK    1  A    between atoms: C_1  and  C_2
REMARK    2  A    between atoms: C_5  and  C_35
REMARK    3  A    between atoms: N_11  and  C_12
REMARK    4  A    between atoms: C_12  and  C_13
REMARK    5  A    between atoms: C_13  and  N_14
REMARK    6  A    between atoms: N_14  and  C_15
REMARK    7  A    between atoms: N_14  and  C_16
REMARK    8  A    between atoms: C_17  and  C_19
REMARK    9  A    between atoms: N_24  and  S_25
REMARK   10  A    between atoms: S_25  and  C_28
REMARK                            x       y       z     vdW  Elec       q    Type
REMARK                         _______ _______ _______ _____ _____    ______ ____
ROOT
ATOM      1  C   UNL     1       0.669   1.980   0.262  0.00  0.00    +0.046 C 
ATOM      2  C   UNL     1       1.308   0.617   0.202  0.00  0.00    -0.024 A 
ATOM      3  C   UNL     1       1.765   0.135  -0.997  0.00  0.00    +0.006 A 
ATOM      4  C   UNL     1       2.359  -1.115  -1.096  0.00  0.00    +0.005 A 
ATOM      5  C   UNL     1       2.493  -1.894   0.039  0.00  0.00    -0.035 A 
ATOM      6  C   UNL     1       2.038  -1.419   1.244  0.00  0.00    +0.044 A 
ATOM      7  C   UNL     1       1.433  -0.149   1.384  0.00  0.00    +0.083 A 
ATOM      8  N   UNL     1       1.042   0.177   2.635  0.00  0.00    -0.224 NA
ATOM      9  C   UNL     1       1.214  -0.625   3.660  0.00  0.00    +0.168 A 
ATOM     10  S   UNL     1       1.997  -2.044   2.906  0.00  0.00    -0.052 S 
ATOM     11  N   UNL     1       0.868  -0.426   4.986  0.00  0.00    -0.251 N 
ATOM     12  C   UNL     1       0.356   0.757   5.379  0.00  0.00    +0.240 C 
ATOM     13  O   UNL     1      -0.011   0.909   6.525  0.00  0.00    -0.273 OA
ATOM     14  C   UNL     1       3.134  -3.255  -0.046  0.00  0.00    +0.045 C 
ENDROOT
BRANCH  12  15
ATOM     15  C   UNL     1       0.239   1.892   4.394  0.00  0.00    +0.166 C 
ATOM     16  C   UNL     1      -1.095   1.785   3.625  0.00  0.00    +0.031 C 
ATOM     17  C   UNL     1      -2.022   2.757   4.401  0.00  0.00    +0.019 C 
ATOM     18  C   UNL     1      -1.032   3.878   4.802  0.00  0.00    +0.110 C 
ATOM     19  N   UNL     1       0.232   3.177   5.109  0.00  0.00    -0.165 NA
BRANCH  19  20
ATOM     20  S   UNL     1       1.438   3.739   6.096  0.00  0.00    +0.062 S 
ATOM     21  O   UNL     1       0.835   4.670   6.984  0.00  0.00    -0.153 OA
ATOM     22  O   UNL     1       2.151   2.599   6.556  0.00  0.00    -0.153 OA
BRANCH  20  23
ATOM     23  C   UNL     1       2.552   4.656   5.085  0.00  0.00    +0.106 A 
ATOM     24  C   UNL     1       3.618   4.019   4.478  0.00  0.00    +0.030 A 
ATOM     25  C   UNL     1       4.493   4.737   3.685  0.00  0.00    +0.022 A 
ATOM     26  C   UNL     1       4.301   6.095   3.498  0.00  0.00    +0.041 A 
ATOM     27  C   UNL     1       3.234   6.732   4.106  0.00  0.00    +0.022 A 
ATOM     28  C   UNL     1       2.357   6.011   4.894  0.00  0.00    +0.030 A 
ATOM     29 CL   UNL     1       5.399   6.998   2.503  0.00  0.00    -0.084 Cl
ENDBRANCH  20  23
ENDBRANCH  19  20
ENDBRANCH  12  15
BRANCH  11  30
ATOM     30  C   UNL     1       1.059  -1.501   5.963  0.00  0.00    +0.097 C 
BRANCH  30  31
ATOM     31  C   UNL     1       2.413  -1.329   6.653  0.00  0.00    -0.060 C 
BRANCH  31  32
ATOM     32  N   UNL     1       2.614  -2.420   7.617  0.00  0.00    +0.377 N 
ATOM     33  C   UNL     1       2.704  -3.698   6.898  0.00  0.00    -0.097 C 
ATOM     34  C   UNL     1       3.857  -2.190   8.364  0.00  0.00    -0.097 C 
ATOM     35  H   UNL     1       1.836  -2.448   8.258  0.00  0.00    -0.083 HD
ENDBRANCH  31  32
ENDBRANCH  30  31
ENDBRANCH  11  30
TORSDOF 6
