REMARK  Name = ZINC38177740
REMARK  7 active torsions:
REMARK  status: ('A' for Active; 'I' for Inactive)
REMARK    1  A    between atoms: C_1  and  N_2
REMARK    2  A    between atoms: N_2  and  N_3
REMARK    3  A    between atoms: C_4  and  C_5
REMARK    4  A    between atoms: C_4  and  C_8
REMARK    5  A    between atoms: C_8  and  C_12
REMARK    6  A    between atoms: N_9  and  N_10
REMARK    7  A    between atoms: N_10  and  C_11
REMARK                            x       y       z     vdW  Elec       q    Type
REMARK                         _______ _______ _______ _____ _____    ______ ____
ROOT
ATOM      1  N   UNL     1      -1.081  -0.690   0.020  0.00  0.00    -0.178 NA
ATOM      2  C   UNL     1      -1.091  -1.998  -0.092  0.00  0.00    +0.203 C 
ENDROOT
BRANCH   1   4
ATOM      3  C   UNL     1       0.049   1.414   0.029  0.00  0.00    +0.148 C 
ATOM      4  N   UNL     1       0.040  -0.051   0.018  0.00  0.00    -0.271 N 
ATOM      5  H   UNL     1       0.877  -0.541   0.011  0.00  0.00    +0.168 HD
ENDBRANCH   1   4
BRANCH   2   6
ATOM      6  C   UNL     1       0.172  -2.743  -0.104  0.00  0.00    +0.408 C 
ATOM      7  O   UNL     1       0.613  -3.218   0.935  0.00  0.00    -0.239 OA
ATOM      8  O   UNL     1       0.785  -2.890  -1.153  0.00  0.00    -0.239 OA
ENDBRANCH   2   6
BRANCH   2   9
ATOM      9  C   UNL     1      -2.379  -2.721  -0.206  0.00  0.00    +0.203 C 
ATOM     10  N   UNL     1      -2.390  -4.029  -0.317  0.00  0.00    -0.178 NA
BRANCH  10  11
ATOM     11  N   UNL     1      -3.510  -4.668  -0.312  0.00  0.00    -0.271 N 
ATOM     12  C   UNL     1      -3.519  -6.133  -0.324  0.00  0.00    +0.148 C 
ATOM     13  H   UNL     1      -4.348  -4.178  -0.300  0.00  0.00    +0.168 HD
ENDBRANCH  10  11
BRANCH   9  14
ATOM     14  C   UNL     1      -3.642  -1.976  -0.194  0.00  0.00    +0.408 C 
ATOM     15  O   UNL     1      -4.167  -1.677   0.872  0.00  0.00    -0.239 OA
ATOM     16  O   UNL     1      -4.172  -1.652  -1.249  0.00  0.00    -0.239 OA
ENDBRANCH   9  14
ENDBRANCH   2   9
TORSDOF 5
