REMARK  Name = ZINC09160742
REMARK  5 active torsions:
REMARK  status: ('A' for Active; 'I' for Inactive)
REMARK    1  A    between atoms: C_4  and  C_7
REMARK    2  A    between atoms: C_14  and  N_36
REMARK    3  A    between atoms: C_15  and  C_34
REMARK    4  A    between atoms: N_23  and  C_26
REMARK    5  A    between atoms: C_26  and  C_27
REMARK                            x       y       z     vdW  Elec       q    Type
REMARK                         _______ _______ _______ _____ _____    ______ ____
ROOT
ATOM      1  C   UNL     1       3.214  -0.868   0.463  0.00  0.00    +0.074 A 
ATOM      2  C   UNL     1       3.737  -1.782  -0.388  0.00  0.00    +0.066 A 
ATOM      3  C   UNL     1       5.073  -2.022  -0.003  0.00  0.00    +0.246 A 
ATOM      4  N   UNL     1       5.339  -1.282   1.035  0.00  0.00    -0.135 NA
ATOM      5  N   UNL     1       4.194  -0.536   1.355  0.00  0.00    -0.273 N 
ATOM      6  H   UNL     1       4.112   0.101   2.082  0.00  0.00    +0.189 HD
ATOM      7  O   UNL     1       5.867  -2.900  -0.673  0.00  0.00    -0.421 OA
ATOM      8  C   UNL     1       5.441  -3.345  -1.872  0.00  0.00    +0.201 C 
ATOM      9  C   UNL     1       4.184  -3.184  -2.343  0.00  0.00    +0.110 C 
ATOM     10  C   UNL     1       3.109  -2.483  -1.559  0.00  0.00    +0.145 C 
ATOM     11  C   UNL     1       2.046  -3.437  -1.117  0.00  0.00    -0.001 A 
ATOM     12  C   UNL     1       2.096  -4.552  -0.308  0.00  0.00    +0.007 A 
ATOM     13  C   UNL     1       0.901  -5.229  -0.092  0.00  0.00    +0.000 A 
ATOM     14  C   UNL     1      -0.281  -4.801  -0.662  0.00  0.00    +0.002 A 
ATOM     15  C   UNL     1      -0.339  -3.680  -1.476  0.00  0.00    +0.024 A 
ATOM     16  C   UNL     1       0.854  -2.992  -1.702  0.00  0.00    +0.041 A 
ATOM     17  N   UNL     1       1.085  -1.860  -2.463  0.00  0.00    -0.265 N 
ATOM     18  C   UNL     1       2.383  -1.489  -2.438  0.00  0.00    +0.241 C 
ATOM     19  O   UNL     1       2.873  -0.539  -3.011  0.00  0.00    -0.274 OA
ENDROOT
BRANCH   1  23
ATOM     20  C   UNL     1      -0.736   0.695   0.364  0.00  0.00    +0.000 A 
ATOM     21  C   UNL     1      -0.538  -0.673   0.410  0.00  0.00    +0.001 A 
ATOM     22  C   UNL     1       0.743  -1.187   0.442  0.00  0.00    +0.010 A 
ATOM     23  C   UNL     1       1.838  -0.323   0.428  0.00  0.00    +0.000 A 
ATOM     24  C   UNL     1       1.631   1.056   0.381  0.00  0.00    +0.010 A 
ATOM     25  C   UNL     1       0.346   1.557   0.349  0.00  0.00    +0.001 A 
ENDBRANCH   1  23
BRANCH   8  26
ATOM     26  N   UNL     1       6.344  -4.003  -2.669  0.00  0.00    -0.328 N 
ATOM     27  H   UNL     1       7.255  -4.135  -2.363  0.00  0.00    +0.145 HD
ATOM     28  H   UNL     1       6.071  -4.336  -3.538  0.00  0.00    +0.145 HD
ENDBRANCH   8  26
BRANCH   9  29
ATOM     29  C   UNL     1       3.862  -3.704  -3.638  0.00  0.00    +0.102 C 
ATOM     30  N   UNL     1       3.608  -4.117  -4.665  0.00  0.00    -0.191 NA
ENDBRANCH   9  29
BRANCH  17  31
ATOM     31  C   UNL     1       0.044  -1.147  -3.207  0.00  0.00    +0.150 C 
BRANCH  31  32
ATOM     32  C   UNL     1       0.107  -1.540  -4.661  0.00  0.00    -0.011 A 
ATOM     33  C   UNL     1       0.822  -0.765  -5.555  0.00  0.00    +0.006 A 
ATOM     34  C   UNL     1       0.881  -1.125  -6.889  0.00  0.00    +0.000 A 
ATOM     35  C   UNL     1       0.225  -2.260  -7.329  0.00  0.00    +0.001 A 
ATOM     36  C   UNL     1      -0.490  -3.035  -6.435  0.00  0.00    +0.020 A 
ATOM     37  C   UNL     1      -0.544  -2.678  -5.099  0.00  0.00    +0.046 A 
ATOM     38 CL   UNL     1      -1.437  -3.655  -3.975  0.00  0.00    -0.083 Cl
ENDBRANCH  31  32
ENDBRANCH  17  31
TORSDOF 5
