REMARK  Name = ZINC63204489
REMARK  7 active torsions:
REMARK  status: ('A' for Active; 'I' for Inactive)
REMARK    1  A    between atoms: C_4  and  C_7
REMARK    2  A    between atoms: C_7  and  C_9
REMARK    3  A    between atoms: C_7  and  N_16
REMARK    4  A    between atoms: C_17  and  C_19
REMARK    5  A    between atoms: C_19  and  N_20
REMARK    6  A    between atoms: C_23  and  C_28
REMARK    7  A    between atoms: C_28  and  C_29
REMARK                            x       y       z     vdW  Elec       q    Type
REMARK                         _______ _______ _______ _____ _____    ______ ____
ROOT
ATOM      1  C   UNL     1       3.788  -2.938   3.073  0.00  0.00    +0.213 C 
ENDROOT
BRANCH   1   2
ATOM      2  N   UNL     1       4.090  -2.531   4.447  0.00  0.00    -0.216 N 
ATOM      3  C   UNL     1       5.327  -2.525   4.980  0.00  0.00    +0.244 C 
ATOM      4  O   UNL     1       6.362  -2.842   4.433  0.00  0.00    -0.273 OA
ATOM      5  C   UNL     1       5.157  -2.037   6.406  0.00  0.00    +0.165 C 
ATOM      6  N   UNL     1       3.707  -1.804   6.521  0.00  0.00    -0.287 N 
ATOM      7  C   UNL     1       3.171  -2.115   5.327  0.00  0.00    +0.310 C 
ATOM      8  O   UNL     1       1.985  -2.032   5.077  0.00  0.00    -0.252 OA
ATOM      9  H   UNL     1       3.232  -1.485   7.304  0.00  0.00    +0.151 HD
BRANCH   5  10
ATOM     10  C   UNL     1       5.934  -0.738   6.627  0.00  0.00    +0.065 C 
BRANCH  10  11
ATOM     11  C   UNL     1       5.849  -0.342   8.078  0.00  0.00    -0.039 C 
ATOM     12  C   UNL     1       6.749  -0.616   9.050  0.00  0.00    -0.001 A 
ATOM     13  C   UNL     1       8.028  -1.337   9.046  0.00  0.00    +0.010 A 
ATOM     14  C   UNL     1       8.720  -1.450  10.202  0.00  0.00    +0.001 A 
ATOM     15  C   UNL     1       8.249  -0.898  11.401  0.00  0.00    +0.002 A 
ATOM     16  C   UNL     1       7.083  -0.221  11.483  0.00  0.00    +0.026 A 
ATOM     17  C   UNL     1       6.274  -0.041  10.328  0.00  0.00    +0.043 A 
ATOM     18  N   UNL     1       5.124   0.564  10.154  0.00  0.00    -0.380 N 
ATOM     19  C   UNL     1       4.743   0.447   8.742  0.00  0.00    +0.144 C 
ATOM     20  H   UNL     1       4.612   1.017  10.843  0.00  0.00    +0.160 HD
ENDBRANCH  10  11
ENDBRANCH   5  10
ENDBRANCH   1   2
BRANCH   1  22
ATOM     21  N   UNL     1       3.630  -1.873   0.845  0.00  0.00    -0.303 N 
ATOM     22  C   UNL     1       3.871  -1.738   2.164  0.00  0.00    +0.232 C 
ATOM     23  O   UNL     1       4.155  -0.651   2.621  0.00  0.00    -0.274 OA
ATOM     24  H   UNL     1       3.403  -2.743   0.480  0.00  0.00    +0.150 HD
BRANCH  21  25
ATOM     25  C   UNL     1       3.711  -0.707  -0.038  0.00  0.00    +0.134 C 
BRANCH  25  26
ATOM     26  C   UNL     1       4.014  -1.161  -1.442  0.00  0.00    -0.023 A 
ATOM     27  C   UNL     1       3.407  -2.294  -1.949  0.00  0.00    +0.007 A 
ATOM     28  C   UNL     1       3.684  -2.711  -3.237  0.00  0.00    +0.020 A 
ATOM     29  C   UNL     1       4.571  -1.993  -4.020  0.00  0.00    +0.041 A 
ATOM     30  C   UNL     1       5.179  -0.858  -3.513  0.00  0.00    +0.020 A 
ATOM     31  C   UNL     1       4.896  -0.440  -2.226  0.00  0.00    +0.007 A 
ATOM     32 CL   UNL     1       4.921  -2.516  -5.638  0.00  0.00    -0.084 Cl
ENDBRANCH  25  26
BRANCH  25  36
ATOM     33  C   UNL     1      -0.017   1.378   0.010  0.00  0.00    +0.000 A 
ATOM     34  C   UNL     1       1.171   2.086   0.002  0.00  0.00    +0.000 A 
ATOM     35  C   UNL     1       2.377   1.411  -0.013  0.00  0.00    +0.006 A 
ATOM     36  C   UNL     1       2.396   0.029  -0.020  0.00  0.00    -0.023 A 
ATOM     37  C   UNL     1       1.208  -0.679  -0.012  0.00  0.00    +0.006 A 
ATOM     38  C   UNL     1       0.002  -0.004   0.002  0.00  0.00    +0.000 A 
ENDBRANCH  25  36
ENDBRANCH  21  25
ENDBRANCH   1  22
TORSDOF 7
