REMARK  Name = ZINC12097237
REMARK  6 active torsions:
REMARK  status: ('A' for Active; 'I' for Inactive)
REMARK    1  A    between atoms: C_1  and  N_68
REMARK    2  A    between atoms: C_6  and  C_8
REMARK    3  A    between atoms: C_13  and  C_16
REMARK    4  A    between atoms: C_16  and  C_31
REMARK    5  A    between atoms: N_19  and  C_23
REMARK    6  A    between atoms: C_23  and  C_24
REMARK                            x       y       z     vdW  Elec       q    Type
REMARK                         _______ _______ _______ _____ _____    ______ ____
ROOT
ATOM      1  C   UNL     1      -3.609  -2.068  -4.068  0.00  0.00    +0.142 C 
ATOM      2  C   UNL     1      -2.329  -2.364  -4.824  0.00  0.00    +0.252 C 
ATOM      3  O   UNL     1      -1.270  -2.724  -4.358  0.00  0.00    -0.272 OA
ATOM      4  N   UNL     1      -2.614  -2.143  -6.123  0.00  0.00    -0.220 N 
ATOM      5  C   UNL     1      -3.883  -1.753  -6.290  0.00  0.00    +0.310 C 
ATOM      6  O   UNL     1      -4.373  -1.495  -7.372  0.00  0.00    -0.252 OA
ATOM      7  N   UNL     1      -4.555  -1.678  -5.127  0.00  0.00    -0.281 N 
ATOM      8  H   UNL     1      -5.482  -1.419  -5.010  0.00  0.00    +0.152 HD
ENDROOT
BRANCH   1  14
ATOM      9  C   UNL     1      -0.738   1.746  -1.435  0.00  0.00    +0.202 C 
ATOM     10  O   UNL     1      -0.461   2.754  -2.050  0.00  0.00    -0.277 OA
ATOM     11  N   UNL     1      -1.839   1.039  -1.760  0.00  0.00    -0.303 N 
ATOM     12  C   UNL     1      -2.184  -0.188  -1.028  0.00  0.00    +0.108 C 
ATOM     13  C   UNL     1      -2.370  -1.328  -2.028  0.00  0.00    +0.025 C 
ATOM     14  C   UNL     1      -3.398  -0.915  -3.084  0.00  0.00    +0.029 C 
ATOM     15  C   UNL     1      -2.889   0.314  -3.840  0.00  0.00    +0.025 C 
ATOM     16  C   UNL     1      -2.712   1.476  -2.857  0.00  0.00    +0.108 C 
BRANCH   9  22
ATOM     17  C   UNL     1       2.041   1.630  -1.776  0.00  0.00    -0.095 C 
ATOM     18  C   UNL     1       2.385   1.438   0.612  0.00  0.00    -0.078 C 
ATOM     19  C   UNL     1       1.834   1.859   1.977  0.00  0.00    -0.019 C 
ATOM     20  C   UNL     1       0.444   1.247   2.172  0.00  0.00    -0.003 C 
ATOM     21  C   UNL     1      -0.469   1.701   1.030  0.00  0.00    -0.006 C 
ATOM     22  C   UNL     1       0.148   1.284  -0.307  0.00  0.00    +0.019 C 
ATOM     23  N   UNL     1       1.473   1.925  -0.445  0.00  0.00    +0.385 N 
ATOM     24  H   UNL     1       1.363   2.941  -0.347  0.00  0.00    -0.081 HD
ENDBRANCH   9  22
ENDBRANCH   1  14
BRANCH   1  25
ATOM     25  C   UNL     1      -4.094  -3.298  -3.345  0.00  0.00    +0.003 A 
ATOM     26  C   UNL     1      -3.191  -4.160  -2.741  0.00  0.00    +0.009 A 
ATOM     27  C   UNL     1      -3.682  -5.279  -2.088  0.00  0.00    +0.020 A 
ATOM     28  C   UNL     1      -5.047  -5.497  -2.060  0.00  0.00    +0.111 A 
ATOM     29  N   UNL     1      -5.877  -4.656  -2.645  0.00  0.00    -0.263 NA
ATOM     30  C   UNL     1      -5.445  -3.578  -3.271  0.00  0.00    +0.117 A 
ENDBRANCH   1  25
BRANCH   4  31
ATOM     31  C   UNL     1      -1.654  -2.311  -7.216  0.00  0.00    +0.153 C 
BRANCH  31  32
ATOM     32  C   UNL     1      -1.723  -3.724  -7.734  0.00  0.00    -0.029 A 
ATOM     33  C   UNL     1      -0.912  -4.701  -7.187  0.00  0.00    +0.008 A 
ATOM     34  C   UNL     1      -0.978  -5.998  -7.658  0.00  0.00    +0.038 A 
ATOM     35  C   UNL     1      -1.851  -6.318  -8.685  0.00  0.00    +0.123 A 
ATOM     36  C   UNL     1      -2.659  -5.338  -9.235  0.00  0.00    +0.038 A 
ATOM     37  C   UNL     1      -2.595  -4.042  -8.759  0.00  0.00    +0.008 A 
ATOM     38  F   UNL     1      -1.913  -7.585  -9.149  0.00  0.00    -0.205 F 
ENDBRANCH  31  32
ENDBRANCH   4  31
TORSDOF 5
