REMARK  Name = ZINC03522877
REMARK  8 active torsions:
REMARK  status: ('A' for Active; 'I' for Inactive)
REMARK    1  A    between atoms: C_1  and  C_2
REMARK    2  A    between atoms: C_2  and  N_3
REMARK    3  A    between atoms: C_7  and  C_9
REMARK    4  A    between atoms: C_9  and  C_11
REMARK    5  A    between atoms: C_9  and  O_12
REMARK    6  A    between atoms: O_12  and  C_13
REMARK    7  A    between atoms: C_13  and  C_15
REMARK    8  A    between atoms: C_27  and  C_30
REMARK                            x       y       z     vdW  Elec       q    Type
REMARK                         _______ _______ _______ _____ _____    ______ ____
ROOT
ATOM      1  C   UNL     1      -4.156   4.378   5.252  0.00  0.00    +0.340 C 
ATOM      2  O   UNL     1      -4.761   5.220   4.618  0.00  0.00    -0.245 OA
ENDROOT
BRANCH   1   3
ATOM      3  C   UNL     1      -3.200   3.486   4.569  0.00  0.00    +0.060 A 
ATOM      4  C   UNL     1      -2.511   2.523   5.315  0.00  0.00    +0.017 A 
ATOM      5  C   UNL     1      -1.611   1.663   4.745  0.00  0.00    +0.027 A 
ATOM      6  C   UNL     1      -1.397   1.777   3.370  0.00  0.00    +0.047 A 
ATOM      7  C   UNL     1      -2.090   2.751   2.601  0.00  0.00    +0.004 A 
ATOM      8  C   UNL     1      -3.004   3.623   3.191  0.00  0.00    +0.025 A 
ATOM      9  C   UNL     1      -1.628   2.585   1.238  0.00  0.00    -0.019 A 
ATOM     10  C   UNL     1      -0.727   1.577   1.246  0.00  0.00    +0.020 A 
ATOM     11  N   UNL     1      -0.587   1.090   2.517  0.00  0.00    -0.358 N 
ATOM     12  H   UNL     1       0.050   0.278   2.897  0.00  0.00    +0.166 HD
ATOM     13  C   UNL     1      -0.013   1.086   0.008  0.00  0.00    +0.054 C 
ATOM     14  C   UNL     1      -0.761   1.597  -1.228  0.00  0.00    +0.009 C 
ATOM     15  C   UNL     1      -0.998   3.104  -1.093  0.00  0.00    -0.009 C 
ATOM     16  C   UNL     1      -2.034   3.357   0.008  0.00  0.00    +0.040 C 
ATOM     17  C   UNL     1      -1.516   3.661  -2.420  0.00  0.00    +0.008 C 
ENDBRANCH   1   3
BRANCH   1  18
ATOM     18  O   UNL     1      -4.357   4.261   6.579  0.00  0.00    -0.449 OA
BRANCH  18  19
ATOM     19  C   UNL     1      -5.311   5.172   7.185  0.00  0.00    +0.259 C 
ATOM     20  C   UNL     1      -6.706   4.545   7.153  0.00  0.00    +0.062 C 
BRANCH  19  25
ATOM     21  N   UNL     1      -6.048   7.325  11.419  0.00  0.00    -0.299 N 
ATOM     22  C   UNL     1      -5.303   6.502  10.655  0.00  0.00    +0.306 C 
ATOM     23  O   UNL     1      -4.310   5.975  11.119  0.00  0.00    -0.252 OA
ATOM     24  N   UNL     1      -5.658   6.263   9.377  0.00  0.00    -0.237 N 
ATOM     25  C   UNL     1      -4.913   5.439   8.614  0.00  0.00    +0.261 C 
ATOM     26  O   UNL     1      -3.924   4.914   9.076  0.00  0.00    -0.271 OA
ATOM     27  H   UNL     1      -6.946   7.802  11.000  0.00  0.00    +0.150 HD
ATOM     28  H   UNL     1      -6.557   6.739   8.958  0.00  0.00    +0.159 HD
BRANCH  21  30
ATOM     29  C   UNL     1      -6.667   8.546  13.447  0.00  0.00    +0.024 C 
ATOM     30  C   UNL     1      -5.661   7.585  12.808  0.00  0.00    +0.102 C 
ENDBRANCH  21  30
ENDBRANCH  19  25
ENDBRANCH  18  19
ENDBRANCH   1  18
TORSDOF 5
