REMARK  Name = ZINC36531015
REMARK  9 active torsions:
REMARK  status: ('A' for Active; 'I' for Inactive)
REMARK    1  A    between atoms: C_1  and  C_2
REMARK    2  A    between atoms: C_7  and  C_8
REMARK    3  A    between atoms: C_8  and  C_10
REMARK    4  A    between atoms: C_8  and  N_19
REMARK    5  A    between atoms: N_12  and  C_13
REMARK    6  A    between atoms: N_19  and  C_20
REMARK    7  A    between atoms: C_21  and  C_23
REMARK    8  A    between atoms: C_24  and  O_30
REMARK    9  A    between atoms: C_28  and  O_29
REMARK                            x       y       z     vdW  Elec       q    Type
REMARK                         _______ _______ _______ _____ _____    ______ ____
ROOT
ATOM      1  C   UNL     1      -0.053   0.207   2.435  0.00  0.00    +0.192 C 
ENDROOT
BRANCH   1   8
ATOM      2  C   UNL     1      -2.477  -0.859   1.277  0.00  0.00    +0.044 C 
ATOM      3  C   UNL     1      -1.136  -1.395   0.845  0.00  0.00    -0.045 A 
ATOM      4  C   UNL     1      -1.065  -2.392  -0.110  0.00  0.00    +0.004 A 
ATOM      5  C   UNL     1       0.164  -2.884  -0.506  0.00  0.00    +0.000 A 
ATOM      6  C   UNL     1       1.323  -2.378   0.052  0.00  0.00    +0.000 A 
ATOM      7  C   UNL     1       1.253  -1.380   1.006  0.00  0.00    +0.006 A 
ATOM      8  C   UNL     1       0.023  -0.885   1.399  0.00  0.00    -0.015 A 
ENDBRANCH   1   8
BRANCH   1   9
ATOM      9  C   UNL     1       1.290   0.880   2.555  0.00  0.00    +0.238 C 
ATOM     10  O   UNL     1       2.034   0.589   3.467  0.00  0.00    -0.273 OA
ATOM     11  N   UNL     1       1.663   1.806   1.650  0.00  0.00    -0.311 N 
ATOM     12  H   UNL     1       1.040   2.091   0.963  0.00  0.00    +0.149 HD
BRANCH  11  13
ATOM     13  C   UNL     1       3.009   2.382   1.703  0.00  0.00    +0.073 C 
ATOM     14  C   UNL     1       3.024   3.552   2.689  0.00  0.00    +0.022 C 
ATOM     15  C   UNL     1       4.430   4.153   2.745  0.00  0.00    +0.002 C 
ATOM     16  C   UNL     1       4.826   4.653   1.354  0.00  0.00    +0.000 C 
ATOM     17  C   UNL     1       4.811   3.483   0.368  0.00  0.00    +0.002 C 
ATOM     18  C   UNL     1       3.405   2.882   0.313  0.00  0.00    +0.022 C 
ENDBRANCH  11  13
ENDBRANCH   1   9
BRANCH   1  19
ATOM     19  N   UNL     1      -0.427  -0.372   3.728  0.00  0.00    -0.285 N 
ATOM     20  C   UNL     1       0.351  -1.481   4.286  0.00  0.00    +0.133 C 
ATOM     21  C   UNL     1      -1.487   0.115   4.403  0.00  0.00    +0.254 C 
ATOM     22  O   UNL     1      -2.132   1.036   3.940  0.00  0.00    -0.270 OA
BRANCH  21  23
ATOM     23  C   UNL     1      -1.862  -0.467   5.703  0.00  0.00    +0.119 A 
ATOM     24  C   UNL     1      -1.323   0.050   6.890  0.00  0.00    +0.133 A 
ATOM     25  C   UNL     1      -1.684  -0.505   8.107  0.00  0.00    +0.046 A 
ATOM     26  C   UNL     1      -2.571  -1.564   8.154  0.00  0.00    +0.007 A 
ATOM     27  C   UNL     1      -3.108  -2.081   6.990  0.00  0.00    +0.046 A 
ATOM     28  C   UNL     1      -2.766  -1.537   5.762  0.00  0.00    +0.133 A 
BRANCH  28  29
ATOM     29  O   UNL     1      -3.299  -2.043   4.622  0.00  0.00    -0.506 OA
ATOM     30  H   UNL     1      -2.782  -2.760   4.230  0.00  0.00    +0.292 HD
ENDBRANCH  28  29
BRANCH  24  31
ATOM     31  O   UNL     1      -0.452   1.088   6.847  0.00  0.00    -0.506 OA
ATOM     32  H   UNL     1      -0.873   1.958   6.893  0.00  0.00    +0.292 HD
ENDBRANCH  24  31
ENDBRANCH  21  23
ENDBRANCH   1  19
TORSDOF 7
