REMARK  Name = ZINC35912522
REMARK  11 active torsions:
REMARK  status: ('A' for Active; 'I' for Inactive)
REMARK    1  A    between atoms: C_1  and  C_2
REMARK    2  A    between atoms: C_2  and  C_3
REMARK    3  A    between atoms: C_6  and  N_9
REMARK    4  A    between atoms: C_10  and  C_16
REMARK    5  A    between atoms: C_19  and  N_22
REMARK    6  A    between atoms: N_22  and  S_23
REMARK    7  A    between atoms: S_23  and  C_26
REMARK    8  A    between atoms: C_29  and  C_32
REMARK    9  A    between atoms: C_32  and  C_33
REMARK   10  A    between atoms: C_32  and  C_34
REMARK   11  A    between atoms: C_32  and  C_35
REMARK                            x       y       z     vdW  Elec       q    Type
REMARK                         _______ _______ _______ _____ _____    ______ ____
ROOT
ATOM      1  C   UNL     1       0.620  -2.640   5.558  0.00  0.00    -0.017 A 
ATOM      2  C   UNL     1       0.684  -3.975   5.202  0.00  0.00    +0.008 A 
ATOM      3  C   UNL     1      -0.478  -4.706   5.047  0.00  0.00    +0.025 A 
ATOM      4  C   UNL     1      -1.711  -4.098   5.247  0.00  0.00    +0.048 A 
ATOM      5  C   UNL     1      -1.771  -2.757   5.604  0.00  0.00    +0.025 A 
ATOM      6  C   UNL     1      -0.605  -2.034   5.764  0.00  0.00    +0.008 A 
ENDROOT
BRANCH   1   8
ATOM      7  N   UNL     1       2.954  -2.353   4.840  0.00  0.00    -0.254 N 
ATOM      8  C   UNL     1       1.890  -1.846   5.726  0.00  0.00    +0.170 C 
ATOM      9  S   UNL     1       2.636  -2.133   7.388  0.00  0.00    -0.124 S 
ATOM     10  C   UNL     1       4.384  -2.263   6.811  0.00  0.00    +0.167 C 
ATOM     11  C   UNL     1       4.166  -2.565   5.337  0.00  0.00    +0.231 C 
ATOM     12  O   UNL     1       5.067  -2.981   4.640  0.00  0.00    -0.274 OA
BRANCH   7  16
ATOM     13  C   UNL     1       2.158  -3.125   0.824  0.00  0.00    -0.048 A 
ATOM     14  C   UNL     1       2.587  -4.147   1.651  0.00  0.00    +0.005 A 
ATOM     15  C   UNL     1       2.851  -3.894   2.983  0.00  0.00    +0.024 A 
ATOM     16  C   UNL     1       2.687  -2.612   3.491  0.00  0.00    +0.038 A 
ATOM     17  C   UNL     1       2.257  -1.588   2.657  0.00  0.00    +0.024 A 
ATOM     18  C   UNL     1       1.999  -1.846   1.325  0.00  0.00    +0.005 A 
BRANCH  13  20
ATOM     19  C   UNL     1       3.145  -3.199  -1.450  0.00  0.00    +0.009 C 
ATOM     20  C   UNL     1       1.871  -3.405  -0.629  0.00  0.00    +0.032 C 
ENDBRANCH  13  20
ENDBRANCH   7  16
ENDBRANCH   1   8
BRANCH   4  21
ATOM     21  N   UNL     1      -2.887  -4.834   5.090  0.00  0.00    -0.216 N 
ATOM     22  H   UNL     1      -3.205  -5.057   4.201  0.00  0.00    +0.174 HD
BRANCH  21  23
ATOM     23  S   UNL     1      -3.740  -5.327   6.422  0.00  0.00    +0.072 S 
ATOM     24  O   UNL     1      -3.905  -4.181   7.246  0.00  0.00    -0.150 OA
ATOM     25  O   UNL     1      -4.841  -6.085   5.941  0.00  0.00    -0.150 OA
BRANCH  23  26
ATOM     26  C   UNL     1      -2.711  -6.445   7.314  0.00  0.00    +0.109 A 
ATOM     27  C   UNL     1      -2.805  -7.805   7.084  0.00  0.00    +0.029 A 
ATOM     28  C   UNL     1      -1.998  -8.682   7.785  0.00  0.00    +0.006 A 
ATOM     29  C   UNL     1      -1.096  -8.199   8.714  0.00  0.00    -0.042 A 
ATOM     30  C   UNL     1      -1.001  -6.839   8.944  0.00  0.00    +0.006 A 
ATOM     31  C   UNL     1      -1.806  -5.962   8.241  0.00  0.00    +0.029 A 
BRANCH  29  32
ATOM     32  C   UNL     1      -0.217  -9.155   9.479  0.00  0.00    -0.013 C 
ATOM     33  C   UNL     1       0.652  -9.944   8.497  0.00  0.00    +0.015 C 
ATOM     34  C   UNL     1       0.681  -8.368  10.436  0.00  0.00    +0.015 C 
ATOM     35  C   UNL     1      -1.091 -10.123  10.279  0.00  0.00    +0.015 C 
ENDBRANCH  29  32
ENDBRANCH  23  26
ENDBRANCH  21  23
ENDBRANCH   4  21
TORSDOF 7
