REMARK  Name = ZINC09357888
REMARK  11 active torsions:
REMARK  status: ('A' for Active; 'I' for Inactive)
REMARK    1  A    between atoms: C_1  and  C_2
REMARK    2  A    between atoms: C_2  and  N_3
REMARK    3  A    between atoms: C_7  and  C_31
REMARK    4  A    between atoms: C_8  and  C_30
REMARK    5  A    between atoms: C_12  and  S_13
REMARK    6  A    between atoms: S_13  and  C_14
REMARK    7  A    between atoms: C_14  and  C_16
REMARK    8  A    between atoms: C_14  and  C_17
REMARK    9  A    between atoms: N_19  and  C_20
REMARK   10  A    between atoms: C_23  and  S_26
REMARK   11  A    between atoms: S_26  and  N_29
REMARK                            x       y       z     vdW  Elec       q    Type
REMARK                         _______ _______ _______ _____ _____    ______ ____
ROOT
ATOM      1  C   UNL     1       2.425  -4.236  -0.258  0.00  0.00    +0.137 C 
ATOM      2  C   UNL     1       2.227  -4.632  -1.723  0.00  0.00    +0.029 C 
ENDROOT
BRANCH   1   3
ATOM      3  C   UNL     1       2.410  -2.734  -0.137  0.00  0.00    +0.230 C 
ATOM      4  O   UNL     1       3.452  -2.114  -0.144  0.00  0.00    -0.274 OA
ATOM      5  N   UNL     1       1.237  -2.079  -0.020  0.00  0.00    -0.285 N 
ATOM      6  H   UNL     1       0.409  -2.578   0.062  0.00  0.00    +0.155 HD
BRANCH   5   7
ATOM      7  C   UNL     1       1.214  -0.680  -0.019  0.00  0.00    +0.034 A 
ATOM      8  C   UNL     1       2.137   0.031  -0.774  0.00  0.00    +0.025 A 
ATOM      9  C   UNL     1       2.111   1.412  -0.771  0.00  0.00    +0.030 A 
ATOM     10  C   UNL     1       1.168   2.086  -0.017  0.00  0.00    +0.105 A 
ATOM     11  C   UNL     1       0.248   1.380   0.736  0.00  0.00    +0.030 A 
ATOM     12  C   UNL     1       0.268  -0.001   0.737  0.00  0.00    +0.025 A 
BRANCH  10  13
ATOM     13  S   UNL     1       1.139   3.848  -0.015  0.00  0.00    +0.056 S 
ATOM     14  O   UNL     1       0.510   4.242   1.196  0.00  0.00    -0.153 OA
ATOM     15  O   UNL     1       2.447   4.276  -0.370  0.00  0.00    -0.153 OA
BRANCH  13  16
ATOM     16  N   UNL     1       0.136   4.322  -1.245  0.00  0.00    -0.204 NA
ATOM     17  H   UNL     1      -0.300   3.656  -1.799  0.00  0.00    +0.144 HD
ATOM     18  H   UNL     1      -0.015   5.265  -1.411  0.00  0.00    +0.144 HD
ENDBRANCH  13  16
ENDBRANCH  10  13
ENDBRANCH   5   7
ENDBRANCH   1   3
BRANCH   1  19
ATOM     19  S   UNL     1       4.015  -4.872   0.329  0.00  0.00    -0.075 S 
BRANCH  19  29
ATOM     20  N   UNL     1       4.689  -7.484   0.580  0.00  0.00    -0.288 N 
ATOM     21  C   UNL     1       4.491  -8.814   0.517  0.00  0.00    +0.263 A 
ATOM     22  O   UNL     1       5.375  -9.586   0.845  0.00  0.00    -0.267 OA
ATOM     23  C   UNL     1       3.231  -9.309   0.055  0.00  0.00    +0.075 A 
ATOM     24  C   UNL     1       2.785 -10.682  -0.104  0.00  0.00    -0.026 A 
ATOM     25  C   UNL     1       1.546 -10.920  -0.559  0.00  0.00    -0.008 A 
ATOM     26  S   UNL     1       0.877  -9.287  -0.811  0.00  0.00    -0.073 S 
ATOM     27  C   UNL     1       2.281  -8.332  -0.298  0.00  0.00    +0.117 A 
ATOM     28  N   UNL     1       2.539  -7.033  -0.207  0.00  0.00    -0.216 NA
ATOM     29  C   UNL     1       3.709  -6.604   0.222  0.00  0.00    +0.173 A 
ATOM     30  C   UNL     1       0.879 -12.250  -0.800  0.00  0.00    +0.052 C 
ATOM     31  C   UNL     1       3.704 -11.827   0.237  0.00  0.00    +0.045 C 
BRANCH  20  33
ATOM     32  C   UNL     1       5.938  -6.789   2.564  0.00  0.00    +0.027 C 
ATOM     33  C   UNL     1       5.980  -6.972   1.046  0.00  0.00    +0.124 C 
ENDBRANCH  20  33
ENDBRANCH  19  29
ENDBRANCH   1  19
TORSDOF 7
