REMARK  Name = ZINC40812150
REMARK  7 active torsions:
REMARK  status: ('A' for Active; 'I' for Inactive)
REMARK    1  A    between atoms: C_1  and  C_2
REMARK    2  A    between atoms: C_6  and  C_7
REMARK    3  A    between atoms: N_9  and  C_10
REMARK    4  A    between atoms: C_10  and  C_11
REMARK    5  A    between atoms: N_22  and  N_23
REMARK    6  A    between atoms: C_24  and  C_26
REMARK    7  A    between atoms: C_29  and  N_32
REMARK                            x       y       z     vdW  Elec       q    Type
REMARK                         _______ _______ _______ _____ _____    ______ ____
ROOT
ATOM      1  C   UNL     1      -0.018   1.503   0.010  0.00  0.00    +0.048 C 
ATOM      2  C   UNL     1       0.002  -0.004   0.002  0.00  0.00    +0.009 A 
ATOM      3  C   UNL     1       0.009  -0.838  -1.123  0.00  0.00    +0.042 A 
ATOM      4  C   UNL     1       0.027  -2.138  -0.672  0.00  0.00    +0.115 A 
ATOM      5  O   UNL     1       0.035  -2.112   0.658  0.00  0.00    -0.454 OA
ATOM      6  C   UNL     1       0.024  -0.830   1.091  0.00  0.00    +0.193 A 
ATOM      7  C   UNL     1       0.033  -3.327  -1.599  0.00  0.00    +0.075 C 
ATOM      8  C   UNL     1      -0.491  -2.903  -2.974  0.00  0.00    +0.014 C 
ATOM      9  C   UNL     1       0.280  -1.685  -3.494  0.00  0.00    +0.058 C 
ATOM     10  C   UNL     1       0.000  -0.512  -2.566  0.00  0.00    +0.070 C 
ATOM     11  N   UNL     1      -0.228   0.686  -3.008  0.00  0.00    -0.184 NA
ENDROOT
BRANCH   6  12
ATOM     12  C   UNL     1       0.032  -0.399   2.493  0.00  0.00    +0.280 C 
ATOM     13  O   UNL     1       0.018   0.786   2.766  0.00  0.00    -0.267 OA
ATOM     14  N   UNL     1       0.054  -1.317   3.480  0.00  0.00    -0.305 N 
ATOM     15  H   UNL     1       0.065  -2.263   3.263  0.00  0.00    +0.149 HD
BRANCH  14  16
ATOM     16  C   UNL     1       0.061  -0.887   4.881  0.00  0.00    +0.141 C 
BRANCH  16  17
ATOM     17  C   UNL     1       0.087  -2.098   5.778  0.00  0.00    -0.012 A 
ATOM     18  C   UNL     1      -1.081  -2.549   6.363  0.00  0.00    +0.006 A 
ATOM     19  C   UNL     1      -1.058  -3.659   7.186  0.00  0.00    +0.000 A 
ATOM     20  C   UNL     1       0.134  -4.319   7.424  0.00  0.00    +0.001 A 
ATOM     21  C   UNL     1       1.302  -3.869   6.840  0.00  0.00    +0.020 A 
ATOM     22  C   UNL     1       1.278  -2.761   6.011  0.00  0.00    +0.046 A 
ATOM     23 CL   UNL     1       2.745  -2.198   5.271  0.00  0.00    -0.083 Cl
ENDBRANCH  16  17
ENDBRANCH  14  16
ENDBRANCH   6  12
BRANCH  11  24
ATOM     24  N   UNL     1      -0.223   0.938  -4.386  0.00  0.00    -0.203 N 
ATOM     25  C   UNL     1      -0.460   2.183  -4.845  0.00  0.00    +0.263 C 
ATOM     26  O   UNL     1      -0.678   3.088  -4.062  0.00  0.00    -0.268 OA
ATOM     27  H   UNL     1      -0.050   0.216  -5.010  0.00  0.00    +0.178 HD
BRANCH  25  28
ATOM     28  C   UNL     1      -0.455   2.448  -6.299  0.00  0.00    +0.038 A 
ATOM     29  C   UNL     1      -0.211   1.410  -7.200  0.00  0.00    +0.015 A 
ATOM     30  C   UNL     1      -0.209   1.664  -8.556  0.00  0.00    +0.033 A 
ATOM     31  C   UNL     1      -0.447   2.945  -9.023  0.00  0.00    +0.126 A 
ATOM     32  C   UNL     1      -0.689   3.978  -8.135  0.00  0.00    +0.033 A 
ATOM     33  C   UNL     1      -0.700   3.736  -6.777  0.00  0.00    +0.015 A 
BRANCH  31  34
ATOM     34  N   UNL     1      -0.442   3.210 -10.479  0.00  0.00    +0.056 N 
ATOM     35  O   UNL     1      -0.230   2.309 -11.257  0.00  0.00    -0.126 OA
ATOM     36  O   UNL     1      -0.649   4.328 -10.890  0.00  0.00    -0.126 OA
ENDBRANCH  31  34
ENDBRANCH  25  28
ENDBRANCH  11  24
TORSDOF 6
