REMARK  Name = ZINC12058333
REMARK  9 active torsions:
REMARK  status: ('A' for Active; 'I' for Inactive)
REMARK    1  A    between atoms: C_1  and  N_2
REMARK    2  A    between atoms: N_2  and  C_3
REMARK    3  A    between atoms: C_3  and  C_4
REMARK    4  A    between atoms: C_7  and  O_14
REMARK    5  A    between atoms: O_14  and  C_15
REMARK    6  A    between atoms: C_16  and  C_18
REMARK    7  A    between atoms: C_18  and  C_19
REMARK    8  A    between atoms: C_26  and  C_27
REMARK    9  A    between atoms: C_26  and  N_60
REMARK                            x       y       z     vdW  Elec       q    Type
REMARK                         _______ _______ _______ _____ _____    ______ ____
ROOT
ATOM      1  C   UNL     1       3.453  -4.393  -0.950  0.00  0.00    +0.090 C 
ENDROOT
BRANCH   1   2
ATOM      2  C   UNL     1       2.336  -3.826  -1.829  0.00  0.00    +0.028 C 
ATOM      3  C   UNL     1       2.277  -2.334  -1.659  0.00  0.00    +0.200 C 
ATOM      4  O   UNL     1       3.317  -1.711  -1.628  0.00  0.00    -0.278 OA
ATOM      5  N   UNL     1       1.126  -1.664  -1.540  0.00  0.00    -0.318 N 
ATOM      6  C   UNL     1      -0.177  -2.322  -1.529  0.00  0.00    +0.085 C 
ATOM      7  C   UNL     1      -0.058  -3.733  -2.108  0.00  0.00    -0.058 C 
ATOM      8  H   UNL     1       1.158  -0.698  -1.458  0.00  0.00    +0.149 HD
ATOM      9  N   UNL     1       1.051  -4.419  -1.414  0.00  0.00    +0.391 N 
ATOM     10  H   UNL     1       0.938  -4.300  -0.401  0.00  0.00    -0.080 HD
BRANCH   9  11
ATOM     11  C   UNL     1       1.034  -5.865  -1.734  0.00  0.00    -0.042 C 
BRANCH  11  12
ATOM     12  C   UNL     1      -0.106  -6.515  -0.993  0.00  0.00    -0.061 A 
ATOM     13  C   UNL     1      -1.351  -6.610  -1.586  0.00  0.00    +0.002 A 
ATOM     14  C   UNL     1      -2.397  -7.207  -0.907  0.00  0.00    +0.003 A 
ATOM     15  C   UNL     1      -2.199  -7.709   0.365  0.00  0.00    +0.038 A 
ATOM     16  C   UNL     1      -0.953  -7.614   0.960  0.00  0.00    +0.124 A 
ATOM     17  C   UNL     1       0.095  -7.017   0.279  0.00  0.00    +0.040 A 
ATOM     18  F   UNL     1      -0.758  -8.105   2.203  0.00  0.00    -0.205 F 
ENDBRANCH  11  12
ENDBRANCH   9  11
ENDBRANCH   1   2
BRANCH   1  21
ATOM     19  C   UNL     1       5.322  -5.046   1.078  0.00  0.00    +0.132 C 
ATOM     20  N   UNL     1       4.063  -4.396   1.448  0.00  0.00    -0.300 N 
ATOM     21  C   UNL     1       3.163  -4.079   0.496  0.00  0.00    +0.215 C 
ATOM     22  O   UNL     1       2.121  -3.540   0.802  0.00  0.00    -0.276 OA
BRANCH  20  23
ATOM     23  C   UNL     1       3.782  -4.090   2.852  0.00  0.00    +0.143 C 
BRANCH  23  24
ATOM     24  C   UNL     1       3.168  -5.296   3.516  0.00  0.00    -0.021 A 
ATOM     25  C   UNL     1       3.011  -6.455   2.818  0.00  0.00    +0.009 A 
ATOM     26  C   UNL     1       2.452  -7.580   3.416  0.00  0.00    +0.048 A 
ATOM     27  C   UNL     1       2.034  -7.552   4.716  0.00  0.00    +0.146 A 
ATOM     28  C   UNL     1       2.176  -6.367   5.468  0.00  0.00    +0.113 A 
ATOM     29  C   UNL     1       2.751  -5.228   4.855  0.00  0.00    +0.009 A 
ATOM     30  C   UNL     1       2.892  -4.046   5.607  0.00  0.00    +0.012 A 
ATOM     31  C   UNL     1       2.463  -4.053   6.904  0.00  0.00    +0.020 A 
ATOM     32  C   UNL     1       1.906  -5.209   7.446  0.00  0.00    +0.111 A 
ATOM     33  N   UNL     1       1.777  -6.307   6.742  0.00  0.00    -0.251 NA
BRANCH  27  34
ATOM     34  O   UNL     1       1.486  -8.659   5.281  0.00  0.00    -0.493 OA
ATOM     35  C   UNL     1       1.375  -9.821   4.457  0.00  0.00    +0.277 C 
ENDBRANCH  27  34
ENDBRANCH  23  24
ENDBRANCH  20  23
ENDBRANCH   1  21
TORSDOF 7
