REMARK  Name = ZINC38597656
REMARK  7 active torsions:
REMARK  status: ('A' for Active; 'I' for Inactive)
REMARK    1  A    between atoms: C_10  and  C_11
REMARK    2  A    between atoms: C_11  and  C_12
REMARK    3  A    between atoms: N_14  and  C_15
REMARK    4  A    between atoms: C_15  and  C_16
REMARK    5  A    between atoms: C_16  and  C_18
REMARK    6  A    between atoms: C_16  and  N_23
REMARK    7  A    between atoms: N_26  and  C_29
REMARK                            x       y       z     vdW  Elec       q    Type
REMARK                         _______ _______ _______ _____ _____    ______ ____
ROOT
ATOM      1  C   UNL     1       8.106   2.362   2.834  0.00  0.00    +0.017 C 
ENDROOT
BRANCH   1   2
ATOM      2  N   UNL     1       7.877   3.540   1.986  0.00  0.00    +0.389 N 
ATOM      3  C   UNL     1       9.149   4.240   1.770  0.00  0.00    -0.059 C 
ATOM      4  C   UNL     1       8.893   5.530   0.983  0.00  0.00    +0.086 C 
ATOM      5  N   UNL     1       8.171   5.187  -0.252  0.00  0.00    -0.333 N 
ATOM      6  C   UNL     1       6.970   4.345  -0.141  0.00  0.00    +0.086 C 
ATOM      7  C   UNL     1       7.316   3.112   0.699  0.00  0.00    -0.059 C 
ATOM      8  H   UNL     1       7.227   4.161   2.445  0.00  0.00    -0.081 HD
BRANCH   5   9
ATOM      9  C   UNL     1       8.614   5.647  -1.496  0.00  0.00    +0.030 A 
ATOM     10  C   UNL     1       7.989   5.218  -2.659  0.00  0.00    +0.026 A 
ATOM     11  C   UNL     1       8.429   5.675  -3.886  0.00  0.00    +0.040 A 
ATOM     12  C   UNL     1       9.492   6.559  -3.957  0.00  0.00    +0.124 A 
ATOM     13  C   UNL     1      10.116   6.988  -2.799  0.00  0.00    +0.040 A 
ATOM     14  C   UNL     1       9.677   6.539  -1.569  0.00  0.00    +0.026 A 
ATOM     15  F   UNL     1       9.920   7.004  -5.159  0.00  0.00    -0.205 F 
ENDBRANCH   5   9
ENDBRANCH   1   2
BRANCH   1  16
ATOM     16  C   UNL     1       8.586   2.806   4.192  0.00  0.00    +0.093 A 
ATOM     17  C   UNL     1       9.548   2.212   4.920  0.00  0.00    +0.043 A 
ATOM     18  C   UNL     1       9.674   2.953   6.117  0.00  0.00    +0.041 A 
ATOM     19  C   UNL     1       8.781   3.957   6.049  0.00  0.00    +0.195 A 
ATOM     20  O   UNL     1       8.129   3.866   4.878  0.00  0.00    -0.469 OA
ENDBRANCH   1  16
BRANCH   1  21
ATOM     21  C   UNL     1       6.800   1.580   2.985  0.00  0.00    +0.096 C 
BRANCH  21  24
ATOM     22  C   UNL     1       4.483   2.028   3.590  0.00  0.00    +0.217 C 
ATOM     23  O   UNL     1       4.213   0.886   3.284  0.00  0.00    -0.275 OA
ATOM     24  N   UNL     1       5.750   2.474   3.477  0.00  0.00    -0.316 N 
ATOM     25  H   UNL     1       5.965   3.388   3.722  0.00  0.00    +0.149 HD
BRANCH  22  26
ATOM     26  C   UNL     1       3.402   2.948   4.096  0.00  0.00    +0.131 C 
BRANCH  26  36
ATOM     27  C   UNL     1       1.028  -0.151   7.407  0.00  0.00    +0.001 A 
ATOM     28  C   UNL     1       2.248   0.523   7.396  0.00  0.00    +0.001 A 
ATOM     29  C   UNL     1       2.612   1.297   6.338  0.00  0.00    +0.009 A 
ATOM     30  C   UNL     1       1.747   1.421   5.237  0.00  0.00    -0.014 A 
ATOM     31  C   UNL     1       0.506   0.735   5.248  0.00  0.00    -0.018 A 
ATOM     32  C   UNL     1       0.165  -0.054   6.359  0.00  0.00    +0.008 A 
ATOM     33  C   UNL     1      -0.358   0.859   4.147  0.00  0.00    +0.008 A 
ATOM     34  C   UNL     1       0.006   1.633   3.088  0.00  0.00    +0.001 A 
ATOM     35  C   UNL     1       1.225   2.306   3.078  0.00  0.00    +0.005 A 
ATOM     36  C   UNL     1       2.088   2.211   4.126  0.00  0.00    -0.031 A 
ENDBRANCH  26  36
ENDBRANCH  22  26
ENDBRANCH  21  24
ENDBRANCH   1  21
TORSDOF 7
