REMARK  Name = ZINC41025607
REMARK  6 active torsions:
REMARK  status: ('A' for Active; 'I' for Inactive)
REMARK    1  A    between atoms: C_1  and  C_2
REMARK    2  A    between atoms: C_5  and  C_8
REMARK    3  A    between atoms: C_10  and  N_21
REMARK    4  A    between atoms: N_11  and  C_13
REMARK    5  A    between atoms: C_22  and  C_24
REMARK    6  A    between atoms: C_26  and  C_29
REMARK                            x       y       z     vdW  Elec       q    Type
REMARK                         _______ _______ _______ _____ _____    ______ ____
ROOT
ATOM      1  C   UNL     1       0.059  -4.256  -0.021  0.00  0.00    +0.095 A 
ATOM      2  C   UNL     1       0.070  -5.088   1.114  0.00  0.00    +0.073 A 
ATOM      3  C   UNL     1       0.087  -6.377   0.683  0.00  0.00    +0.124 A 
ATOM      4  N   UNL     1       0.087  -6.360  -0.675  0.00  0.00    -0.245 N 
ATOM      5  N   UNL     1       0.064  -5.022  -1.091  0.00  0.00    -0.169 NA
ENDROOT
BRANCH   1  10
ATOM      6  C   UNL     1      -0.018   1.503   0.010  0.00  0.00    +0.044 C 
ATOM      7  C   UNL     1       0.002  -0.004   0.002  0.00  0.00    -0.050 A 
ATOM      8  C   UNL     1       0.006  -0.686  -1.201  0.00  0.00    +0.004 A 
ATOM      9  C   UNL     1       0.024  -2.067  -1.214  0.00  0.00    +0.010 A 
ATOM     10  C   UNL     1       0.040  -2.772  -0.013  0.00  0.00    +0.002 A 
ATOM     11  C   UNL     1       0.036  -2.080   1.196  0.00  0.00    +0.010 A 
ATOM     12  C   UNL     1       0.023  -0.700   1.198  0.00  0.00    +0.004 A 
ENDBRANCH   1  10
BRANCH   4  13
ATOM     13  C   UNL     1       0.103  -7.534  -1.552  0.00  0.00    +0.132 C 
ATOM     14  C   UNL     1       1.338  -7.483  -2.466  0.00  0.00    +0.051 C 
ATOM     15  C   UNL     1       1.200  -8.529  -3.599  0.00  0.00    +0.168 C 
ATOM     16  S   UNL     1      -0.623  -8.669  -3.798  0.00  0.00    -0.029 S 
ATOM     17  O   UNL     1      -0.995  -8.110  -5.051  0.00  0.00    -0.174 OA
ATOM     18  O   UNL     1      -1.023  -9.994  -3.477  0.00  0.00    -0.174 OA
ATOM     19  C   UNL     1      -1.166  -7.534  -2.452  0.00  0.00    +0.192 C 
ENDBRANCH   4  13
BRANCH   3  20
ATOM     20  N   UNL     1       0.103  -7.513   1.491  0.00  0.00    -0.264 N 
ATOM     21  C   UNL     1       0.101  -7.386   2.833  0.00  0.00    +0.287 C 
ATOM     22  O   UNL     1       0.086  -6.280   3.339  0.00  0.00    -0.266 OA
ATOM     23  H   UNL     1       0.115  -8.395   1.087  0.00  0.00    +0.157 HD
BRANCH  21  24
ATOM     24  C   UNL     1       0.117  -8.588   3.687  0.00  0.00    +0.222 A 
ATOM     25  C   UNL     1       0.112  -8.603   5.046  0.00  0.00    +0.086 A 
ATOM     26  C   UNL     1       0.132  -9.954   5.465  0.00  0.00    +0.114 A 
ATOM     27  N   UNL     1       0.148 -10.710   4.394  0.00  0.00    -0.077 NA
ATOM     28  O   UNL     1       0.134  -9.866   3.258  0.00  0.00    -0.349 OA
BRANCH  26  29
ATOM     29  C   UNL     1       0.134 -10.431   6.870  0.00  0.00    +0.004 A 
ATOM     30  C   UNL     1       0.109  -9.515   7.920  0.00  0.00    +0.011 A 
ATOM     31  C   UNL     1       0.110  -9.964   9.225  0.00  0.00    +0.020 A 
ATOM     32  C   UNL     1       0.136 -11.322   9.492  0.00  0.00    +0.041 A 
ATOM     33  C   UNL     1       0.161 -12.236   8.452  0.00  0.00    +0.020 A 
ATOM     34  C   UNL     1       0.154 -11.797   7.144  0.00  0.00    +0.011 A 
ATOM     35 CL   UNL     1       0.137 -11.880  11.136  0.00  0.00    -0.084 Cl
ENDBRANCH  26  29
ENDBRANCH  21  24
ENDBRANCH   3  20
TORSDOF 5
