REMARK  Name = ZINC39582365
REMARK  8 active torsions:
REMARK  status: ('A' for Active; 'I' for Inactive)
REMARK    1  A    between atoms: C_6  and  C_7
REMARK    2  A    between atoms: C_7  and  O_8
REMARK    3  A    between atoms: O_8  and  C_9
REMARK    4  A    between atoms: C_12  and  C_15
REMARK    5  A    between atoms: N_16  and  N_17
REMARK    6  A    between atoms: C_18  and  C_20
REMARK    7  A    between atoms: C_21  and  C_31
REMARK    8  A    between atoms: C_31  and  N_32
REMARK                            x       y       z     vdW  Elec       q    Type
REMARK                         _______ _______ _______ _____ _____    ______ ____
ROOT
ATOM      1  N   UNL     1      -6.780  -3.100  -4.406  0.00  0.00    -0.202 N 
ATOM      2  C   UNL     1      -6.774  -3.736  -5.595  0.00  0.00    +0.284 C 
ATOM      3  O   UNL     1      -7.341  -4.806  -5.715  0.00  0.00    -0.267 OA
ATOM      4  H   UNL     1      -6.248  -2.299  -4.282  0.00  0.00    +0.178 HD
ENDROOT
BRANCH   2   5
ATOM      5  C   UNL     1      -6.080  -3.137  -6.745  0.00  0.00    +0.154 A 
ATOM      6  C   UNL     1      -6.544  -3.035  -8.031  0.00  0.00    +0.079 A 
ATOM      7  N   UNL     1      -5.586  -2.424  -8.729  0.00  0.00    -0.135 NA
ATOM      8  N   UNL     1      -4.595  -2.159  -7.956  0.00  0.00    -0.058 NA
ATOM      9  N   UNL     1      -4.835  -2.557  -6.756  0.00  0.00    -0.183 N 
ATOM     10  C   UNL     1      -3.979  -2.426  -5.658  0.00  0.00    +0.241 A 
ATOM     11  C   UNL     1      -2.682  -1.745  -5.658  0.00  0.00    +0.206 A 
ATOM     12  N   UNL     1      -2.175  -1.827  -4.459  0.00  0.00    -0.032 NA
ATOM     13  O   UNL     1      -3.091  -2.543  -3.649  0.00  0.00    -0.239 OA
ATOM     14  N   UNL     1      -4.202  -2.885  -4.458  0.00  0.00    -0.027 NA
ATOM     15  N   UNL     1      -2.091  -1.119  -6.750  0.00  0.00    -0.337 N 
ATOM     16  H   UNL     1      -2.545  -1.109  -7.607  0.00  0.00    +0.144 HD
ATOM     17  H   UNL     1      -1.226  -0.692  -6.655  0.00  0.00    +0.144 HD
BRANCH   6  18
ATOM     18  C   UNL     1      -7.873  -3.517  -8.553  0.00  0.00    -0.018 C 
BRANCH  18  19
ATOM     19  N   UNL     1      -8.869  -2.445  -8.421  0.00  0.00    +0.383 N 
ATOM     20  C   UNL     1      -9.084  -2.151  -6.999  0.00  0.00    -0.078 C 
ATOM     21  C   UNL     1     -10.060  -0.981  -6.858  0.00  0.00    -0.019 C 
ATOM     22  C   UNL     1     -11.394  -1.354  -7.511  0.00  0.00    -0.004 C 
ATOM     23  C   UNL     1     -11.147  -1.731  -8.975  0.00  0.00    -0.019 C 
ATOM     24  C   UNL     1     -10.131  -2.873  -9.037  0.00  0.00    -0.078 C 
ATOM     25  H   UNL     1      -8.533  -1.616  -8.887  0.00  0.00    -0.081 HD
ENDBRANCH  18  19
ENDBRANCH   6  18
ENDBRANCH   2   5
BRANCH   1  27
ATOM     26  C   UNL     1      -7.666  -2.916  -2.250  0.00  0.00    +0.138 C 
ATOM     27  N   UNL     1      -7.556  -3.596  -3.351  0.00  0.00    -0.187 NA
BRANCH  26  31
ATOM     28  C   UNL     1      -6.601   1.193  -2.179  0.00  0.00    +0.121 A 
ATOM     29  C   UNL     1      -6.774   0.544  -3.394  0.00  0.00    +0.046 A 
ATOM     30  C   UNL     1      -7.120  -0.790  -3.422  0.00  0.00    +0.013 A 
ATOM     31  C   UNL     1      -7.296  -1.489  -2.225  0.00  0.00    -0.005 A 
ATOM     32  C   UNL     1      -7.120  -0.832  -1.005  0.00  0.00    +0.013 A 
ATOM     33  C   UNL     1      -6.769   0.500  -0.987  0.00  0.00    +0.046 A 
BRANCH  28  34
ATOM     34  O   UNL     1      -6.261   2.508  -2.156  0.00  0.00    -0.487 OA
BRANCH  34  35
ATOM     35  C   UNL     1      -6.104   3.159  -3.418  0.00  0.00    +0.264 C 
BRANCH  35  41
ATOM     36  C   UNL     1      -4.397   4.963  -3.104  0.00  0.00    +0.010 A 
ATOM     37  C   UNL     1      -4.052   6.286  -2.900  0.00  0.00    +0.039 A 
ATOM     38  C   UNL     1      -5.040   7.249  -2.787  0.00  0.00    +0.123 A 
ATOM     39  C   UNL     1      -6.373   6.886  -2.879  0.00  0.00    +0.039 A 
ATOM     40  C   UNL     1      -6.716   5.563  -3.083  0.00  0.00    +0.010 A 
ATOM     41  C   UNL     1      -5.729   4.602  -3.196  0.00  0.00    -0.010 A 
ATOM     42  F   UNL     1      -4.704   8.542  -2.587  0.00  0.00    -0.205 F 
ENDBRANCH  35  41
ENDBRANCH  34  35
ENDBRANCH  28  34
ENDBRANCH  26  31
ENDBRANCH   1  27
TORSDOF 8
