REMARK  Name = ZINC58988606
REMARK  10 active torsions:
REMARK  status: ('A' for Active; 'I' for Inactive)
REMARK    1  A    between atoms: C_1  and  N_2
REMARK    2  A    between atoms: N_2  and  C_3
REMARK    3  A    between atoms: N_2  and  C_4
REMARK    4  A    between atoms: C_7  and  C_10
REMARK    5  A    between atoms: N_11  and  N_12
REMARK    6  A    between atoms: C_13  and  C_15
REMARK    7  A    between atoms: C_15  and  S_16
REMARK    8  A    between atoms: S_16  and  C_17
REMARK    9  A    between atoms: C_20  and  C_23
REMARK   10  A    between atoms: N_21  and  N_22
REMARK                            x       y       z     vdW  Elec       q    Type
REMARK                         _______ _______ _______ _____ _____    ______ ____
ROOT
ATOM      1  C   UNL     1      -9.649  -3.097   0.118  0.00  0.00    +0.174 C 
ENDROOT
BRANCH   1   3
ATOM      2  N   UNL     1      -7.178  -2.988   0.103  0.00  0.00    -0.206 N 
ATOM      3  C   UNL     1      -8.353  -2.334   0.203  0.00  0.00    +0.242 C 
ATOM      4  O   UNL     1      -8.365  -1.132   0.361  0.00  0.00    -0.273 OA
ATOM      5  H   UNL     1      -7.168  -3.950  -0.024  0.00  0.00    +0.177 HD
BRANCH   2   7
ATOM      6  C   UNL     1      -4.842  -2.909   0.085  0.00  0.00    +0.138 C 
ATOM      7  N   UNL     1      -5.973  -2.279   0.181  0.00  0.00    -0.188 NA
BRANCH   6  11
ATOM      8  C   UNL     1      -1.188  -0.760   0.323  0.00  0.00    +0.029 A 
ATOM      9  C   UNL     1      -1.171  -2.139   0.142  0.00  0.00    +0.024 A 
ATOM     10  C   UNL     1      -2.355  -2.840   0.065  0.00  0.00    +0.011 A 
ATOM     11  C   UNL     1      -3.573  -2.163   0.168  0.00  0.00    -0.005 A 
ATOM     12  C   UNL     1      -3.586  -0.777   0.350  0.00  0.00    +0.011 A 
ATOM     13  C   UNL     1      -2.399  -0.084   0.432  0.00  0.00    +0.024 A 
BRANCH   8  15
ATOM     14  C   UNL     1      -0.003   1.397   0.598  0.00  0.00    +0.129 C 
ATOM     15  N   UNL     1       0.012  -0.054   0.401  0.00  0.00    -0.336 N 
ATOM     16  C   UNL     1       1.289  -0.764   0.286  0.00  0.00    +0.129 C 
ENDBRANCH   8  15
ENDBRANCH   6  11
ENDBRANCH   2   7
ENDBRANCH   1   3
BRANCH   1  17
ATOM     17  S   UNL     1     -11.041  -1.945   0.286  0.00  0.00    -0.075 S 
BRANCH  17  18
ATOM     18  C   UNL     1     -12.465  -2.976   0.167  0.00  0.00    +0.209 A 
ATOM     19  N   UNL     1     -12.472  -4.280   0.002  0.00  0.00    -0.121 NA
ATOM     20  N   UNL     1     -13.681  -4.713  -0.043  0.00  0.00    -0.127 NA
ATOM     21  C   UNL     1     -14.520  -3.712   0.092  0.00  0.00    +0.183 A 
ATOM     22  N   UNL     1     -13.767  -2.570   0.236  0.00  0.00    -0.224 N 
BRANCH  21  23
ATOM     23  C   UNL     1     -15.996  -3.798   0.093  0.00  0.00    +0.035 A 
ATOM     24  C   UNL     1     -16.750  -2.920  -0.688  0.00  0.00    +0.013 A 
ATOM     25  C   UNL     1     -18.126  -3.005  -0.682  0.00  0.00    +0.001 A 
ATOM     26  C   UNL     1     -18.761  -3.958   0.096  0.00  0.00    +0.001 A 
ATOM     27  C   UNL     1     -18.021  -4.831   0.872  0.00  0.00    +0.016 A 
ATOM     28  C   UNL     1     -16.642  -4.760   0.872  0.00  0.00    +0.029 A 
ATOM     29 BR   UNL     1     -15.631  -5.960   1.927  0.00  0.00    -0.050 Br
ENDBRANCH  21  23
BRANCH  22  30
ATOM     30  N   UNL     1     -14.226  -1.295   0.409  0.00  0.00    -0.295 N 
ATOM     31  H   UNL     1     -14.439  -0.864  -0.477  0.00  0.00    +0.163 HD
ATOM     32  H   UNL     1     -15.028  -1.280   1.021  0.00  0.00    +0.163 HD
ENDBRANCH  22  30
ENDBRANCH  17  18
ENDBRANCH   1  17
TORSDOF 8
