REMARK  Name = ZINC39896796
REMARK  10 active torsions:
REMARK  status: ('A' for Active; 'I' for Inactive)
REMARK    1  A    between atoms: C_1  and  C_2
REMARK    2  A    between atoms: C_5  and  N_9
REMARK    3  A    between atoms: C_7  and  C_8
REMARK    4  A    between atoms: C_12  and  C_31
REMARK    5  A    between atoms: C_16  and  C_17
REMARK    6  A    between atoms: C_16  and  C_19
REMARK    7  A    between atoms: N_21  and  C_22
REMARK    8  A    between atoms: C_22  and  C_24
REMARK    9  A    between atoms: C_22  and  C_25
REMARK   10  A    between atoms: C_31  and  C_32
REMARK                            x       y       z     vdW  Elec       q    Type
REMARK                         _______ _______ _______ _____ _____    ______ ____
ROOT
ATOM      1  N   UNL     1      -0.325  -4.497  -0.414  0.00  0.00    -0.232 N 
ATOM      2  C   UNL     1      -0.499  -5.259   0.652  0.00  0.00    +0.238 C 
ATOM      3  O   UNL     1      -0.800  -4.797   1.732  0.00  0.00    -0.274 OA
ATOM      4  C   UNL     1      -0.299  -6.751   0.438  0.00  0.00    +0.143 C 
ATOM      5  S   UNL     1       0.124  -6.769  -1.354  0.00  0.00    -0.095 S 
ATOM      6  C   UNL     1       0.010  -5.010  -1.644  0.00  0.00    +0.098 C 
ATOM      7  C   UNL     1       0.214  -4.319  -2.839  0.00  0.00    +0.141 C 
ENDROOT
BRANCH   1  12
ATOM      8  C   UNL     1      -1.012   1.113   0.101  0.00  0.00    +0.044 C 
ATOM      9  C   UNL     1      -0.830  -0.377  -0.035  0.00  0.00    -0.047 A 
ATOM     10  C   UNL     1       0.369  -0.962   0.331  0.00  0.00    +0.005 A 
ATOM     11  C   UNL     1       0.539  -2.326   0.206  0.00  0.00    +0.024 A 
ATOM     12  C   UNL     1      -0.495  -3.112  -0.286  0.00  0.00    +0.042 A 
ATOM     13  C   UNL     1      -1.697  -2.522  -0.652  0.00  0.00    +0.027 A 
ATOM     14  C   UNL     1      -1.863  -1.157  -0.521  0.00  0.00    -0.046 A 
ATOM     15  C   UNL     1      -3.170  -0.516  -0.912  0.00  0.00    +0.044 C 
ENDBRANCH   1  12
BRANCH   7  16
ATOM     16  C   UNL     1       0.230  -2.856  -2.844  0.00  0.00    +0.257 C 
ATOM     17  O   UNL     1      -0.797  -2.237  -3.053  0.00  0.00    -0.269 OA
ATOM     18  N   UNL     1       1.382  -2.194  -2.617  0.00  0.00    -0.304 N 
ATOM     19  H   UNL     1       2.208  -2.686  -2.492  0.00  0.00    +0.150 HD
BRANCH  18  20
ATOM     20  C   UNL     1       1.385  -0.730  -2.560  0.00  0.00    +0.100 C 
ATOM     21  C   UNL     1       1.343  -0.164  -3.981  0.00  0.00    +0.033 C 
BRANCH  20  22
ATOM     22  C   UNL     1       2.638  -0.257  -1.868  0.00  0.00    -0.027 A 
ATOM     23  C   UNL     1       3.843  -0.890  -2.112  0.00  0.00    +0.005 A 
ATOM     24  C   UNL     1       4.992  -0.456  -1.478  0.00  0.00    +0.000 A 
ATOM     25  C   UNL     1       4.936   0.610  -0.599  0.00  0.00    +0.000 A 
ATOM     26  C   UNL     1       3.732   1.242  -0.355  0.00  0.00    +0.000 A 
ATOM     27  C   UNL     1       2.583   0.812  -0.994  0.00  0.00    +0.005 A 
ENDBRANCH  20  22
ENDBRANCH  18  20
ENDBRANCH   7  16
BRANCH   7  28
ATOM     28  C   UNL     1       0.409  -5.041  -4.059  0.00  0.00    +0.107 C 
ATOM     29  N   UNL     1       0.564  -5.614  -5.028  0.00  0.00    -0.191 NA
ENDBRANCH   7  28
BRANCH   4  30
ATOM     30  C   UNL     1       0.857  -7.283   1.287  0.00  0.00    +0.060 C 
BRANCH  30  31
ATOM     31  C   UNL     1       0.942  -8.780   1.138  0.00  0.00    -0.028 A 
ATOM     32  C   UNL     1       0.317  -9.603   2.057  0.00  0.00    +0.005 A 
ATOM     33  C   UNL     1       0.394 -10.976   1.921  0.00  0.00    +0.000 A 
ATOM     34  C   UNL     1       1.097 -11.528   0.866  0.00  0.00    +0.001 A 
ATOM     35  C   UNL     1       1.723 -10.707  -0.053  0.00  0.00    +0.020 A 
ATOM     36  C   UNL     1       1.641  -9.332   0.080  0.00  0.00    +0.044 A 
ATOM     37 CL   UNL     1       2.421  -8.300  -1.078  0.00  0.00    -0.083 Cl
ENDBRANCH  30  31
ENDBRANCH   4  30
TORSDOF 7
