REMARK  Name = ZINC38737913
REMARK  12 active torsions:
REMARK  status: ('A' for Active; 'I' for Inactive)
REMARK    1  A    between atoms: C_1  and  C_2
REMARK    2  A    between atoms: C_2  and  C_3
REMARK    3  A    between atoms: C_2  and  C_4
REMARK    4  A    between atoms: C_7  and  O_34
REMARK    5  A    between atoms: C_8  and  C_10
REMARK    6  A    between atoms: C_10  and  N_11
REMARK    7  A    between atoms: C_16  and  C_18
REMARK    8  A    between atoms: N_20  and  C_21
REMARK    9  A    between atoms: C_21  and  C_22
REMARK   10  A    between atoms: C_31  and  C_32
REMARK   11  A    between atoms: C_31  and  C_33
REMARK   12  A    between atoms: O_34  and  C_35
REMARK                            x       y       z     vdW  Elec       q    Type
REMARK                         _______ _______ _______ _____ _____    ______ ____
ROOT
ATOM      1  N   UNL     1       4.294  -4.191  -1.021  0.00  0.00    +0.390 N 
ATOM      2  C   UNL     1       3.699  -4.725   0.211  0.00  0.00    -0.077 C 
ATOM      3  C   UNL     1       3.093  -6.102  -0.066  0.00  0.00    -0.019 C 
ATOM      4  C   UNL     1       4.192  -7.049  -0.556  0.00  0.00    -0.003 C 
ATOM      5  C   UNL     1       4.856  -6.446  -1.798  0.00  0.00    -0.006 C 
ATOM      6  C   UNL     1       5.397  -5.056  -1.457  0.00  0.00    +0.020 C 
ATOM      7  H   UNL     1       3.591  -4.155  -1.743  0.00  0.00    -0.080 HD
ENDROOT
BRANCH   6   8
ATOM      8  C   UNL     1       6.051  -4.459  -2.676  0.00  0.00    +0.200 C 
ATOM      9  O   UNL     1       5.402  -3.773  -3.437  0.00  0.00    -0.278 OA
ATOM     10  N   UNL     1       7.356  -4.687  -2.921  0.00  0.00    -0.316 N 
ATOM     11  H   UNL     1       7.875  -5.236  -2.312  0.00  0.00    +0.149 HD
BRANCH  10  12
ATOM     12  C   UNL     1       7.992  -4.107  -4.106  0.00  0.00    +0.108 C 
BRANCH  12  13
ATOM     13  C   UNL     1       9.467  -4.517  -4.147  0.00  0.00    +0.010 C 
ATOM     14  C   UNL     1      10.212  -3.972  -2.936  0.00  0.00    +0.005 C 
ATOM     15  C   UNL     1      11.669  -3.642  -3.231  0.00  0.00    +0.004 C 
ATOM     16  C   UNL     1      11.936  -3.430  -4.721  0.00  0.00    -0.005 C 
ATOM     17  C   UNL     1      11.545  -4.674  -5.546  0.00  0.00    +0.008 C 
ATOM     18  C   UNL     1      10.113  -4.088  -5.464  0.00  0.00    -0.000 C 
ATOM     19  C   UNL     1      10.793  -2.718  -5.460  0.00  0.00    -0.029 C 
ATOM     20  C   UNL     1      11.196  -2.235  -6.867  0.00  0.00    +0.011 C 
ATOM     21  C   UNL     1      10.104  -1.603  -4.679  0.00  0.00    +0.011 C 
ENDBRANCH  12  13
ENDBRANCH  10  12
ENDBRANCH   6   8
BRANCH   1  22
ATOM     22  C   UNL     1       4.806  -2.837  -0.769  0.00  0.00    -0.038 C 
BRANCH  22  27
ATOM     23  C   UNL     1       2.398  -0.678   1.179  0.00  0.00    -0.044 A 
ATOM     24  C   UNL     1       1.548  -0.236   0.181  0.00  0.00    +0.007 A 
ATOM     25  C   UNL     1       1.750  -0.635  -1.126  0.00  0.00    +0.046 A 
ATOM     26  C   UNL     1       2.806  -1.479  -1.437  0.00  0.00    +0.121 A 
ATOM     27  C   UNL     1       3.657  -1.920  -0.434  0.00  0.00    -0.022 A 
ATOM     28  C   UNL     1       3.454  -1.514   0.871  0.00  0.00    +0.009 A 
BRANCH  23  30
ATOM     29  C   UNL     1       2.256   1.284   2.689  0.00  0.00    +0.012 C 
ATOM     30  C   UNL     1       2.175  -0.242   2.604  0.00  0.00    +0.013 C 
ATOM     31  C   UNL     1       0.793  -0.705   3.069  0.00  0.00    +0.012 C 
ENDBRANCH  23  30
BRANCH  26  32
ATOM     32  O   UNL     1       3.007  -1.873  -2.722  0.00  0.00    -0.495 OA
ATOM     33  C   UNL     1       2.091  -1.381  -3.702  0.00  0.00    +0.277 C 
ENDBRANCH  26  32
ENDBRANCH  22  27
ENDBRANCH   1  22
TORSDOF 7
