REMARK  Name = ZINC08790987
REMARK  6 active torsions:
REMARK  status: ('A' for Active; 'I' for Inactive)
REMARK    1  A    between atoms: C_1  and  C_2
REMARK    2  A    between atoms: C_16  and  C_18
REMARK    3  A    between atoms: C_18  and  C_19
REMARK    4  A    between atoms: N_27  and  C_30
REMARK    5  A    between atoms: C_30  and  C_31
REMARK    6  A    between atoms: C_31  and  C_32
REMARK                            x       y       z     vdW  Elec       q    Type
REMARK                         _______ _______ _______ _____ _____    ______ ____
ROOT
ATOM      1  C   UNL     1      -5.582  -0.826   3.305  0.00  0.00    +0.046 C 
ATOM      2  C   UNL     1      -4.430  -0.942   2.341  0.00  0.00    -0.028 A 
ATOM      3  C   UNL     1      -4.055  -2.181   1.863  0.00  0.00    +0.025 A 
ATOM      4  C   UNL     1      -3.001  -2.297   0.974  0.00  0.00    +0.042 A 
ATOM      5  C   UNL     1      -2.318  -1.164   0.565  0.00  0.00    +0.024 A 
ATOM      6  C   UNL     1      -2.687   0.073   1.042  0.00  0.00    -0.026 A 
ATOM      7  C   UNL     1      -3.747   0.202   1.935  0.00  0.00    +0.039 A 
ATOM      8  N   UNL     1      -3.934   1.544   2.273  0.00  0.00    -0.286 N 
ATOM      9  C   UNL     1      -3.049   2.351   1.656  0.00  0.00    +0.211 C 
ATOM     10  O   UNL     1      -2.973   3.557   1.761  0.00  0.00    -0.277 OA
ATOM     11  C   UNL     1      -2.174   1.466   0.811  0.00  0.00    +0.050 C 
ATOM     12  C   UNL     1      -2.243   1.857  -0.669  0.00  0.00    +0.088 C 
ATOM     13  C   UNL     1      -0.804   1.619  -1.206  0.00  0.00    +0.073 C 
ATOM     14  C   UNL     1      -0.013   1.086   0.008  0.00  0.00    -0.053 C 
ATOM     15  C   UNL     1      -0.971   0.508  -2.217  0.00  0.00    +0.224 C 
ATOM     16  O   UNL     1      -0.079   0.022  -2.878  0.00  0.00    -0.275 OA
ATOM     17  N   UNL     1      -2.276   0.151  -2.254  0.00  0.00    -0.241 N 
ATOM     18  C   UNL     1      -3.070   0.845  -1.429  0.00  0.00    +0.225 C 
ATOM     19  O   UNL     1      -4.266   0.686  -1.310  0.00  0.00    -0.275 OA
ATOM     20 CL   UNL     1      -2.535  -3.859   0.376  0.00  0.00    -0.084 Cl
ATOM     21  H   UNL     1      -4.620   1.859   2.882  0.00  0.00    +0.155 HD
ATOM     22  N   UNL     1      -0.766   1.574   1.164  0.00  0.00    +0.394 N 
ATOM     23  H   UNL     1      -0.562   0.999   1.990  0.00  0.00    -0.083 HD
ATOM     24  H   UNL     1      -0.523   2.552   1.360  0.00  0.00    -0.083 HD
ENDROOT
BRANCH  14  25
ATOM     25  C   UNL     1       1.415   1.637  -0.003  0.00  0.00    +0.020 C 
BRANCH  25  26
ATOM     26  C   UNL     1       2.193   1.038   1.141  0.00  0.00    -0.049 A 
ATOM     27  C   UNL     1       2.211   1.670   2.370  0.00  0.00    +0.003 A 
ATOM     28  C   UNL     1       2.921   1.118   3.420  0.00  0.00    +0.000 A 
ATOM     29  C   UNL     1       3.621  -0.060   3.238  0.00  0.00    +0.000 A 
ATOM     30  C   UNL     1       3.607  -0.689   2.007  0.00  0.00    +0.000 A 
ATOM     31  C   UNL     1       2.893  -0.140   0.958  0.00  0.00    +0.003 A 
ENDBRANCH  25  26
ENDBRANCH  14  25
BRANCH  17  32
ATOM     32  C   UNL     1      -2.779  -0.907  -3.134  0.00  0.00    +0.121 C 
BRANCH  32  33
ATOM     33  C   UNL     1      -3.183  -0.301  -4.479  0.00  0.00    +0.054 C 
BRANCH  33  34
ATOM     34  C   UNL     1      -3.700  -1.390  -5.385  0.00  0.00    -0.046 A 
ATOM     35  C   UNL     1      -2.830  -2.067  -6.218  0.00  0.00    +0.004 A 
ATOM     36  C   UNL     1      -3.304  -3.067  -7.046  0.00  0.00    +0.000 A 
ATOM     37  C   UNL     1      -4.649  -3.386  -7.045  0.00  0.00    +0.000 A 
ATOM     38  C   UNL     1      -5.520  -2.705  -6.215  0.00  0.00    +0.000 A 
ATOM     39  C   UNL     1      -5.046  -1.707  -5.385  0.00  0.00    +0.004 A 
ENDBRANCH  33  34
ENDBRANCH  32  33
ENDBRANCH  17  32
TORSDOF 5
