REMARK  Name = ZINC14550805
REMARK  7 active torsions:
REMARK  status: ('A' for Active; 'I' for Inactive)
REMARK    1  A    between atoms: C_1  and  C_2
REMARK    2  A    between atoms: C_4  and  C_37
REMARK    3  A    between atoms: C_6  and  N_8
REMARK    4  A    between atoms: N_8  and  S_9
REMARK    5  A    between atoms: S_9  and  C_12
REMARK    6  A    between atoms: C_25  and  C_28
REMARK    7  A    between atoms: C_31  and  N_34
REMARK                            x       y       z     vdW  Elec       q    Type
REMARK                         _______ _______ _______ _____ _____    ______ ____
ROOT
ATOM      1  C   UNL     1       3.087  -2.341  -2.527  0.00  0.00    +0.109 A 
ATOM      2  C   UNL     1       1.777  -2.782  -2.479  0.00  0.00    +0.030 A 
ATOM      3  C   UNL     1       0.769  -2.020  -3.033  0.00  0.00    +0.025 A 
ATOM      4  C   UNL     1       1.062  -0.807  -3.644  0.00  0.00    +0.031 A 
ATOM      5  C   UNL     1       2.392  -0.374  -3.700  0.00  0.00    -0.018 A 
ATOM      6  C   UNL     1       3.390  -1.139  -3.137  0.00  0.00    +0.034 A 
ATOM      7  C   UNL     1       2.666   0.902  -4.396  0.00  0.00    +0.049 C 
ATOM      8  C   UNL     1       3.845   1.740  -4.062  0.00  0.00    -0.023 C 
ATOM      9  C   UNL     1       3.533   3.014  -4.269  0.00  0.00    -0.030 C 
ATOM     10  C   UNL     1       2.080   3.127  -4.735  0.00  0.00    +0.033 C 
ATOM     11  C   UNL     1       1.464   1.858  -4.132  0.00  0.00    +0.029 C 
ATOM     12  C   UNL     1       0.287   1.242  -4.868  0.00  0.00    +0.105 C 
ATOM     13  N   UNL     1       0.021  -0.044  -4.186  0.00  0.00    -0.336 N 
ATOM     14  H   UNL     1      -0.892  -0.363  -4.114  0.00  0.00    +0.147 HD
ENDROOT
BRANCH  12  15
ATOM     15  C   UNL     1      -0.917   2.143  -4.771  0.00  0.00    -0.027 A 
ATOM     16  C   UNL     1      -1.693   2.138  -3.627  0.00  0.00    +0.008 A 
ATOM     17  C   UNL     1      -2.795   2.967  -3.535  0.00  0.00    +0.033 A 
ATOM     18  C   UNL     1      -3.126   3.795  -4.592  0.00  0.00    +0.126 A 
ATOM     19  C   UNL     1      -2.353   3.796  -5.738  0.00  0.00    +0.033 A 
ATOM     20  C   UNL     1      -1.249   2.970  -5.827  0.00  0.00    +0.008 A 
BRANCH  18  21
ATOM     21  N   UNL     1      -4.309   4.681  -4.496  0.00  0.00    +0.056 N 
ATOM     22  O   UNL     1      -4.600   5.410  -5.426  0.00  0.00    -0.126 OA
ATOM     23  O   UNL     1      -4.990   4.680  -3.486  0.00  0.00    -0.126 OA
ENDBRANCH  18  21
ENDBRANCH  12  15
BRANCH   1  24
ATOM     24  S   UNL     1       4.370  -3.313  -1.810  0.00  0.00    +0.072 S 
ATOM     25  O   UNL     1       5.382  -2.407  -1.393  0.00  0.00    -0.150 OA
ATOM     26  O   UNL     1       3.741  -4.218  -0.912  0.00  0.00    -0.150 OA
BRANCH  24  27
ATOM     27  N   UNL     1       5.027  -4.230  -3.023  0.00  0.00    -0.216 N 
ATOM     28  H   UNL     1       5.957  -4.111  -3.271  0.00  0.00    +0.174 HD
BRANCH  27  34
ATOM     29  C   UNL     1       2.797  -8.609  -3.059  0.00  0.00    +0.044 C 
ATOM     30  C   UNL     1       3.145  -7.306  -3.730  0.00  0.00    -0.048 A 
ATOM     31  C   UNL     1       2.686  -7.043  -5.008  0.00  0.00    +0.006 A 
ATOM     32  C   UNL     1       3.002  -5.848  -5.628  0.00  0.00    -0.048 A 
ATOM     33  C   UNL     1       3.778  -4.912  -4.972  0.00  0.00    +0.028 A 
ATOM     34  C   UNL     1       4.241  -5.173  -3.689  0.00  0.00    +0.049 A 
ATOM     35  C   UNL     1       3.926  -6.377  -3.071  0.00  0.00    +0.028 A 
ATOM     36  C   UNL     1       2.500  -5.566  -7.021  0.00  0.00    +0.044 C 
ENDBRANCH  27  34
ENDBRANCH  24  27
ENDBRANCH   1  24
TORSDOF 5
