REMARK  Name = ZINC00648652
REMARK  14 active torsions:
REMARK  status: ('A' for Active; 'I' for Inactive)
REMARK    1  A    between atoms: C_1  and  C_2
REMARK    2  A    between atoms: C_2  and  O_3
REMARK    3  A    between atoms: O_3  and  C_4
REMARK    4  A    between atoms: C_4  and  C_6
REMARK    5  A    between atoms: C_7  and  C_37
REMARK    6  A    between atoms: C_11  and  C_13
REMARK    7  A    between atoms: C_16  and  O_28
REMARK    8  A    between atoms: C_17  and  C_19
REMARK    9  A    between atoms: C_19  and  O_20
REMARK   10  A    between atoms: O_20  and  C_21
REMARK   11  A    between atoms: C_24  and  C_27
REMARK   12  A    between atoms: O_28  and  C_29
REMARK   13  A    between atoms: C_33  and  C_35
REMARK   14  A    between atoms: C_33  and  C_36
REMARK                            x       y       z     vdW  Elec       q    Type
REMARK                         _______ _______ _______ _____ _____    ______ ____
ROOT
ATOM      1  C   UNL     1       3.030   0.540   6.247  0.00  0.00    +0.065 C 
ATOM      2  C   UNL     1       4.025  -0.334   6.019  0.00  0.00    +0.016 C 
ATOM      3  N   UNL     1       3.746  -1.641   5.732  0.00  0.00    -0.321 N 
ATOM      4  C   UNL     1       2.530  -2.181   6.054  0.00  0.00    +0.016 C 
ATOM      5  C   UNL     1       1.465  -1.383   6.282  0.00  0.00    +0.024 C 
ATOM      6  C   UNL     1       1.592   0.116   6.185  0.00  0.00    +0.092 C 
ATOM      7  C   UNL     1       0.210  -1.924   6.612  0.00  0.00    +0.162 C 
ATOM      8  O   UNL     1      -0.725  -1.177   6.823  0.00  0.00    -0.292 OA
ATOM      9  C   UNL     1       0.004  -3.411   6.707  0.00  0.00    +0.086 C 
ATOM     10  C   UNL     1       0.994  -4.112   5.771  0.00  0.00    -0.023 C 
ATOM     11  C   UNL     1       2.412  -3.682   6.153  0.00  0.00    +0.058 C 
ATOM     12  C   UNL     1       0.706  -3.708   4.323  0.00  0.00    +0.011 C 
ATOM     13  C   UNL     1       0.860  -5.630   5.917  0.00  0.00    +0.011 C 
ATOM     14  C   UNL     1       5.457   0.130   6.079  0.00  0.00    +0.061 C 
ATOM     15  H   UNL     1       4.502  -2.269   5.239  0.00  0.00    +0.152 HD
ENDROOT
BRANCH   6  16
ATOM     16  C   UNL     1       0.994   0.581   4.882  0.00  0.00    -0.035 A 
ATOM     17  C   UNL     1       1.528   0.145   3.683  0.00  0.00    +0.008 A 
ATOM     18  C   UNL     1       0.978   0.564   2.488  0.00  0.00    +0.046 A 
ATOM     19  C   UNL     1      -0.103   1.433   2.490  0.00  0.00    +0.126 A 
ATOM     20  C   UNL     1      -0.637   1.870   3.694  0.00  0.00    +0.032 A 
ATOM     21  C   UNL     1      -0.087   1.443   4.887  0.00  0.00    +0.015 A 
BRANCH  19  22
ATOM     22  O   UNL     1      -0.642   1.852   1.315  0.00  0.00    -0.495 OA
ATOM     23  C   UNL     1      -0.041   1.363   0.114  0.00  0.00    +0.277 C 
ENDBRANCH  19  22
BRANCH  20  24
ATOM     24  C   UNL     1      -1.815   2.810   3.700  0.00  0.00    +0.268 C 
BRANCH  24  25
ATOM     25  O   UNL     1      -2.177   3.111   5.049  0.00  0.00    -0.487 OA
BRANCH  25  26
ATOM     26  C   UNL     1      -3.229   3.951   5.232  0.00  0.00    +0.121 A 
ATOM     27  C   UNL     1      -3.895   4.480   4.136  0.00  0.00    +0.046 A 
ATOM     28  C   UNL     1      -4.968   5.330   4.325  0.00  0.00    +0.007 A 
ATOM     29  C   UNL     1      -5.370   5.662   5.606  0.00  0.00    -0.050 A 
ATOM     30  C   UNL     1      -4.705   5.141   6.700  0.00  0.00    +0.007 A 
ATOM     31  C   UNL     1      -3.635   4.287   6.516  0.00  0.00    +0.046 A 
ATOM     32  C   UNL     1      -6.537   6.595   5.809  0.00  0.00    +0.044 C 
ENDBRANCH  25  26
ENDBRANCH  24  25
ENDBRANCH  20  24
ENDBRANCH   6  16
BRANCH   1  33
ATOM     33  C   UNL     1       3.344   1.886   6.550  0.00  0.00    +0.338 C 
ATOM     34  O   UNL     1       4.504   2.220   6.705  0.00  0.00    -0.245 OA
BRANCH  33  35
ATOM     35  O   UNL     1       2.357   2.799   6.665  0.00  0.00    -0.462 OA
BRANCH  35  37
ATOM     36  C   UNL     1       1.502   5.024   7.064  0.00  0.00    +0.048 C 
ATOM     37  C   UNL     1       2.747   4.139   6.973  0.00  0.00    +0.229 C 
ENDBRANCH  35  37
ENDBRANCH  33  35
ENDBRANCH   1  33
TORSDOF 8
