REMARK  Name = ZINC38649924
REMARK  10 active torsions:
REMARK  status: ('A' for Active; 'I' for Inactive)
REMARK    1  A    between atoms: C_1  and  O_2
REMARK    2  A    between atoms: O_2  and  C_3
REMARK    3  A    between atoms: C_6  and  C_9
REMARK    4  A    between atoms: C_9  and  O_11
REMARK    5  A    between atoms: O_11  and  C_12
REMARK    6  A    between atoms: C_19  and  N_33
REMARK    7  A    between atoms: C_20  and  C_31
REMARK    8  A    between atoms: C_21  and  C_23
REMARK    9  A    between atoms: C_28  and  O_29
REMARK   10  A    between atoms: O_29  and  C_30
REMARK                            x       y       z     vdW  Elec       q    Type
REMARK                         _______ _______ _______ _____ _____    ______ ____
ROOT
ATOM      1  C   UNL     1       3.255  -4.363   5.446  0.00  0.00    +0.135 A 
ATOM      2  C   UNL     1       3.718  -3.487   6.418  0.00  0.00    +0.047 A 
ATOM      3  C   UNL     1       4.350  -3.977   7.544  0.00  0.00    +0.012 A 
ATOM      4  C   UNL     1       4.525  -5.340   7.707  0.00  0.00    +0.008 A 
ATOM      5  C   UNL     1       4.065  -6.219   6.740  0.00  0.00    +0.138 A 
ATOM      6  C   UNL     1       3.424  -5.728   5.609  0.00  0.00    +0.093 A 
ATOM      7  O   UNL     1       4.227  -7.557   6.882  0.00  0.00    -0.441 OA
ATOM      8  C   UNL     1       5.148  -8.034   7.737  0.00  0.00    +0.199 C 
ATOM      9  C   UNL     1       5.658  -7.276   8.736  0.00  0.00    +0.098 C 
ATOM     10  C   UNL     1       5.217  -5.854   8.942  0.00  0.00    +0.101 C 
ENDROOT
BRANCH  10  11
ATOM     11  C   UNL     1       4.266  -5.791  10.110  0.00  0.00    +0.007 A 
ATOM     12  C   UNL     1       3.080  -6.499  10.075  0.00  0.00    +0.008 A 
ATOM     13  C   UNL     1       2.208  -6.441  11.146  0.00  0.00    +0.001 A 
ATOM     14  C   UNL     1       2.519  -5.675  12.254  0.00  0.00    +0.004 A 
ATOM     15  C   UNL     1       3.703  -4.965  12.293  0.00  0.00    +0.046 A 
ATOM     16  C   UNL     1       4.583  -5.025  11.222  0.00  0.00    +0.124 A 
BRANCH  16  17
ATOM     17  O   UNL     1       5.752  -4.332  11.261  0.00  0.00    -0.495 OA
ATOM     18  C   UNL     1       6.012  -3.566  12.438  0.00  0.00    +0.277 C 
ENDBRANCH  16  17
ENDBRANCH  10  11
BRANCH   8  19
ATOM     19  N   UNL     1       5.584  -9.327   7.593  0.00  0.00    -0.328 N 
ATOM     20  H   UNL     1       5.228  -9.883   6.882  0.00  0.00    +0.145 HD
ATOM     21  H   UNL     1       6.248  -9.686   8.202  0.00  0.00    +0.145 HD
ENDBRANCH   8  19
BRANCH   9  22
ATOM     22  C   UNL     1       6.639  -7.840   9.614  0.00  0.00    +0.101 C 
ATOM     23  N   UNL     1       7.416  -8.288  10.311  0.00  0.00    -0.191 NA
ENDBRANCH   9  22
BRANCH   1  24
ATOM     24  O   UNL     1       2.633  -3.882   4.337  0.00  0.00    -0.422 OA
BRANCH  24  25
ATOM     25  C   UNL     1       1.289  -3.970   4.278  0.00  0.00    +0.344 C 
ATOM     26  O   UNL     1       0.679  -4.547   5.156  0.00  0.00    -0.245 OA
BRANCH  25  30
ATOM     27  C   UNL     1      -0.810  -2.230   1.024  0.00  0.00    +0.120 A 
ATOM     28  C   UNL     1      -1.511  -2.890   2.027  0.00  0.00    +0.046 A 
ATOM     29  C   UNL     1      -0.834  -3.456   3.084  0.00  0.00    +0.018 A 
ATOM     30  C   UNL     1       0.560  -3.366   3.148  0.00  0.00    +0.060 A 
ATOM     31  C   UNL     1       1.260  -2.701   2.137  0.00  0.00    +0.018 A 
ATOM     32  C   UNL     1       0.576  -2.143   1.081  0.00  0.00    +0.046 A 
BRANCH  27  34
ATOM     33  C   UNL     1      -2.905  -1.800  -0.011  0.00  0.00    +0.277 C 
ATOM     34  O   UNL     1      -1.482  -1.674  -0.016  0.00  0.00    -0.495 OA
ENDBRANCH  27  34
ENDBRANCH  25  30
ENDBRANCH  24  25
ENDBRANCH   1  24
TORSDOF 8
