REMARK  Name = ZINC67567150
REMARK  5 active torsions:
REMARK  status: ('A' for Active; 'I' for Inactive)
REMARK    1  A    between atoms: C_1  and  N_2
REMARK    2  A    between atoms: N_2  and  C_3
REMARK    3  A    between atoms: C_3  and  C_4
REMARK    4  A    between atoms: N_17  and  C_18
REMARK    5  A    between atoms: C_21  and  C_23
REMARK                            x       y       z     vdW  Elec       q    Type
REMARK                         _______ _______ _______ _____ _____    ______ ____
ROOT
ATOM      1  C   UNL     1      -0.018   1.461   0.010  0.00  0.00    +0.133 C 
ATOM      2  N   UNL     1       0.002  -0.004   0.002  0.00  0.00    -0.285 N 
ATOM      3  C   UNL     1       0.000  -0.672  -1.169  0.00  0.00    +0.302 C 
ATOM      4  O   UNL     1       0.017  -1.887  -1.175  0.00  0.00    -0.253 OA
ATOM      5  N   UNL     1      -0.020   0.009  -2.332  0.00  0.00    -0.296 N 
ATOM      6  H   UNL     1      -0.033   0.978  -2.327  0.00  0.00    +0.151 HD
ENDROOT
BRANCH   5   7
ATOM      7  C   UNL     1      -0.022  -0.717  -3.605  0.00  0.00    +0.082 C 
ATOM      8  C   UNL     1      -0.978  -0.228  -4.695  0.00  0.00    +0.033 C 
ATOM      9  C   UNL     1       0.528   0.010  -4.834  0.00  0.00    +0.041 C 
BRANCH   9  10
ATOM     10  C   UNL     1       1.272  -0.813  -5.854  0.00  0.00    -0.040 A 
ATOM     11  C   UNL     1       0.633  -1.856  -6.499  0.00  0.00    +0.004 A 
ATOM     12  C   UNL     1       1.314  -2.612  -7.435  0.00  0.00    +0.003 A 
ATOM     13  C   UNL     1       2.634  -2.325  -7.727  0.00  0.00    +0.038 A 
ATOM     14  C   UNL     1       3.274  -1.281  -7.082  0.00  0.00    +0.124 A 
ATOM     15  C   UNL     1       2.589  -0.521  -6.149  0.00  0.00    +0.042 A 
ATOM     16  F   UNL     1       4.565  -1.000  -7.367  0.00  0.00    -0.205 F 
ENDBRANCH   9  10
ENDBRANCH   5   7
BRANCH   2  17
ATOM     17  C   UNL     1       0.024  -0.743   1.267  0.00  0.00    +0.157 C 
BRANCH  17  18
ATOM     18  C   UNL     1      -1.411  -1.020   1.720  0.00  0.00    +0.228 C 
ATOM     19  C   UNL     1      -1.394  -1.782   3.053  0.00  0.00    +0.275 C 
ATOM     20  O   UNL     1      -2.749  -2.012   3.454  0.00  0.00    -0.485 OA
ATOM     21  C   UNL     1      -3.599  -0.953   3.372  0.00  0.00    +0.162 A 
ATOM     22  C   UNL     1      -4.800  -0.987   4.066  0.00  0.00    +0.049 A 
ATOM     23  C   UNL     1      -5.675   0.079   3.989  0.00  0.00    +0.004 A 
ATOM     24  C   UNL     1      -5.357   1.184   3.221  0.00  0.00    +0.004 A 
ATOM     25  C   UNL     1      -4.162   1.225   2.528  0.00  0.00    +0.049 A 
ATOM     26  C   UNL     1      -3.278   0.159   2.602  0.00  0.00    +0.163 A 
ATOM     27  O   UNL     1      -2.101   0.218   1.920  0.00  0.00    -0.480 OA
ENDBRANCH  17  18
ENDBRANCH   2  17
TORSDOF 4
