REMARK  Name = ZINC21344758
REMARK  6 active torsions:
REMARK  status: ('A' for Active; 'I' for Inactive)
REMARK    1  A    between atoms: C_8  and  N_10
REMARK    2  A    between atoms: C_11  and  C_13
REMARK    3  A    between atoms: C_13  and  S_14
REMARK    4  A    between atoms: S_14  and  C_15
REMARK    5  A    between atoms: C_18  and  C_26
REMARK    6  A    between atoms: N_19  and  C_20
REMARK                            x       y       z     vdW  Elec       q    Type
REMARK                         _______ _______ _______ _____ _____    ______ ____
ROOT
ATOM      1  C   UNL     1       3.898   5.534  -0.164  0.00  0.00    +0.193 A 
ATOM      2  N   UNL     1       4.501   4.375  -0.018  0.00  0.00    -0.122 NA
ATOM      3  N   UNL     1       3.631   3.443   0.140  0.00  0.00    -0.128 NA
ATOM      4  C   UNL     1       2.420   3.948   0.106  0.00  0.00    +0.166 A 
ATOM      5  N   UNL     1       2.554   5.303  -0.095  0.00  0.00    -0.299 N 
ENDROOT
BRANCH   4   6
ATOM      6  C   UNL     1       1.152   3.202   0.249  0.00  0.00    +0.033 A 
ATOM      7  C   UNL     1       0.166   3.658   1.125  0.00  0.00    +0.013 A 
ATOM      8  C   UNL     1      -1.016   2.957   1.254  0.00  0.00    +0.001 A 
ATOM      9  C   UNL     1      -1.222   1.802   0.522  0.00  0.00    +0.001 A 
ATOM     10  C   UNL     1      -0.252   1.347  -0.352  0.00  0.00    +0.016 A 
ATOM     11  C   UNL     1       0.935   2.038  -0.491  0.00  0.00    +0.029 A 
ATOM     12 BR   UNL     1       2.264   1.411  -1.681  0.00  0.00    -0.050 Br
ENDBRANCH   4   6
BRANCH   5  13
ATOM     13  C   UNL     1       1.478   6.291  -0.209  0.00  0.00    +0.091 C 
ATOM     14  C   UNL     1       1.567   6.987  -1.569  0.00  0.00    +0.025 C 
ATOM     15  C   UNL     1       0.444   8.019  -1.688  0.00  0.00    +0.002 C 
ATOM     16  C   UNL     1       0.585   9.057  -0.574  0.00  0.00    +0.000 C 
ATOM     17  C   UNL     1       0.497   8.362   0.786  0.00  0.00    +0.002 C 
ATOM     18  C   UNL     1       1.620   7.330   0.905  0.00  0.00    +0.025 C 
ENDBRANCH   5  13
BRANCH   1  19
ATOM     19  S   UNL     1       4.678   7.095  -0.409  0.00  0.00    -0.077 S 
BRANCH  19  20
ATOM     20  C   UNL     1       6.415   6.584  -0.390  0.00  0.00    +0.173 C 
BRANCH  20  22
ATOM     21  N   UNL     1       8.636   7.651  -0.609  0.00  0.00    -0.311 N 
ATOM     22  C   UNL     1       7.295   7.791  -0.588  0.00  0.00    +0.224 C 
ATOM     23  O   UNL     1       6.798   8.888  -0.728  0.00  0.00    -0.275 OA
ATOM     24  H   UNL     1       9.087   6.656  -0.481  0.00  0.00    +0.149 HD
BRANCH  21  32
ATOM     25  C   UNL     1      13.819  10.345  -2.055  0.00  0.00    +0.000 A 
ATOM     26  C   UNL     1      13.154  10.637  -3.232  0.00  0.00    +0.000 A 
ATOM     27  C   UNL     1      11.836  10.258  -3.391  0.00  0.00    +0.004 A 
ATOM     28  C   UNL     1      11.176   9.587  -2.375  0.00  0.00    -0.042 A 
ATOM     29  C   UNL     1      11.841   9.295  -1.199  0.00  0.00    -0.042 A 
ATOM     30  C   UNL     1      13.163   9.676  -1.041  0.00  0.00    +0.004 A 
ATOM     31  C   UNL     1      10.912   8.563  -0.254  0.00  0.00    +0.058 C 
ATOM     32  C   UNL     1       9.492   8.824  -0.801  0.00  0.00    +0.082 C 
ATOM     33  C   UNL     1       9.751   9.074  -2.302  0.00  0.00    +0.058 C 
ENDBRANCH  21  32
ENDBRANCH  20  22
ENDBRANCH  19  20
ENDBRANCH   1  19
TORSDOF 6
