REMARK  Name = ZINC23129321
REMARK  5 active torsions:
REMARK  status: ('A' for Active; 'I' for Inactive)
REMARK    1  A    between atoms: C_1  and  N_2
REMARK    2  A    between atoms: N_2  and  C_3
REMARK    3  A    between atoms: N_2  and  C_13
REMARK    4  A    between atoms: C_3  and  C_4
REMARK    5  A    between atoms: C_22  and  O_24
REMARK                            x       y       z     vdW  Elec       q    Type
REMARK                         _______ _______ _______ _____ _____    ______ ____
ROOT
ATOM      1  C   UNL     1      -0.720   3.027   1.276  0.00  0.00    -0.007 C 
ATOM      2  C   UNL     1      -1.470   3.493   2.506  0.00  0.00    -0.055 A 
ATOM      3  C   UNL     1      -1.075   3.551   3.830  0.00  0.00    +0.002 A 
ATOM      4  C   UNL     1      -1.943   4.019   4.797  0.00  0.00    +0.000 A 
ATOM      5  C   UNL     1      -3.214   4.431   4.441  0.00  0.00    +0.000 A 
ATOM      6  C   UNL     1      -3.612   4.374   3.120  0.00  0.00    +0.004 A 
ATOM      7  C   UNL     1      -2.743   3.905   2.148  0.00  0.00    -0.037 A 
ATOM      8  C   UNL     1      -2.927   3.745   0.658  0.00  0.00    +0.017 C 
ATOM      9  C   UNL     1      -1.509   3.601   0.078  0.00  0.00    +0.116 C 
ATOM     10  C   UNL     1      -3.744   2.492   0.355  0.00  0.00    -0.005 C 
ATOM     11  C   UNL     1      -3.940   2.369  -1.159  0.00  0.00    -0.082 C 
ATOM     12  N   UNL     1      -4.619   3.571  -1.663  0.00  0.00    +0.379 N 
ATOM     13  C   UNL     1      -3.810   4.775  -1.434  0.00  0.00    -0.082 C 
ATOM     14  C   UNL     1      -3.610   4.977   0.070  0.00  0.00    -0.005 C 
ATOM     15  H   UNL     1      -4.793   3.466  -2.744  0.00  0.00    -0.086 HD
ATOM     16  H   UNL     1      -5.582   3.692  -1.146  0.00  0.00    -0.086 HD
ENDROOT
BRANCH   1  18
ATOM     17  C   UNL     1       0.010   1.091   0.019  0.00  0.00    -0.095 C 
ATOM     18  N   UNL     1      -0.700   1.560   1.217  0.00  0.00    +0.387 N 
ATOM     19  H   UNL     1      -1.741   1.210   1.151  0.00  0.00    -0.081 HD
BRANCH  18  20
ATOM     20  C   UNL     1      -0.109   0.992   2.435  0.00  0.00    -0.042 C 
BRANCH  20  21
ATOM     21  C   UNL     1      -0.325  -0.500   2.451  0.00  0.00    -0.062 A 
ATOM     22  C   UNL     1      -1.476  -1.015   3.049  0.00  0.00    +0.004 A 
ATOM     23  C   UNL     1      -1.720  -2.346   3.085  0.00  0.00    +0.031 A 
ATOM     24  C   UNL     1      -0.790  -3.255   2.515  0.00  0.00    +0.100 A 
ATOM     25  C   UNL     1       0.417  -2.716   1.894  0.00  0.00    +0.100 A 
ATOM     26  C   UNL     1       0.604  -1.309   1.889  0.00  0.00    +0.032 A 
ATOM     27  N   UNL     1       1.197  -3.676   1.402  0.00  0.00    -0.191 NA
ATOM     28  S   UNL     1       0.470  -5.030   1.706  0.00  0.00    +0.116 S 
ATOM     29  N   UNL     1      -0.836  -4.583   2.449  0.00  0.00    -0.191 NA
ENDBRANCH  20  21
ENDBRANCH  18  20
ENDBRANCH   1  18
BRANCH   9  30
ATOM     30  O   UNL     1      -0.987   4.873  -0.311  0.00  0.00    -0.392 OA
ATOM     31  H   UNL     1      -1.439   5.419  -1.153  0.00  0.00    +0.210 HD
ENDBRANCH   9  30
TORSDOF 4
