REMARK  Name = ZINC02279523
REMARK  1 active torsions:
REMARK  status: ('A' for Active; 'I' for Inactive)
REMARK    1  A    between atoms: N_11  and  N_12
REMARK                            x       y       z     vdW  Elec       q    Type
REMARK                         _______ _______ _______ _____ _____    ______ ____
ROOT
ATOM      1  N   UNL     1      -1.169   2.039  -0.279  0.00  0.00    -0.218 N 
ATOM      2  C   UNL     1      -0.237   1.448   0.495  0.00  0.00    +0.323 C 
ATOM      3  O   UNL     1      -0.283   0.248   0.691  0.00  0.00    -0.251 OA
ATOM      4  N   UNL     1       0.741   2.186   1.056  0.00  0.00    -0.245 N 
ATOM      5  C   UNL     1       1.892   1.526   1.491  0.00  0.00    +0.052 A 
ATOM      6  C   UNL     1       2.136   0.242   1.012  0.00  0.00    +0.025 A 
ATOM      7  C   UNL     1       3.253  -0.457   1.423  0.00  0.00    +0.002 A 
ATOM      8  C   UNL     1       4.141   0.115   2.315  0.00  0.00    +0.001 A 
ATOM      9  C   UNL     1       3.913   1.390   2.793  0.00  0.00    +0.016 A 
ATOM     10  C   UNL     1       2.792   2.102   2.381  0.00  0.00    +0.030 A 
ATOM     11  S   UNL     1       2.545   3.738   2.990  0.00  0.00    -0.114 S 
ATOM     12  C   UNL     1       0.797   4.077   2.613  0.00  0.00    +0.099 C 
ATOM     13  C   UNL     1       0.535   3.618   1.166  0.00  0.00    +0.123 C 
ATOM     14  C   UNL     1       1.433   4.384   0.234  0.00  0.00    -0.003 C 
ATOM     15  C   UNL     1       1.653   5.678   0.470  0.00  0.00    -0.003 C 
ATOM     16  C   UNL     1       1.001   6.321   1.624  0.00  0.00    -0.003 C 
ATOM     17  C   UNL     1       0.589   5.576   2.663  0.00  0.00    -0.010 C 
ATOM     18  H   UNL     1      -1.861   1.505  -0.699  0.00  0.00    +0.174 HD
ENDROOT
BRANCH   1  29
ATOM     19  C   UNL     1      -5.827   6.939  -1.227  0.00  0.00    +0.002 A 
ATOM     20  C   UNL     1      -6.506   5.730  -1.216  0.00  0.00    +0.002 A 
ATOM     21  C   UNL     1      -5.822   4.545  -1.060  0.00  0.00    +0.030 A 
ATOM     22  C   UNL     1      -4.433   4.560  -0.912  0.00  0.00    +0.091 A 
ATOM     23  C   UNL     1      -3.750   5.787  -0.924  0.00  0.00    +0.067 A 
ATOM     24  C   UNL     1      -4.455   6.971  -1.082  0.00  0.00    +0.028 A 
ATOM     25  N   UNL     1      -2.409   5.483  -0.753  0.00  0.00    -0.325 N 
ATOM     26  H   UNL     1      -1.654   6.137  -0.710  0.00  0.00    +0.169 HD
ATOM     27  C   UNL     1      -2.312   4.125  -0.653  0.00  0.00    +0.211 A 
ATOM     28  N   UNL     1      -3.502   3.585  -0.744  0.00  0.00    -0.213 NA
ATOM     29  N   UNL     1      -1.136   3.426  -0.478  0.00  0.00    -0.233 N 
ATOM     30  H   UNL     1      -0.287   3.894  -0.492  0.00  0.00    +0.173 HD
ENDBRANCH   1  29
TORSDOF 1
