REMARK  Name = ZINC33281240
REMARK  12 active torsions:
REMARK  status: ('A' for Active; 'I' for Inactive)
REMARK    1  A    between atoms: C_1  and  C_2
REMARK    2  A    between atoms: C_5  and  C_8
REMARK    3  A    between atoms: C_8  and  N_9
REMARK    4  A    between atoms: C_10  and  C_12
REMARK    5  A    between atoms: C_12  and  N_13
REMARK    6  A    between atoms: C_17  and  C_37
REMARK    7  A    between atoms: N_24  and  C_27
REMARK    8  A    between atoms: C_27  and  C_28
REMARK    9  A    between atoms: C_30  and  C_33
REMARK   10  A    between atoms: C_33  and  C_34
REMARK   11  A    between atoms: C_33  and  C_35
REMARK   12  A    between atoms: C_33  and  C_36
REMARK                            x       y       z     vdW  Elec       q    Type
REMARK                         _______ _______ _______ _____ _____    ______ ____
ROOT
ATOM      1  N   UNL     1       1.250  -5.952  -3.087  0.00  0.00    -0.325 N 
ATOM      2  C   UNL     1       0.131  -6.756  -3.080  0.00  0.00    +0.052 A 
ATOM      3  C   UNL     1      -1.233  -6.474  -3.065  0.00  0.00    +0.027 A 
ATOM      4  C   UNL     1      -2.147  -7.505  -3.061  0.00  0.00    +0.005 A 
ATOM      5  C   UNL     1      -1.723  -8.826  -3.071  0.00  0.00    -0.050 A 
ATOM      6  C   UNL     1      -0.390  -9.126  -3.086  0.00  0.00    +0.015 A 
ATOM      7  C   UNL     1       0.554  -8.097  -3.090  0.00  0.00    +0.026 A 
ATOM      8  C   UNL     1       2.022  -8.070  -3.104  0.00  0.00    +0.103 A 
ATOM      9  C   UNL     1       2.393  -6.728  -3.107  0.00  0.00    +0.134 A 
ATOM     10  C   UNL     1       3.772  -6.414  -3.113  0.00  0.00    +0.279 A 
ATOM     11  O   UNL     1       4.149  -5.254  -3.111  0.00  0.00    -0.265 OA
ATOM     12  N   UNL     1       4.662  -7.429  -3.126  0.00  0.00    -0.288 N 
ATOM     13  C   UNL     1       4.236  -8.718  -3.128  0.00  0.00    +0.203 A 
ATOM     14  N   UNL     1       2.970  -9.024  -3.118  0.00  0.00    -0.235 NA
ATOM     15  C   UNL     1      -2.739  -9.939  -3.067  0.00  0.00    +0.044 C 
ENDROOT
BRANCH   1  16
ATOM     16  C   UNL     1       1.230  -4.487  -3.080  0.00  0.00    +0.218 C 
BRANCH  16  18
ATOM     17  N   UNL     1       1.222  -2.667  -1.404  0.00  0.00    -0.310 N 
ATOM     18  C   UNL     1       1.237  -3.991  -1.657  0.00  0.00    +0.233 C 
ATOM     19  O   UNL     1       1.257  -4.784  -0.739  0.00  0.00    -0.274 OA
ATOM     20  H   UNL     1       1.204  -1.949  -2.237  0.00  0.00    +0.149 HD
BRANCH  17  21
ATOM     21  C   UNL     1       1.229  -2.186  -0.021  0.00  0.00    +0.139 C 
BRANCH  21  26
ATOM     22  C   UNL     1       1.151   3.592   0.010  0.00  0.00    +0.044 C 
ATOM     23  C   UNL     1       1.171   2.086   0.002  0.00  0.00    -0.050 A 
ATOM     24  C   UNL     1      -0.017   1.378   0.010  0.00  0.00    +0.003 A 
ATOM     25  C   UNL     1       0.002  -0.004   0.002  0.00  0.00    +0.005 A 
ATOM     26  C   UNL     1       1.208  -0.679  -0.013  0.00  0.00    -0.030 A 
ATOM     27  C   UNL     1       2.396   0.029  -0.021  0.00  0.00    +0.005 A 
ATOM     28  C   UNL     1       2.377   1.411  -0.015  0.00  0.00    +0.003 A 
ENDBRANCH  21  26
ENDBRANCH  17  21
ENDBRANCH  16  18
ENDBRANCH   1  16
BRANCH  12  29
ATOM     29  C   UNL     1       6.098  -7.138  -3.138  0.00  0.00    +0.225 C 
BRANCH  29  30
ATOM     30  C   UNL     1       6.577  -7.032  -4.563  0.00  0.00    +0.247 A 
ATOM     31  N   UNL     1       6.616  -5.944  -5.295  0.00  0.00    -0.194 NA
ATOM     32  C   UNL     1       7.112  -6.327  -6.485  0.00  0.00    +0.177 A 
ATOM     33  N   UNL     1       7.344  -7.604  -6.418  0.00  0.00    -0.061 NA
ATOM     34  O   UNL     1       7.049  -8.027  -5.320  0.00  0.00    -0.336 OA
BRANCH  32  35
ATOM     35  C   UNL     1       7.352  -5.438  -7.678  0.00  0.00    +0.025 C 
ATOM     36  C   UNL     1       8.346  -4.338  -7.302  0.00  0.00    +0.019 C 
ATOM     37  C   UNL     1       7.923  -6.271  -8.828  0.00  0.00    +0.019 C 
ATOM     38  C   UNL     1       6.030  -4.803  -8.116  0.00  0.00    +0.019 C 
ENDBRANCH  32  35
ENDBRANCH  29  30
ENDBRANCH  12  29
TORSDOF 7
