REMARK  Name = ZINC37036824
REMARK  6 active torsions:
REMARK  status: ('A' for Active; 'I' for Inactive)
REMARK    1  A    between atoms: C_1  and  C_2
REMARK    2  A    between atoms: C_6  and  C_8
REMARK    3  A    between atoms: C_10  and  C_13
REMARK    4  A    between atoms: C_13  and  S_14
REMARK    5  A    between atoms: S_14  and  C_15
REMARK    6  A    between atoms: C_16  and  C_21
REMARK                            x       y       z     vdW  Elec       q    Type
REMARK                         _______ _______ _______ _____ _____    ______ ____
ROOT
ATOM      1  C   UNL     1       0.052  -2.845   2.457  0.00  0.00    +0.258 A 
ATOM      2  N   UNL     1       0.075  -4.153   2.582  0.00  0.00    -0.191 NA
ATOM      3  C   UNL     1       0.084  -4.488   3.874  0.00  0.00    +0.182 A 
ATOM      4  N   UNL     1       0.067  -3.403   4.596  0.00  0.00    -0.060 NA
ATOM      5  O   UNL     1       0.051  -2.310   3.691  0.00  0.00    -0.333 OA
ENDROOT
BRANCH   1  11
ATOM      6  C   UNL     1      -0.018   1.503   0.010  0.00  0.00    +0.044 C 
ATOM      7  C   UNL     1       0.002  -0.004   0.002  0.00  0.00    -0.050 A 
ATOM      8  C   UNL     1       0.006  -0.688  -1.201  0.00  0.00    +0.003 A 
ATOM      9  C   UNL     1       0.025  -2.071  -1.218  0.00  0.00    +0.001 A 
ATOM     10  C   UNL     1       0.040  -2.778  -0.033  0.00  0.00    +0.013 A 
ATOM     11  C   UNL     1       0.036  -2.095   1.184  0.00  0.00    +0.040 A 
ATOM     12  C   UNL     1       0.023  -0.699   1.194  0.00  0.00    +0.016 A 
ENDBRANCH   1  11
BRANCH   3  13
ATOM     13  C   UNL     1       0.109  -5.895   4.413  0.00  0.00    +0.154 C 
BRANCH  13  14
ATOM     14  S   UNL     1       1.830  -6.431   4.625  0.00  0.00    -0.108 S 
BRANCH  14  15
ATOM     15  C   UNL     1       1.691  -8.072   5.251  0.00  0.00    +0.070 A 
ATOM     16  C   UNL     1       2.667  -8.954   5.599  0.00  0.00    +0.061 A 
ATOM     17  N   UNL     1       2.335 -10.150   6.053  0.00  0.00    -0.229 NA
ATOM     18  C   UNL     1       1.070 -10.509   6.178  0.00  0.00    +0.157 A 
ATOM     19  S   UNL     1       0.229  -9.035   5.614  0.00  0.00    -0.046 S 
ATOM     20  N   UNL     1       0.536 -11.708   6.632  0.00  0.00    -0.337 N 
ATOM     21  C   UNL     1       4.118  -8.570   5.465  0.00  0.00    +0.067 C 
ATOM     22  H   UNL     1       1.125 -12.426   6.912  0.00  0.00    +0.144 HD
ATOM     23  H   UNL     1      -0.426 -11.828   6.668  0.00  0.00    +0.144 HD
ENDBRANCH  14  15
ENDBRANCH  13  14
ENDBRANCH   3  13
TORSDOF 4
