REMARK  Name = ZINC35540601
REMARK  8 active torsions:
REMARK  status: ('A' for Active; 'I' for Inactive)
REMARK    1  A    between atoms: C_1  and  C_2
REMARK    2  A    between atoms: C_4  and  S_10
REMARK    3  A    between atoms: C_5  and  C_9
REMARK    4  A    between atoms: S_10  and  C_11
REMARK    5  A    between atoms: C_11  and  C_12
REMARK    6  A    between atoms: N_14  and  C_15
REMARK    7  A    between atoms: C_19  and  S_21
REMARK    8  A    between atoms: S_21  and  N_24
REMARK                            x       y       z     vdW  Elec       q    Type
REMARK                         _______ _______ _______ _____ _____    ______ ____
ROOT
ATOM      1  C   UNL     1      -0.099  -2.103  -7.706  0.00  0.00    +0.035 A 
ATOM      2  C   UNL     1      -0.181  -3.487  -7.786  0.00  0.00    +0.023 A 
ATOM      3  C   UNL     1      -0.268  -4.102  -9.020  0.00  0.00    +0.004 A 
ATOM      4  C   UNL     1      -0.273  -3.341 -10.174  0.00  0.00    +0.029 A 
ATOM      5  C   UNL     1      -0.190  -1.963 -10.098  0.00  0.00    +0.114 A 
ATOM      6  C   UNL     1      -0.110  -1.342  -8.867  0.00  0.00    +0.052 A 
ENDROOT
BRANCH   1   9
ATOM      7  C   UNL     1      -0.611  -0.288  -6.256  0.00  0.00    +0.227 C 
ATOM      8  O   UNL     1      -1.157   0.280  -7.179  0.00  0.00    -0.275 OA
ATOM      9  N   UNL     1      -0.011  -1.477  -6.457  0.00  0.00    -0.285 N 
ATOM     10  H   UNL     1       0.483  -1.900  -5.737  0.00  0.00    +0.155 HD
BRANCH   7  11
ATOM     11  C   UNL     1      -0.605   0.337  -4.885  0.00  0.00    +0.170 C 
BRANCH  11  12
ATOM     12  S   UNL     1      -1.487   1.921  -4.938  0.00  0.00    -0.116 S 
BRANCH  12  16
ATOM     13  C   UNL     1       0.044   1.433   0.042  0.00  0.00    +0.045 C 
ATOM     14  C   UNL     1      -0.666   2.241  -1.014  0.00  0.00    -0.035 A 
ATOM     15  C   UNL     1      -0.738   1.771  -2.310  0.00  0.00    +0.019 A 
ATOM     16  C   UNL     1      -1.393   2.517  -3.282  0.00  0.00    +0.012 A 
ATOM     17  C   UNL     1      -1.974   3.734  -2.946  0.00  0.00    -0.036 A 
ATOM     18  C   UNL     1      -1.899   4.198  -1.648  0.00  0.00    +0.020 A 
ATOM     19  C   UNL     1      -1.250   3.451  -0.681  0.00  0.00    +0.021 A 
ATOM     20 BR   UNL     1      -1.155   4.087   1.097  0.00  0.00    -0.050 Br
ATOM     21  C   UNL     1      -2.686   4.546  -3.998  0.00  0.00    +0.045 C 
ENDBRANCH  12  16
ENDBRANCH  11  12
ENDBRANCH   7  11
ENDBRANCH   1   9
BRANCH   5  22
ATOM     22  S   UNL     1      -0.195  -0.998 -11.572  0.00  0.00    +0.100 S 
ATOM     23  O   UNL     1       0.441   0.233 -11.254  0.00  0.00    -0.146 OA
ATOM     24  O   UNL     1       0.265  -1.846 -12.615  0.00  0.00    -0.146 OA
BRANCH  22  25
ATOM     25  N   UNL     1      -1.775  -0.638 -11.916  0.00  0.00    -0.118 NA
ATOM     26  C   UNL     1      -2.064   0.069 -12.960  0.00  0.00    +0.117 C 
ATOM     27  C   UNL     1      -3.520   0.406 -13.276  0.00  0.00    +0.073 C 
ATOM     28  C   UNL     1      -3.697   1.891 -13.042  0.00  0.00    +0.008 C 
ATOM     29  C   UNL     1      -3.380   2.744 -14.273  0.00  0.00    +0.002 C 
ATOM     30  C   UNL     1      -2.119   2.289 -15.008  0.00  0.00    +0.019 C 
ATOM     31  C   UNL     1      -0.978   1.941 -14.076  0.00  0.00    +0.102 C 
ATOM     32  N   UNL     1      -1.104   0.505 -13.750  0.00  0.00    -0.331 N 
ATOM     33  H   UNL     1      -0.469  -0.125 -14.126  0.00  0.00    +0.147 HD
ENDBRANCH  22  25
ENDBRANCH   5  22
TORSDOF 6
