REMARK  Name = ZINC08640454
REMARK  5 active torsions:
REMARK  status: ('A' for Active; 'I' for Inactive)
REMARK    1  A    between atoms: C_1  and  C_2
REMARK    2  A    between atoms: C_2  and  C_4
REMARK    3  A    between atoms: C_2  and  S_20
REMARK    4  A    between atoms: C_10  and  C_15
REMARK    5  A    between atoms: S_20  and  C_21
REMARK                            x       y       z     vdW  Elec       q    Type
REMARK                         _______ _______ _______ _____ _____    ______ ____
ROOT
ATOM      1  C   UNL     1      -0.019   1.526   0.010  0.00  0.00    +0.027 C 
ATOM      2  C   UNL     1       0.002  -0.004   0.002  0.00  0.00    +0.117 C 
ENDROOT
BRANCH   2   3
ATOM      3  C   UNL     1      -1.412  -0.526   0.013  0.00  0.00    +0.124 A 
ATOM      4  N   UNL     1      -1.993  -0.854   1.195  0.00  0.00    -0.309 N 
ATOM      5  H   UNL     1      -1.490  -0.749   2.018  0.00  0.00    +0.170 HD
ATOM      6  C   UNL     1      -3.253  -1.323   1.248  0.00  0.00    +0.260 A 
ATOM      7  O   UNL     1      -3.761  -1.613   2.318  0.00  0.00    -0.267 OA
ATOM      8  C   UNL     1      -3.989  -1.475   0.030  0.00  0.00    +0.080 A 
ATOM      9  C   UNL     1      -5.351  -1.956  -0.171  0.00  0.00    +0.010 A 
ATOM     10  C   UNL     1      -5.841  -2.013  -1.435  0.00  0.00    +0.057 A 
ATOM     11  S   UNL     1      -4.487  -1.419  -2.430  0.00  0.00    -0.076 S 
ATOM     12  C   UNL     1      -3.307  -1.110  -1.142  0.00  0.00    +0.116 A 
ATOM     13  N   UNL     1      -2.059  -0.649  -1.115  0.00  0.00    -0.225 NA
BRANCH   9  14
ATOM     14  C   UNL     1      -6.181  -2.374   0.978  0.00  0.00    +0.021 A 
ATOM     15  C   UNL     1      -7.462  -2.008   1.296  0.00  0.00    +0.016 A 
ATOM     16  C   UNL     1      -8.037  -2.533   2.434  0.00  0.00    +0.008 A 
ATOM     17  C   UNL     1      -7.321  -3.393   3.201  0.00  0.00    +0.046 A 
ATOM     18  S   UNL     1      -5.777  -3.492   2.310  0.00  0.00    -0.097 S 
ENDBRANCH   9  14
ENDBRANCH   2   3
BRANCH   2  19
ATOM     19  S   UNL     1       0.879  -0.605   1.472  0.00  0.00    -0.078 S 
BRANCH  19  20
ATOM     20  C   UNL     1       2.533  -0.042   1.241  0.00  0.00    +0.182 C 
ATOM     21  N   UNL     1       2.793   0.652   0.144  0.00  0.00    -0.154 NA
ATOM     22  C   UNL     1       4.035   1.010  -0.206  0.00  0.00    +0.252 C 
ATOM     23  O   UNL     1       4.263   1.692  -1.186  0.00  0.00    -0.273 OA
ATOM     24  C   UNL     1       5.132   0.511   0.701  0.00  0.00    +0.159 C 
ATOM     25  C   UNL     1       6.217   1.521   0.874  0.00  0.00    -0.042 C 
ATOM     26  C   UNL     1       6.899   1.370   2.008  0.00  0.00    -0.008 C 
ATOM     27  C   UNL     1       8.096   2.165   2.442  0.00  0.00    +0.042 C 
ATOM     28  C   UNL     1       8.613   2.967   1.241  0.00  0.00    +0.005 C 
ATOM     29  C   UNL     1       7.427   3.666   0.569  0.00  0.00    +0.005 C 
ATOM     30  C   UNL     1       6.545   2.622  -0.121  0.00  0.00    +0.033 C 
ATOM     31  S   UNL     1       6.073   0.102   2.939  0.00  0.00    -0.077 S 
ATOM     32  C   UNL     1       4.673  -0.021   2.051  0.00  0.00    +0.097 C 
ATOM     33  N   UNL     1       3.428  -0.346   2.194  0.00  0.00    -0.221 NA
ENDBRANCH  19  20
ENDBRANCH   2  19
TORSDOF 4
