REMARK  Name = ZINC59829917
REMARK  12 active torsions:
REMARK  status: ('A' for Active; 'I' for Inactive)
REMARK    1  A    between atoms: C_1  and  C_2
REMARK    2  A    between atoms: C_3  and  C_11
REMARK    3  A    between atoms: C_4  and  C_10
REMARK    4  A    between atoms: N_5  and  C_7
REMARK    5  A    between atoms: C_7  and  C_8
REMARK    6  A    between atoms: N_12  and  N_13
REMARK    7  A    between atoms: C_17  and  S_20
REMARK    8  A    between atoms: N_18  and  N_19
REMARK    9  A    between atoms: S_20  and  C_21
REMARK   10  A    between atoms: C_21  and  C_22
REMARK   11  A    between atoms: N_24  and  C_25
REMARK   12  A    between atoms: C_29  and  N_31
REMARK                            x       y       z     vdW  Elec       q    Type
REMARK                         _______ _______ _______ _____ _____    ______ ____
ROOT
ATOM      1  N   UNL     1      -0.063   1.333  -4.149  0.00  0.00    -0.204 N 
ATOM      2  C   UNL     1      -0.079   2.690  -4.438  0.00  0.00    +0.254 A 
ATOM      3  N   UNL     1      -0.088   3.664  -3.560  0.00  0.00    -0.109 NA
ATOM      4  N   UNL     1      -0.104   4.877  -4.260  0.00  0.00    -0.119 NA
ATOM      5  C   UNL     1      -0.105   4.605  -5.543  0.00  0.00    +0.210 A 
ATOM      6  N   UNL     1      -0.084   3.247  -5.686  0.00  0.00    -0.211 N 
ATOM      7  H   UNL     1      -0.053   0.684  -4.870  0.00  0.00    +0.177 HD
ENDROOT
BRANCH   6   8
ATOM      8  N   UNL     1      -0.072   2.564  -6.870  0.00  0.00    -0.294 N 
ATOM      9  H   UNL     1      -1.011   2.371  -7.185  0.00  0.00    +0.163 HD
ATOM     10  H   UNL     1       0.449   3.067  -7.572  0.00  0.00    +0.163 HD
ENDBRANCH   6   8
BRANCH   1  12
ATOM     11  C   UNL     1      -0.045  -0.369  -2.548  0.00  0.00    +0.141 C 
ATOM     12  N   UNL     1      -0.060   0.900  -2.817  0.00  0.00    -0.187 NA
BRANCH  11  15
ATOM     13  C   UNL     1      -0.075   1.503   0.011  0.00  0.00    +0.068 C 
ATOM     14  C   UNL     1      -0.056  -0.004   0.003  0.00  0.00    +0.069 A 
ATOM     15  C   UNL     1      -0.043  -0.826  -1.144  0.00  0.00    +0.038 A 
ATOM     16  C   UNL     1      -0.026  -2.134  -0.710  0.00  0.00    +0.045 A 
ATOM     17  N   UNL     1      -0.030  -2.111   0.638  0.00  0.00    -0.264 N 
ATOM     18  N   UNL     1      -0.044  -0.776   1.056  0.00  0.00    -0.175 NA
ATOM     19  C   UNL     1      -0.008  -3.363  -1.582  0.00  0.00    +0.066 C 
BRANCH  17  20
ATOM     20  C   UNL     1      -0.017  -3.285   1.515  0.00  0.00    +0.170 C 
BRANCH  20  21
ATOM     21  C   UNL     1       1.408  -3.668   1.819  0.00  0.00    -0.012 C 
ATOM     22  C   UNL     1       1.807  -3.773   3.063  0.00  0.00    +0.006 C 
ENDBRANCH  20  21
ENDBRANCH  17  20
ENDBRANCH  11  15
ENDBRANCH   1  12
BRANCH   5  23
ATOM     23  S   UNL     1      -0.123   5.784  -6.852  0.00  0.00    -0.075 S 
BRANCH  23  24
ATOM     24  C   UNL     1      -0.139   7.386  -6.000  0.00  0.00    +0.173 C 
BRANCH  24  25
ATOM     25  C   UNL     1      -0.155   8.496  -7.018  0.00  0.00    +0.227 C 
ATOM     26  O   UNL     1      -0.156   8.234  -8.202  0.00  0.00    -0.275 OA
ATOM     27  N   UNL     1      -0.169   9.782  -6.613  0.00  0.00    -0.285 N 
ATOM     28  H   UNL     1      -0.236   9.992  -5.669  0.00  0.00    +0.155 HD
BRANCH  27  29
ATOM     29  C   UNL     1      -0.086  10.813  -7.555  0.00  0.00    +0.036 A 
ATOM     30  C   UNL     1       0.604  11.980  -7.252  0.00  0.00    +0.023 A 
ATOM     31  C   UNL     1       0.683  12.996  -8.183  0.00  0.00    +0.004 A 
ATOM     32  C   UNL     1       0.077  12.852  -9.418  0.00  0.00    +0.033 A 
ATOM     33  C   UNL     1      -0.611  11.693  -9.724  0.00  0.00    +0.128 A 
ATOM     34  C   UNL     1      -0.689  10.670  -8.798  0.00  0.00    +0.056 A 
BRANCH  33  35
ATOM     35  N   UNL     1      -1.259  11.544 -11.046  0.00  0.00    +0.056 N 
ATOM     36  O   UNL     1      -1.187  12.436 -11.858  0.00  0.00    -0.126 OA
ATOM     37  O   UNL     1      -1.861  10.530 -11.314  0.00  0.00    -0.126 OA
ENDBRANCH  33  35
ENDBRANCH  27  29
ENDBRANCH  24  25
ENDBRANCH  23  24
ENDBRANCH   5  23
TORSDOF 10
