REMARK  Name = ZINC09103142
REMARK  12 active torsions:
REMARK  status: ('A' for Active; 'I' for Inactive)
REMARK    1  A    between atoms: C_1  and  C_2
REMARK    2  A    between atoms: C_2  and  N_3
REMARK    3  A    between atoms: N_3  and  C_4
REMARK    4  A    between atoms: C_14  and  C_16
REMARK    5  A    between atoms: C_16  and  S_17
REMARK    6  A    between atoms: S_17  and  C_18
REMARK    7  A    between atoms: C_21  and  C_30
REMARK    8  A    between atoms: N_22  and  C_23
REMARK    9  A    between atoms: C_30  and  C_32
REMARK   10  A    between atoms: C_30  and  N_62
REMARK   11  A    between atoms: C_33  and  N_62
REMARK   12  A    between atoms: C_34  and  N_62
REMARK                            x       y       z     vdW  Elec       q    Type
REMARK                         _______ _______ _______ _____ _____    ______ ____
ROOT
ATOM      1  C   UNL     1      -1.996   4.519   4.346  0.00  0.00    +0.197 A 
ATOM      2  N   UNL     1      -2.891   3.601   4.063  0.00  0.00    -0.122 NA
ATOM      3  N   UNL     1      -2.567   2.993   2.978  0.00  0.00    -0.135 NA
ATOM      4  C   UNL     1      -1.451   3.475   2.510  0.00  0.00    +0.125 A 
ATOM      5  N   UNL     1      -1.047   4.468   3.362  0.00  0.00    -0.275 N 
ENDROOT
BRANCH   5   6
ATOM      6  C   UNL     1       0.102   5.267   3.250  0.00  0.00    +0.050 A 
ATOM      7  C   UNL     1       1.361   4.692   3.354  0.00  0.00    +0.028 A 
ATOM      8  C   UNL     1       2.490   5.479   3.237  0.00  0.00    +0.022 A 
ATOM      9  C   UNL     1       2.366   6.841   3.029  0.00  0.00    +0.041 A 
ATOM     10  C   UNL     1       1.112   7.417   2.930  0.00  0.00    +0.022 A 
ATOM     11  C   UNL     1      -0.020   6.633   3.040  0.00  0.00    +0.028 A 
ATOM     12 CL   UNL     1       3.787   7.829   2.890  0.00  0.00    -0.084 Cl
ENDBRANCH   5   6
BRANCH   4  13
ATOM     13  C   UNL     1      -0.740   3.027   1.259  0.00  0.00    -0.003 C 
ATOM     14  C   UNL     1      -1.486   3.553   0.032  0.00  0.00    -0.005 C 
BRANCH  13  17
ATOM     15  C   UNL     1      -0.013   1.086   0.008  0.00  0.00    -0.096 C 
ATOM     16  C   UNL     1      -0.072   1.015   2.428  0.00  0.00    -0.096 C 
ATOM     17  N   UNL     1      -0.727   1.550   1.216  0.00  0.00    +0.382 N 
ATOM     18  H   UNL     1      -1.695   1.209   1.182  0.00  0.00    -0.082 HD
ENDBRANCH  13  17
ENDBRANCH   4  13
BRANCH   1  19
ATOM     19  S   UNL     1      -2.014   5.610   5.729  0.00  0.00    -0.076 S 
BRANCH  19  20
ATOM     20  C   UNL     1      -3.543   5.071   6.534  0.00  0.00    +0.173 C 
BRANCH  20  22
ATOM     21  N   UNL     1      -4.856   5.662   8.546  0.00  0.00    -0.270 N 
ATOM     22  C   UNL     1      -3.770   5.889   7.780  0.00  0.00    +0.230 C 
ATOM     23  O   UNL     1      -2.977   6.751   8.092  0.00  0.00    -0.274 OA
BRANCH  21  24
ATOM     24  C   UNL     1      -5.066   6.420   9.700  0.00  0.00    +0.044 A 
ATOM     25  C   UNL     1      -5.786   7.593   9.639  0.00  0.00    +0.024 A 
ATOM     26  C   UNL     1      -6.002   8.356  10.783  0.00  0.00    +0.002 A 
ATOM     27  C   UNL     1      -5.510   7.965  11.991  0.00  0.00    +0.008 A 
ATOM     28  C   UNL     1      -4.771   6.775  12.096  0.00  0.00    -0.016 A 
ATOM     29  C   UNL     1      -4.549   5.988  10.939  0.00  0.00    +0.004 A 
ATOM     30  C   UNL     1      -3.806   4.801  11.045  0.00  0.00    +0.010 A 
ATOM     31  C   UNL     1      -3.318   4.418  12.257  0.00  0.00    +0.001 A 
ATOM     32  C   UNL     1      -3.539   5.189  13.396  0.00  0.00    +0.001 A 
ATOM     33  C   UNL     1      -4.250   6.347  13.330  0.00  0.00    +0.008 A 
ENDBRANCH  21  24
BRANCH  21  35
ATOM     34  C   UNL     1      -5.402   3.292   8.807  0.00  0.00    +0.025 C 
ATOM     35  C   UNL     1      -5.814   4.620   8.169  0.00  0.00    +0.110 C 
ENDBRANCH  21  35
ENDBRANCH  20  22
ENDBRANCH  19  20
ENDBRANCH   1  19
TORSDOF 8
