REMARK  Name = ZINC06281662
REMARK  9 active torsions:
REMARK  status: ('A' for Active; 'I' for Inactive)
REMARK    1  A    between atoms: C_1  and  C_2
REMARK    2  A    between atoms: C_9  and  C_14
REMARK    3  A    between atoms: C_14  and  C_16
REMARK    4  A    between atoms: C_14  and  N_71
REMARK    5  A    between atoms: N_20  and  C_21
REMARK    6  A    between atoms: C_21  and  C_22
REMARK    7  A    between atoms: N_30  and  C_33
REMARK    8  A    between atoms: C_38  and  O_39
REMARK    9  A    between atoms: O_39  and  C_40
REMARK                            x       y       z     vdW  Elec       q    Type
REMARK                         _______ _______ _______ _____ _____    ______ ____
ROOT
ATOM      1  C   UNL     1      -5.241   4.732   4.628  0.00  0.00    +0.039 C 
ENDROOT
BRANCH   1  10
ATOM      2  C   UNL     1      -6.993   9.246  10.301  0.00  0.00    +0.044 C 
ATOM      3  C   UNL     1      -6.136   8.904   9.109  0.00  0.00    -0.050 A 
ATOM      4  C   UNL     1      -5.101   9.753   8.741  0.00  0.00    +0.005 A 
ATOM      5  C   UNL     1      -4.304   9.461   7.655  0.00  0.00    +0.026 A 
ATOM      6  C   UNL     1      -4.538   8.304   6.919  0.00  0.00    +0.049 A 
ATOM      7  C   UNL     1      -5.588   7.446   7.296  0.00  0.00    -0.001 A 
ATOM      8  C   UNL     1      -6.384   7.762   8.402  0.00  0.00    +0.013 A 
ATOM      9  C   UNL     1      -5.830   6.233   6.512  0.00  0.00    +0.017 A 
ATOM     10  C   UNL     1      -5.022   5.975   5.453  0.00  0.00    +0.011 A 
ATOM     11  C   UNL     1      -3.982   6.868   5.118  0.00  0.00    +0.251 A 
ATOM     12  O   UNL     1      -3.271   6.619   4.160  0.00  0.00    -0.268 OA
ATOM     13  N   UNL     1      -3.756   7.987   5.829  0.00  0.00    -0.322 N 
ATOM     14  H   UNL     1      -3.033   8.579   5.570  0.00  0.00    +0.169 HD
ENDBRANCH   1  10
BRANCH   1  20
ATOM     15  C   UNL     1      -3.513   3.594   5.887  0.00  0.00    -0.058 C 
ATOM     16  C   UNL     1      -2.168   2.874   5.765  0.00  0.00    +0.086 C 
ATOM     17  N   UNL     1      -2.326   1.688   4.912  0.00  0.00    -0.331 N 
ATOM     18  C   UNL     1      -2.799   2.065   3.573  0.00  0.00    +0.086 C 
ATOM     19  C   UNL     1      -4.144   2.785   3.695  0.00  0.00    -0.058 C 
ATOM     20  N   UNL     1      -3.967   3.987   4.537  0.00  0.00    +0.391 N 
ATOM     21  H   UNL     1      -3.256   4.593   4.109  0.00  0.00    -0.080 HD
BRANCH  17  22
ATOM     22  C   UNL     1      -1.131   0.963   4.836  0.00  0.00    +0.072 A 
ATOM     23  C   UNL     1       0.014   1.560   4.329  0.00  0.00    +0.027 A 
ATOM     24  C   UNL     1       1.192   0.842   4.254  0.00  0.00    +0.002 A 
ATOM     25  C   UNL     1       1.234  -0.472   4.684  0.00  0.00    +0.004 A 
ATOM     26  C   UNL     1       0.098  -1.072   5.195  0.00  0.00    +0.047 A 
ATOM     27  C   UNL     1      -1.089  -0.361   5.268  0.00  0.00    +0.141 A 
BRANCH  27  28
ATOM     28  O   UNL     1      -2.208  -0.952   5.766  0.00  0.00    -0.493 OA
ATOM     29  C   UNL     1      -2.090  -2.311   6.189  0.00  0.00    +0.277 C 
ENDBRANCH  27  28
ENDBRANCH  17  22
ENDBRANCH   1  20
BRANCH   1  30
ATOM     30  C   UNL     1      -5.681   5.122   3.241  0.00  0.00    +0.143 A 
ATOM     31  N   UNL     1      -4.928   5.621   2.292  0.00  0.00    -0.115 NA
ATOM     32  N   UNL     1      -5.670   5.818   1.257  0.00  0.00    -0.023 NA
ATOM     33  N   UNL     1      -6.879   5.465   1.524  0.00  0.00    -0.044 NA
ATOM     34  N   UNL     1      -6.926   5.030   2.738  0.00  0.00    -0.228 N 
BRANCH  34  35
ATOM     35  C   UNL     1      -8.113   4.530   3.437  0.00  0.00    +0.178 C 
BRANCH  35  36
ATOM     36  C   UNL     1      -8.813   5.691   4.147  0.00  0.00    +0.140 C 
ATOM     37  C   UNL     1      -9.998   5.156   4.980  0.00  0.00    +0.035 C 
ATOM     38  C   UNL     1     -11.078   6.250   4.756  0.00  0.00    +0.031 C 
ATOM     39  C   UNL     1     -10.772   6.671   3.297  0.00  0.00    +0.160 C 
ATOM     40  O   UNL     1      -9.342   6.605   3.180  0.00  0.00    -0.375 OA
ENDBRANCH  35  36
ENDBRANCH  34  35
ENDBRANCH   1  30
TORSDOF 7
