REMARK  Name = ZINC63194234
REMARK  5 active torsions:
REMARK  status: ('A' for Active; 'I' for Inactive)
REMARK    1  A    between atoms: C_7  and  C_10
REMARK    2  A    between atoms: C_10  and  C_12
REMARK    3  A    between atoms: C_10  and  C_26
REMARK    4  A    between atoms: C_12  and  N_13
REMARK    5  A    between atoms: C_14  and  C_16
REMARK                            x       y       z     vdW  Elec       q    Type
REMARK                         _______ _______ _______ _____ _____    ______ ____
ROOT
ATOM      1  C   UNL     1       0.721  -3.210  -0.005  0.00  0.00    +0.066 C 
ENDROOT
BRANCH   1   8
ATOM      2  C   UNL     1       0.019   1.324   0.083  0.00  0.00    +0.001 A 
ATOM      3  C   UNL     1       1.201   2.076   0.070  0.00  0.00    +0.002 A 
ATOM      4  C   UNL     1       2.426   1.509   0.035  0.00  0.00    +0.026 A 
ATOM      5  C   UNL     1       2.562   0.093   0.009  0.00  0.00    +0.043 A 
ATOM      6  N   UNL     1       3.619  -0.681  -0.026  0.00  0.00    -0.380 N 
ATOM      7  C   UNL     1       3.174  -2.079  -0.039  0.00  0.00    +0.145 C 
ATOM      8  C   UNL     1       1.663  -2.034  -0.005  0.00  0.00    -0.033 C 
ATOM      9  C   UNL     1       1.328  -0.724   0.023  0.00  0.00    -0.000 A 
ATOM     10  C   UNL     1       0.036  -0.029   0.062  0.00  0.00    +0.010 A 
ATOM     11  H   UNL     1       4.541  -0.381  -0.042  0.00  0.00    +0.160 HD
ENDBRANCH   1   8
BRANCH   1  12
ATOM     12  C   UNL     1       0.987  -4.066   1.206  0.00  0.00    -0.020 A 
ATOM     13  C   UNL     1       2.235  -4.632   1.392  0.00  0.00    +0.006 A 
ATOM     14  C   UNL     1       2.480  -5.417   2.503  0.00  0.00    +0.000 A 
ATOM     15  C   UNL     1       1.477  -5.638   3.429  0.00  0.00    +0.001 A 
ATOM     16  C   UNL     1       0.229  -5.073   3.244  0.00  0.00    +0.020 A 
ATOM     17  C   UNL     1      -0.015  -4.282   2.135  0.00  0.00    +0.045 A 
ATOM     18 CL   UNL     1      -1.580  -3.567   1.906  0.00  0.00    -0.083 Cl
ENDBRANCH   1  12
BRANCH   1  19
ATOM     19  C   UNL     1       0.938  -4.038  -1.273  0.00  0.00    +0.117 C 
BRANCH  19  20
ATOM     20  N   UNL     1      -0.057  -5.112  -1.331  0.00  0.00    -0.310 N 
ATOM     21  C   UNL     1      -0.058  -5.974  -2.367  0.00  0.00    +0.251 C 
ATOM     22  O   UNL     1       0.706  -5.806  -3.300  0.00  0.00    -0.270 OA
ATOM     23  H   UNL     1      -0.714  -5.203  -0.624  0.00  0.00    +0.149 HD
BRANCH  21  24
ATOM     24  C   UNL     1      -0.981  -7.115  -2.371  0.00  0.00    +0.119 A 
ATOM     25  C   UNL     1      -0.909  -8.082  -3.376  0.00  0.00    +0.132 A 
ATOM     26  N   UNL     1      -1.764  -9.092  -3.349  0.00  0.00    -0.231 NA
ATOM     27  C   UNL     1      -2.671  -9.213  -2.401  0.00  0.00    +0.172 A 
ATOM     28  N   UNL     1      -2.794  -8.336  -1.361  0.00  0.00    -0.286 N 
ATOM     29  C   UNL     1      -1.954  -7.257  -1.354  0.00  0.00    +0.267 A 
ATOM     30  O   UNL     1      -2.046  -6.416  -0.477  0.00  0.00    -0.267 OA
ATOM     31  C   UNL     1      -3.795  -8.636  -0.331  0.00  0.00    +0.138 C 
ATOM     32  C   UNL     1      -4.901  -9.582  -0.854  0.00  0.00    +0.099 C 
ATOM     33  S   UNL     1      -3.939 -10.446  -2.164  0.00  0.00    -0.086 S 
ENDBRANCH  21  24
ENDBRANCH  19  20
ENDBRANCH   1  19
TORSDOF 5
