REMARK  Name = ZINC35026659
REMARK  9 active torsions:
REMARK  status: ('A' for Active; 'I' for Inactive)
REMARK    1  A    between atoms: C_1  and  C_2
REMARK    2  A    between atoms: C_2  and  C_3
REMARK    3  A    between atoms: C_3  and  C_5
REMARK    4  A    between atoms: C_3  and  N_18
REMARK    5  A    between atoms: N_15  and  C_16
REMARK    6  A    between atoms: C_16  and  C_17
REMARK    7  A    between atoms: N_18  and  C_19
REMARK    8  A    between atoms: C_19  and  C_20
REMARK    9  A    between atoms: N_23  and  C_24
REMARK                            x       y       z     vdW  Elec       q    Type
REMARK                         _______ _______ _______ _____ _____    ______ ____
ROOT
ATOM      1  N   UNL     1      -1.614  -0.052   1.011  0.00  0.00    -0.276 N 
ATOM      2  C   UNL     1      -2.616   0.849   1.028  0.00  0.00    +0.303 C 
ATOM      3  O   UNL     1      -3.067   1.276  -0.017  0.00  0.00    -0.253 OA
ATOM      4  N   UNL     1      -3.117   1.277   2.204  0.00  0.00    -0.294 N 
ATOM      5  H   UNL     1      -2.757   0.936   3.038  0.00  0.00    +0.151 HD
ENDROOT
BRANCH   4   6
ATOM      6  C   UNL     1      -4.207   2.256   2.222  0.00  0.00    +0.037 C 
ATOM      7  C   UNL     1      -3.750   3.540   1.526  0.00  0.00    +0.029 C 
ATOM      8  C   UNL     1      -4.888   4.563   1.545  0.00  0.00    -0.008 C 
ATOM      9  C   UNL     1      -5.268   4.876   2.994  0.00  0.00    +0.007 C 
ATOM     10  C   UNL     1      -5.724   3.592   3.690  0.00  0.00    -0.008 C 
ATOM     11  C   UNL     1      -4.587   2.569   3.671  0.00  0.00    +0.029 C 
ATOM     12  C   UNL     1      -6.938   3.019   2.957  0.00  0.00    +0.007 C 
ATOM     13  C   UNL     1      -6.558   2.706   1.508  0.00  0.00    -0.008 C 
ATOM     14  C   UNL     1      -6.102   3.989   0.812  0.00  0.00    +0.007 C 
ATOM     15  C   UNL     1      -5.421   1.683   1.489  0.00  0.00    +0.029 C 
ENDBRANCH   4   6
BRANCH   1  16
ATOM     16  C   UNL     1      -1.070  -0.567   2.271  0.00  0.00    +0.107 C 
ATOM     17  C   UNL     1       0.084   0.327   2.731  0.00  0.00    +0.024 C 
ENDBRANCH   1  16
BRANCH   1  18
ATOM     18  C   UNL     1      -1.068  -0.518  -0.266  0.00  0.00    +0.143 C 
BRANCH  18  19
ATOM     19  C   UNL     1      -1.247  -2.010  -0.375  0.00  0.00    +0.134 A 
ATOM     20  N   UNL     1      -0.590  -2.770   0.447  0.00  0.00    -0.232 NA
ATOM     21  C   UNL     1      -0.701  -4.122   0.409  0.00  0.00    +0.078 A 
ATOM     22  C   UNL     1       0.004  -4.940   1.294  0.00  0.00    +0.028 A 
ATOM     23  C   UNL     1      -0.139  -6.308   1.219  0.00  0.00    +0.002 A 
ATOM     24  C   UNL     1      -0.977  -6.885   0.273  0.00  0.00    +0.001 A 
ATOM     25  C   UNL     1      -1.683  -6.098  -0.610  0.00  0.00    +0.015 A 
ATOM     26  C   UNL     1      -1.552  -4.712  -0.551  0.00  0.00    +0.065 A 
ATOM     27  C   UNL     1      -2.281  -3.823  -1.468  0.00  0.00    +0.262 A 
ATOM     28  O   UNL     1      -3.031  -4.267  -2.318  0.00  0.00    -0.267 OA
ATOM     29  N   UNL     1      -2.091  -2.490  -1.325  0.00  0.00    -0.295 N 
BRANCH  29  30
ATOM     30  C   UNL     1      -2.796  -1.558  -2.208  0.00  0.00    +0.123 C 
ATOM     31  C   UNL     1      -1.891  -1.183  -3.383  0.00  0.00    +0.027 C 
ENDBRANCH  29  30
ENDBRANCH  18  19
BRANCH  18  33
ATOM     32  C   UNL     1       0.596   1.345  -0.340  0.00  0.00    +0.006 C 
ATOM     33  C   UNL     1       0.421  -0.175  -0.340  0.00  0.00    +0.027 C 
ENDBRANCH  18  33
ENDBRANCH   1  18
TORSDOF 6
