REMARK  Name = ZINC09792375
REMARK  8 active torsions:
REMARK  status: ('A' for Active; 'I' for Inactive)
REMARK    1  A    between atoms: C_4  and  C_7
REMARK    2  A    between atoms: N_11  and  C_12
REMARK    3  A    between atoms: C_12  and  C_19
REMARK    4  A    between atoms: C_13  and  C_14
REMARK    5  A    between atoms: C_19  and  O_21
REMARK    6  A    between atoms: O_21  and  C_22
REMARK    7  A    between atoms: C_22  and  C_23
REMARK    8  A    between atoms: N_25  and  C_26
REMARK                            x       y       z     vdW  Elec       q    Type
REMARK                         _______ _______ _______ _____ _____    ______ ____
ROOT
ATOM      1  C   UNL     1      -9.472   1.312   3.775  0.00  0.00    +0.157 C 
ATOM      2  C   UNL     1     -10.752   1.028   4.143  0.00  0.00    +0.081 C 
ENDROOT
BRANCH   1   7
ATOM      3  C   UNL     1      -8.737   3.636   4.229  0.00  0.00    +0.187 A 
ATOM      4  N   UNL     1      -7.920   4.173   5.112  0.00  0.00    -0.108 NA
ATOM      5  N   UNL     1      -7.416   3.267   5.868  0.00  0.00    -0.022 NA
ATOM      6  N   UNL     1      -7.864   2.103   5.542  0.00  0.00    -0.038 NA
ATOM      7  N   UNL     1      -8.746   2.292   4.463  0.00  0.00    -0.186 N 
BRANCH   3  11
ATOM      8  C   UNL     1     -10.931   5.695   1.230  0.00  0.00    +0.000 A 
ATOM      9  C   UNL     1     -10.397   6.396   2.296  0.00  0.00    +0.001 A 
ATOM     10  C   UNL     1      -9.683   5.733   3.273  0.00  0.00    +0.011 A 
ATOM     11  C   UNL     1      -9.501   4.353   3.184  0.00  0.00    +0.021 A 
ATOM     12  C   UNL     1     -10.038   3.652   2.104  0.00  0.00    +0.011 A 
ATOM     13  C   UNL     1     -10.755   4.326   1.136  0.00  0.00    +0.001 A 
ENDBRANCH   3  11
ENDBRANCH   1   7
BRANCH   2  14
ATOM     14  C   UNL     1     -11.379   1.784   5.161  0.00  0.00    +0.130 A 
ATOM     15  C   UNL     1     -12.629   1.548   5.697  0.00  0.00    +0.049 A 
ATOM     16  C   UNL     1     -12.840   2.537   6.670  0.00  0.00    +0.042 A 
ATOM     17  C   UNL     1     -11.738   3.319   6.690  0.00  0.00    +0.195 A 
ATOM     18  O   UNL     1     -10.859   2.861   5.787  0.00  0.00    -0.463 OA
ENDBRANCH   2  14
BRANCH   1  19
ATOM     19  C   UNL     1      -8.856   0.594   2.660  0.00  0.00    +0.358 C 
ATOM     20  O   UNL     1      -9.514  -0.191   2.004  0.00  0.00    -0.243 OA
BRANCH  19  21
ATOM     21  O   UNL     1      -7.556   0.801   2.360  0.00  0.00    -0.451 OA
BRANCH  21  22
ATOM     22  C   UNL     1      -7.049   0.151   1.193  0.00  0.00    +0.328 C 
BRANCH  22  23
ATOM     23  C   UNL     1      -5.628   0.592   0.950  0.00  0.00    +0.251 C 
ATOM     24  O   UNL     1      -5.072   1.312   1.752  0.00  0.00    -0.272 OA
ATOM     25  N   UNL     1      -4.976   0.186  -0.158  0.00  0.00    -0.307 N 
ATOM     26  H   UNL     1      -5.443  -0.332  -0.832  0.00  0.00    +0.149 HD
BRANCH  25  27
ATOM     27  C   UNL     1      -3.564   0.528  -0.343  0.00  0.00    +0.035 C 
ATOM     28  C   UNL     1      -3.043  -0.133  -1.621  0.00  0.00    +0.029 C 
ATOM     29  C   UNL     1      -1.568   0.224  -1.814  0.00  0.00    -0.008 C 
ATOM     30  C   UNL     1      -0.760  -0.276  -0.615  0.00  0.00    +0.007 C 
ATOM     31  C   UNL     1      -1.281   0.385   0.662  0.00  0.00    -0.008 C 
ATOM     32  C   UNL     1      -2.756   0.028   0.856  0.00  0.00    +0.029 C 
ATOM     33  C   UNL     1      -1.135   1.904   0.547  0.00  0.00    +0.007 C 
ATOM     34  C   UNL     1      -1.943   2.404  -0.652  0.00  0.00    -0.008 C 
ATOM     35  C   UNL     1      -1.422   1.743  -1.930  0.00  0.00    +0.007 C 
ATOM     36  C   UNL     1      -3.418   2.047  -0.459  0.00  0.00    +0.029 C 
ENDBRANCH  25  27
ENDBRANCH  22  23
ENDBRANCH  21  22
ENDBRANCH  19  21
ENDBRANCH   1  19
TORSDOF 8
