REMARK  Name = ZINC02962634
REMARK  7 active torsions:
REMARK  status: ('A' for Active; 'I' for Inactive)
REMARK    1  A    between atoms: C_1  and  C_2
REMARK    2  A    between atoms: C_2  and  O_3
REMARK    3  A    between atoms: O_3  and  C_4
REMARK    4  A    between atoms: C_4  and  C_6
REMARK    5  A    between atoms: C_12  and  N_30
REMARK    6  A    between atoms: C_17  and  C_29
REMARK    7  A    between atoms: N_18  and  C_22
REMARK                            x       y       z     vdW  Elec       q    Type
REMARK                         _______ _______ _______ _____ _____    ______ ____
ROOT
ATOM      1  C   UNL     1       0.026   4.616   0.398  0.00  0.00    +0.185 C 
ATOM      2  C   UNL     1       1.109   3.556   0.142  0.00  0.00    +0.125 C 
ATOM      3  C   UNL     1       0.618   2.235   0.689  0.00  0.00    +0.018 A 
ATOM      4  C   UNL     1       1.544   1.272   1.048  0.00  0.00    +0.041 A 
ATOM      5  C   UNL     1       1.122   0.049   1.534  0.00  0.00    +0.127 A 
ATOM      6  C   UNL     1      -0.230  -0.213   1.661  0.00  0.00    +0.036 A 
ATOM      7  C   UNL     1      -1.157   0.746   1.307  0.00  0.00    +0.048 A 
ATOM      8  C   UNL     1      -0.735   1.980   0.821  0.00  0.00    +0.129 A 
ATOM      9  O   UNL     1      -1.675   2.906   0.499  0.00  0.00    -0.467 OA
ATOM     10  C   UNL     1      -1.279   4.074  -0.203  0.00  0.00    +0.196 C 
ATOM     11  N   UNL     1      -1.062   3.743  -1.608  0.00  0.00    -0.243 N 
ATOM     12  C   UNL     1       0.158   3.465  -2.094  0.00  0.00    +0.141 C 
ATOM     13  S   UNL     1       0.334   3.190  -3.774  0.00  0.00    -0.018 S 
ATOM     14  N   UNL     1       1.264   3.399  -1.314  0.00  0.00    -0.318 N 
ATOM     15  C   UNL     1      -2.369   5.142  -0.095  0.00  0.00    +0.080 C 
ATOM     16  H   UNL     1       2.143   3.251  -1.697  0.00  0.00    +0.148 HD
ENDROOT
BRANCH  11  17
ATOM     17  C   UNL     1      -2.160   3.715  -2.476  0.00  0.00    +0.039 A 
ATOM     18  C   UNL     1      -2.937   2.568  -2.577  0.00  0.00    +0.026 A 
ATOM     19  C   UNL     1      -4.023   2.544  -3.429  0.00  0.00    +0.040 A 
ATOM     20  C   UNL     1      -4.332   3.659  -4.191  0.00  0.00    +0.124 A 
ATOM     21  C   UNL     1      -3.555   4.801  -4.096  0.00  0.00    +0.040 A 
ATOM     22  C   UNL     1      -2.471   4.831  -3.241  0.00  0.00    +0.026 A 
ATOM     23  F   UNL     1      -5.392   3.631  -5.028  0.00  0.00    -0.205 F 
ENDBRANCH  11  17
BRANCH   5  24
ATOM     24  N   UNL     1       2.115  -0.978   1.918  0.00  0.00    +0.056 N 
ATOM     25  O   UNL     1       1.742  -2.056   2.346  0.00  0.00    -0.126 OA
ATOM     26  O   UNL     1       3.306  -0.746   1.806  0.00  0.00    -0.126 OA
ENDBRANCH   5  24
BRANCH   1  27
ATOM     27  C   UNL     1      -0.141   4.833   1.880  0.00  0.00    +0.318 C 
ATOM     28  O   UNL     1      -1.210   4.627   2.404  0.00  0.00    -0.250 OA
BRANCH  27  29
ATOM     29  O   UNL     1       0.898   5.256   2.618  0.00  0.00    -0.465 OA
BRANCH  29  31
ATOM     30  C   UNL     1       1.953   5.925   4.708  0.00  0.00    +0.048 C 
ATOM     31  C   UNL     1       0.664   5.444   4.039  0.00  0.00    +0.229 C 
ENDBRANCH  29  31
ENDBRANCH  27  29
ENDBRANCH   1  27
TORSDOF 5
