REMARK  Name = ZINC09781648
REMARK  11 active torsions:
REMARK  status: ('A' for Active; 'I' for Inactive)
REMARK    1  A    between atoms: C_1  and  C_2
REMARK    2  A    between atoms: C_5  and  S_8
REMARK    3  A    between atoms: S_8  and  N_11
REMARK    4  A    between atoms: C_16  and  C_18
REMARK    5  A    between atoms: C_18  and  O_20
REMARK    6  A    between atoms: O_20  and  C_21
REMARK    7  A    between atoms: C_21  and  C_22
REMARK    8  A    between atoms: N_24  and  C_25
REMARK    9  A    between atoms: C_27  and  C_33
REMARK   10  A    between atoms: C_30  and  O_31
REMARK   11  A    between atoms: O_31  and  C_32
REMARK                            x       y       z     vdW  Elec       q    Type
REMARK                         _______ _______ _______ _____ _____    ______ ____
ROOT
ATOM      1  C   UNL     1      -1.932   3.504  -2.070  0.00  0.00    +0.327 C 
ATOM      2  O   UNL     1      -3.097   3.487  -1.750  0.00  0.00    -0.249 OA
ENDROOT
BRANCH   1   8
ATOM      3  N   UNL     1      -0.949   1.781  -0.663  0.00  0.00    -0.163 NA
ATOM      4  C   UNL     1      -0.094   1.296   0.429  0.00  0.00    +0.110 C 
ATOM      5  C   UNL     1      -0.312   2.182   1.660  0.00  0.00    +0.017 C 
ATOM      6  C   UNL     1      -0.079   3.646   1.278  0.00  0.00    +0.003 C 
ATOM      7  C   UNL     1      -1.079   4.061   0.197  0.00  0.00    +0.032 C 
ATOM      8  C   UNL     1      -0.866   3.196  -1.050  0.00  0.00    +0.188 C 
BRANCH   3   9
ATOM      9  S   UNL     1      -1.986   0.753  -1.443  0.00  0.00    +0.062 S 
ATOM     10  O   UNL     1      -2.253   1.332  -2.713  0.00  0.00    -0.153 OA
ATOM     11  O   UNL     1      -1.445  -0.554  -1.300  0.00  0.00    -0.153 OA
BRANCH   9  16
ATOM     12  C   UNL     1      -7.190   0.809   1.609  0.00  0.00    +0.044 C 
ATOM     13  C   UNL     1      -5.890   0.795   0.847  0.00  0.00    -0.050 A 
ATOM     14  C   UNL     1      -5.792   1.454  -0.364  0.00  0.00    +0.005 A 
ATOM     15  C   UNL     1      -4.600   1.441  -1.064  0.00  0.00    +0.029 A 
ATOM     16  C   UNL     1      -3.505   0.769  -0.552  0.00  0.00    +0.106 A 
ATOM     17  C   UNL     1      -3.605   0.106   0.657  0.00  0.00    +0.029 A 
ATOM     18  C   UNL     1      -4.796   0.124   1.359  0.00  0.00    +0.005 A 
ENDBRANCH   9  16
ENDBRANCH   3   9
ENDBRANCH   1   8
BRANCH   1  19
ATOM     19  O   UNL     1      -1.586   3.798  -3.333  0.00  0.00    -0.454 OA
BRANCH  19  20
ATOM     20  C   UNL     1      -2.665   4.084  -4.262  0.00  0.00    +0.328 C 
BRANCH  20  21
ATOM     21  C   UNL     1      -2.090   4.389  -5.621  0.00  0.00    +0.255 C 
ATOM     22  O   UNL     1      -0.890   4.367  -5.791  0.00  0.00    -0.272 OA
ATOM     23  N   UNL     1      -2.911   4.686  -6.649  0.00  0.00    -0.280 N 
ATOM     24  H   UNL     1      -3.872   4.642  -6.530  0.00  0.00    +0.155 HD
BRANCH  23  25
ATOM     25  C   UNL     1      -2.374   5.057  -7.889  0.00  0.00    +0.076 A 
ATOM     26  C   UNL     1      -1.071   5.526  -7.970  0.00  0.00    +0.030 A 
ATOM     27  C   UNL     1      -0.543   5.888  -9.195  0.00  0.00    -0.048 A 
ATOM     28  C   UNL     1      -1.313   5.793 -10.339  0.00  0.00    +0.007 A 
ATOM     29  C   UNL     1      -2.614   5.331 -10.265  0.00  0.00    +0.048 A 
ATOM     30  C   UNL     1      -3.150   4.962  -9.042  0.00  0.00    +0.141 A 
ATOM     31  C   UNL     1       0.875   6.392  -9.283  0.00  0.00    +0.044 C 
BRANCH  30  32
ATOM     32  O   UNL     1      -4.429   4.508  -8.967  0.00  0.00    -0.493 OA
ATOM     33  C   UNL     1      -5.165   4.437 -10.190  0.00  0.00    +0.277 C 
ENDBRANCH  30  32
ENDBRANCH  23  25
ENDBRANCH  20  21
ENDBRANCH  19  20
ENDBRANCH   1  19
TORSDOF 8
