REMARK  Name = ZINC14888962
REMARK  11 active torsions:
REMARK  status: ('A' for Active; 'I' for Inactive)
REMARK    1  A    between atoms: C_1  and  C_2
REMARK    2  A    between atoms: C_2  and  O_3
REMARK    3  A    between atoms: O_3  and  C_4
REMARK    4  A    between atoms: C_9  and  N_12
REMARK    5  A    between atoms: C_13  and  C_15
REMARK    6  A    between atoms: C_23  and  C_24
REMARK    7  A    between atoms: C_23  and  N_71
REMARK    8  A    between atoms: C_24  and  C_25
REMARK    9  A    between atoms: C_25  and  C_27
REMARK   10  A    between atoms: C_25  and  C_28
REMARK   11  A    between atoms: C_31  and  C_33
REMARK                            x       y       z     vdW  Elec       q    Type
REMARK                         _______ _______ _______ _____ _____    ______ ____
ROOT
ATOM      1  C   UNL     1      -7.401   0.842  -3.800  0.00  0.00    +0.082 C 
ATOM      2  C   UNL     1      -7.017   0.992  -5.274  0.00  0.00    +0.020 C 
ATOM      3  C   UNL     1      -6.066   1.479  -4.183  0.00  0.00    -0.021 C 
ATOM      4  C   UNL     1      -5.915   2.991  -3.989  0.00  0.00    -0.011 C 
ATOM      5  C   UNL     1      -5.280   3.248  -2.618  0.00  0.00    -0.078 C 
ATOM      6  C   UNL     1      -4.222   1.063  -2.564  0.00  0.00    -0.078 C 
ATOM      7  C   UNL     1      -4.790   0.669  -3.931  0.00  0.00    -0.011 C 
ATOM      8  N   UNL     1      -3.991   2.524  -2.546  0.00  0.00    +0.380 N 
ATOM      9  H   UNL     1      -3.421   2.780  -3.360  0.00  0.00    -0.082 HD
ENDROOT
BRANCH   1  11
ATOM     10  N   UNL     1      -8.512   2.058  -1.954  0.00  0.00    -0.312 N 
ATOM     11  C   UNL     1      -8.478   1.751  -3.266  0.00  0.00    +0.217 C 
ATOM     12  O   UNL     1      -9.314   2.207  -4.017  0.00  0.00    -0.275 OA
ATOM     13  H   UNL     1      -7.843   1.693  -1.353  0.00  0.00    +0.149 HD
BRANCH  10  19
ATOM     14  C   UNL     1     -10.543   5.879   1.262  0.00  0.00    +0.403 C 
ATOM     15  O   UNL     1     -10.808   5.562   2.405  0.00  0.00    -0.226 OA
ATOM     16  N   UNL     1     -10.560   4.952   0.284  0.00  0.00    -0.267 N 
ATOM     17  C   UNL     1     -10.897   3.554   0.584  0.00  0.00    +0.113 C 
ATOM     18  C   UNL     1      -9.778   2.652   0.052  0.00  0.00    +0.041 C 
ATOM     19  C   UNL     1      -9.559   2.941  -1.434  0.00  0.00    +0.076 C 
ATOM     20  C   UNL     1      -9.130   4.399  -1.615  0.00  0.00    +0.041 C 
ATOM     21  C   UNL     1     -10.242   5.321  -1.103  0.00  0.00    +0.113 C 
BRANCH  14  22
ATOM     22  O   UNL     1     -10.233   7.157   0.973  0.00  0.00    -0.451 OA
BRANCH  22  24
ATOM     23  C   UNL     1      -9.861   9.492   1.558  0.00  0.00    +0.048 C 
ATOM     24  C   UNL     1     -10.234   8.101   2.076  0.00  0.00    +0.230 C 
ENDBRANCH  22  24
ENDBRANCH  14  22
ENDBRANCH  10  19
ENDBRANCH   1  11
BRANCH   8  25
ATOM     25  C   UNL     1      -3.268   2.905  -1.316  0.00  0.00    -0.078 C 
BRANCH  25  26
ATOM     26  C   UNL     1      -4.059   2.489  -0.073  0.00  0.00    -0.008 C 
BRANCH  26  27
ATOM     27  C   UNL     1      -3.263   2.852   1.182  0.00  0.00    +0.050 C 
ATOM     28  C   UNL     1      -3.128   4.373   1.279  0.00  0.00    +0.015 C 
BRANCH  27  29
ATOM     29  C   UNL     1      -3.983   2.333   2.400  0.00  0.00    +0.108 A 
ATOM     30  C   UNL     1      -3.492   1.448   3.286  0.00  0.00    +0.045 A 
ATOM     31  C   UNL     1      -4.498   1.242   4.258  0.00  0.00    +0.044 A 
ATOM     32  C   UNL     1      -5.543   2.013   3.909  0.00  0.00    +0.102 A 
ATOM     33  O   UNL     1      -5.225   2.672   2.782  0.00  0.00    -0.465 OA
ATOM     34  C   UNL     1      -6.848   2.120   4.654  0.00  0.00    +0.086 C 
ENDBRANCH  27  29
ENDBRANCH  26  27
ENDBRANCH  25  26
ENDBRANCH   8  25
TORSDOF 8
