REMARK  Name = ZINC44841476
REMARK  7 active torsions:
REMARK  status: ('A' for Active; 'I' for Inactive)
REMARK    1  A    between atoms: C_1  and  C_2
REMARK    2  A    between atoms: C_2  and  C_3
REMARK    3  A    between atoms: C_2  and  C_4
REMARK    4  A    between atoms: C_2  and  C_5
REMARK    5  A    between atoms: N_15  and  C_16
REMARK    6  A    between atoms: C_16  and  C_17
REMARK    7  A    between atoms: N_19  and  C_20
REMARK                            x       y       z     vdW  Elec       q    Type
REMARK                         _______ _______ _______ _____ _____    ______ ____
ROOT
ATOM      1  C   UNL     1       0.747  -0.511  -1.234  0.00  0.00    -0.038 A 
ATOM      2  C   UNL     1       0.070  -1.305  -2.141  0.00  0.00    +0.006 A 
ATOM      3  C   UNL     1       0.705  -1.748  -3.287  0.00  0.00    +0.027 A 
ATOM      4  C   UNL     1       2.023  -1.394  -3.525  0.00  0.00    +0.079 A 
ATOM      5  C   UNL     1       2.705  -0.594  -2.610  0.00  0.00    +0.143 A 
ATOM      6  C   UNL     1       2.062  -0.150  -1.468  0.00  0.00    +0.051 A 
ATOM      7  O   UNL     1       4.000  -0.255  -2.853  0.00  0.00    -0.481 OA
ATOM      8  C   UNL     1       4.796  -1.217  -3.549  0.00  0.00    +0.325 C 
ATOM      9  C   UNL     1       4.032  -1.744  -4.737  0.00  0.00    +0.258 C 
ATOM     10  O   UNL     1       4.623  -2.088  -5.738  0.00  0.00    -0.271 OA
ATOM     11  N   UNL     1       2.685  -1.832  -4.681  0.00  0.00    -0.257 N 
ENDROOT
BRANCH   1  13
ATOM     12  C   UNL     1       0.021   1.498   0.025  0.00  0.00    +0.015 C 
ATOM     13  C   UNL     1       0.048  -0.032   0.012  0.00  0.00    -0.013 C 
ATOM     14  C   UNL     1       0.798  -0.539   1.245  0.00  0.00    +0.015 C 
ATOM     15  C   UNL     1      -1.385  -0.567   0.031  0.00  0.00    +0.015 C 
ENDBRANCH   1  13
BRANCH  11  16
ATOM     16  C   UNL     1       1.928  -2.376  -5.811  0.00  0.00    +0.209 C 
BRANCH  16  17
ATOM     17  C   UNL     1       1.560  -1.259  -6.754  0.00  0.00    +0.235 C 
ATOM     18  O   UNL     1       1.897  -0.120  -6.506  0.00  0.00    -0.274 OA
ATOM     19  N   UNL     1       0.856  -1.525  -7.872  0.00  0.00    -0.282 N 
ATOM     20  H   UNL     1       0.642  -2.442  -8.103  0.00  0.00    +0.155 HD
BRANCH  19  21
ATOM     21  C   UNL     1       0.434  -0.476  -8.700  0.00  0.00    +0.069 A 
ATOM     22  C   UNL     1       1.230   0.650  -8.856  0.00  0.00    +0.029 A 
ATOM     23  C   UNL     1       0.811   1.683  -9.673  0.00  0.00    +0.040 A 
ATOM     24  C   UNL     1      -0.401   1.596 -10.337  0.00  0.00    +0.126 A 
ATOM     25  C   UNL     1      -1.198   0.474 -10.183  0.00  0.00    +0.078 A 
ATOM     26  C   UNL     1      -0.781  -0.565  -9.371  0.00  0.00    +0.147 A 
ATOM     27  F   UNL     1      -1.555  -1.663  -9.226  0.00  0.00    -0.203 F 
ATOM     28  F   UNL     1      -0.807   2.607 -11.135  0.00  0.00    -0.205 F 
ENDBRANCH  19  21
ENDBRANCH  16  17
ENDBRANCH  11  16
TORSDOF 4
