REMARK  Name = ZINC12713361
REMARK  11 active torsions:
REMARK  status: ('A' for Active; 'I' for Inactive)
REMARK    1  A    between atoms: C_1  and  C_2
REMARK    2  A    between atoms: C_2  and  C_3
REMARK    3  A    between atoms: C_2  and  C_4
REMARK    4  A    between atoms: C_4  and  C_5
REMARK    5  A    between atoms: C_5  and  N_6
REMARK    6  A    between atoms: C_7  and  C_9
REMARK    7  A    between atoms: C_9  and  C_11
REMARK    8  A    between atoms: C_9  and  N_17
REMARK    9  A    between atoms: N_17  and  C_18
REMARK   10  A    between atoms: C_28  and  C_30
REMARK   11  A    between atoms: C_30  and  N_31
REMARK                            x       y       z     vdW  Elec       q    Type
REMARK                         _______ _______ _______ _____ _____    ______ ____
ROOT
ATOM      1  N   UNL     1       3.710  -0.738   0.321  0.00  0.00    -0.254 N 
ATOM      2  C   UNL     1       4.880  -0.071   0.375  0.00  0.00    +0.242 C 
ATOM      3  O   UNL     1       5.916  -0.641   0.105  0.00  0.00    -0.273 OA
ENDROOT
BRANCH   1   4
ATOM      4  C   UNL     1       2.504  -0.055   0.526  0.00  0.00    +0.041 A 
ATOM      5  C   UNL     1       1.759  -0.290   1.675  0.00  0.00    +0.027 A 
ATOM      6  C   UNL     1       0.570   0.382   1.876  0.00  0.00    +0.051 A 
ATOM      7  C   UNL     1       0.115   1.293   0.934  0.00  0.00    +0.162 A 
ATOM      8  C   UNL     1       0.860   1.532  -0.215  0.00  0.00    +0.164 A 
ATOM      9  C   UNL     1       2.053   0.856  -0.418  0.00  0.00    +0.073 A 
ATOM     10  O   UNL     1       0.434   2.428  -1.147  0.00  0.00    -0.485 OA
ATOM     11  C   UNL     1      -0.945   2.809  -1.092  0.00  0.00    +0.270 C 
ATOM     12  C   UNL     1      -1.300   3.119   0.369  0.00  0.00    +0.270 C 
ATOM     13  O   UNL     1      -1.065   1.940   1.147  0.00  0.00    -0.485 OA
ENDBRANCH   1   4
BRANCH   1  14
ATOM     14  C   UNL     1       3.699  -2.177   0.049  0.00  0.00    +0.197 C 
BRANCH  14  15
ATOM     15  C   UNL     1       2.293  -2.703   0.182  0.00  0.00    -0.018 A 
ATOM     16  C   UNL     1       1.292  -2.212  -0.634  0.00  0.00    +0.006 A 
ATOM     17  C   UNL     1       0.003  -2.698  -0.515  0.00  0.00    +0.000 A 
ATOM     18  C   UNL     1      -0.286  -3.668   0.426  0.00  0.00    +0.000 A 
ATOM     19  C   UNL     1       0.715  -4.156   1.246  0.00  0.00    +0.000 A 
ATOM     20  C   UNL     1       2.005  -3.673   1.124  0.00  0.00    +0.006 A 
ENDBRANCH  14  15
BRANCH  14  22
ATOM     21  N   UNL     1       4.276  -3.687  -1.824  0.00  0.00    -0.313 N 
ATOM     22  C   UNL     1       4.199  -2.427  -1.351  0.00  0.00    +0.238 C 
ATOM     23  O   UNL     1       4.531  -1.495  -2.052  0.00  0.00    -0.273 OA
ATOM     24  H   UNL     1       4.011  -4.433  -1.264  0.00  0.00    +0.149 HD
BRANCH  21  25
ATOM     25  C   UNL     1       4.762  -3.930  -3.185  0.00  0.00    +0.104 C 
BRANCH  25  26
ATOM     26  C   UNL     1       4.751  -5.433  -3.470  0.00  0.00    +0.022 C 
BRANCH  26  28
ATOM     27  C   UNL     1       6.726  -5.266  -4.991  0.00  0.00    +0.007 C 
ATOM     28  C   UNL     1       5.258  -5.686  -4.891  0.00  0.00    -0.016 C 
ATOM     29  C   UNL     1       5.130  -7.175  -5.220  0.00  0.00    +0.007 C 
ENDBRANCH  26  28
ENDBRANCH  25  26
ENDBRANCH  21  25
ENDBRANCH  14  22
ENDBRANCH   1  14
BRANCH   2  30
ATOM     30  C   UNL     1       4.901   1.383   0.770  0.00  0.00    +0.242 C 
BRANCH  30  31
ATOM     31  N   UNL     1       6.288   1.839   0.884  0.00  0.00    -0.235 N 
ATOM     32  C   UNL     1       7.073   1.811   2.012  0.00  0.00    +0.090 A 
ATOM     33  C   UNL     1       6.873   1.375   3.318  0.00  0.00    +0.029 A 
ATOM     34  C   UNL     1       7.885   1.479   4.231  0.00  0.00    +0.002 A 
ATOM     35  C   UNL     1       9.115   2.011   3.865  0.00  0.00    +0.002 A 
ATOM     36  C   UNL     1       9.338   2.440   2.590  0.00  0.00    +0.032 A 
ATOM     37  C   UNL     1       8.318   2.344   1.634  0.00  0.00    +0.113 A 
ATOM     38  N   UNL     1       8.242   2.676   0.330  0.00  0.00    -0.129 NA
ATOM     39  N   UNL     1       7.076   2.394  -0.136  0.00  0.00    -0.064 NA
ENDBRANCH  30  31
ENDBRANCH   2  30
TORSDOF 9
