REMARK  Name = ZINC08961702
REMARK  6 active torsions:
REMARK  status: ('A' for Active; 'I' for Inactive)
REMARK    1  A    between atoms: C_1  and  C_2
REMARK    2  A    between atoms: C_5  and  N_30
REMARK    3  A    between atoms: C_7  and  S_8
REMARK    4  A    between atoms: S_8  and  N_11
REMARK    5  A    between atoms: N_11  and  C_12
REMARK    6  A    between atoms: N_20  and  C_24
REMARK                            x       y       z     vdW  Elec       q    Type
REMARK                         _______ _______ _______ _____ _____    ______ ____
ROOT
ATOM      1  C   UNL     1       7.642   4.818  -0.429  0.00  0.00    +0.049 A 
ATOM      2  C   UNL     1       7.919   5.698   0.612  0.00  0.00    +0.028 A 
ATOM      3  C   UNL     1       6.917   6.103   1.472  0.00  0.00    +0.048 A 
ATOM      4  C   UNL     1       5.626   5.634   1.300  0.00  0.00    +0.133 A 
ATOM      5  C   UNL     1       5.340   4.743   0.254  0.00  0.00    +0.081 A 
ATOM      6  C   UNL     1       6.355   4.339  -0.612  0.00  0.00    +0.041 A 
ATOM      7  C   UNL     1       3.961   4.245   0.101  0.00  0.00    +0.255 C 
ATOM      8  O   UNL     1       3.745   3.058  -0.051  0.00  0.00    -0.270 OA
ATOM      9  N   UNL     1       2.938   5.134   0.128  0.00  0.00    -0.264 N 
ATOM     10  C   UNL     1       3.228   6.566   0.211  0.00  0.00    +0.155 C 
ATOM     11  C   UNL     1       3.675   6.947   1.616  0.00  0.00    +0.248 C 
ATOM     12  O   UNL     1       4.626   6.023   2.132  0.00  0.00    -0.490 OA
ENDROOT
BRANCH   9  13
ATOM     13  C   UNL     1       1.615   4.685   0.082  0.00  0.00    +0.037 A 
ATOM     14  C   UNL     1       0.825   4.959  -1.027  0.00  0.00    +0.023 A 
ATOM     15  C   UNL     1      -0.482   4.514  -1.069  0.00  0.00    +0.002 A 
ATOM     16  C   UNL     1      -1.006   3.801  -0.006  0.00  0.00    +0.000 A 
ATOM     17  C   UNL     1      -0.220   3.522   1.098  0.00  0.00    +0.002 A 
ATOM     18  C   UNL     1       1.087   3.964   1.146  0.00  0.00    +0.023 A 
ENDBRANCH   9  13
BRANCH   1  19
ATOM     19  N   UNL     1       8.666   4.416  -1.295  0.00  0.00    -0.216 N 
ATOM     20  H   UNL     1       8.520   4.421  -2.254  0.00  0.00    +0.174 HD
BRANCH  19  21
ATOM     21  S   UNL     1      10.127   3.933  -0.682  0.00  0.00    +0.073 S 
ATOM     22  O   UNL     1      10.918   3.527  -1.790  0.00  0.00    -0.150 OA
ATOM     23  O   UNL     1      10.544   4.948   0.221  0.00  0.00    -0.150 OA
BRANCH  21  30
ATOM     24  C   UNL     1       9.107   1.316  -1.804  0.00  0.00    +0.046 C 
ATOM     25  C   UNL     1       9.367   1.337  -0.319  0.00  0.00    -0.024 A 
ATOM     26  C   UNL     1       9.142   0.202   0.438  0.00  0.00    +0.007 A 
ATOM     27  C   UNL     1       9.375   0.223   1.800  0.00  0.00    +0.033 A 
ATOM     28  C   UNL     1       9.838   1.377   2.405  0.00  0.00    +0.128 A 
ATOM     29  C   UNL     1      10.067   2.510   1.647  0.00  0.00    +0.061 A 
ATOM     30  C   UNL     1       9.834   2.489   0.284  0.00  0.00    +0.114 A 
BRANCH  28  31
ATOM     31  N   UNL     1      10.087   1.400   3.863  0.00  0.00    +0.056 N 
ATOM     32  O   UNL     1      10.494   2.416   4.396  0.00  0.00    -0.126 OA
ATOM     33  O   UNL     1       9.884   0.401   4.531  0.00  0.00    -0.126 OA
ENDBRANCH  28  31
ENDBRANCH  21  30
ENDBRANCH  19  21
ENDBRANCH   1  19
TORSDOF 5
