REMARK  Name = ZINC13539335
REMARK  14 active torsions:
REMARK  status: ('A' for Active; 'I' for Inactive)
REMARK    1  A    between atoms: C_1  and  C_2
REMARK    2  A    between atoms: C_2  and  C_3
REMARK    3  A    between atoms: C_3  and  C_4
REMARK    4  A    between atoms: C_8  and  C_29
REMARK    5  A    between atoms: C_9  and  O_10
REMARK    6  A    between atoms: O_10  and  C_11
REMARK    7  A    between atoms: C_11  and  C_13
REMARK    8  A    between atoms: C_11  and  C_27
REMARK    9  A    between atoms: C_16  and  C_19
REMARK   10  A    between atoms: C_19  and  C_20
REMARK   11  A    between atoms: C_20  and  C_21
REMARK   12  A    between atoms: C_29  and  C_30
REMARK   13  A    between atoms: C_30  and  C_31
REMARK   14  A    between atoms: C_34  and  C_35
REMARK                            x       y       z     vdW  Elec       q    Type
REMARK                         _______ _______ _______ _____ _____    ______ ____
ROOT
ATOM      1  C   UNL     1       3.051   2.639  -0.754  0.00  0.00    -0.005 A 
ATOM      2  C   UNL     1       2.034   1.772  -1.031  0.00  0.00    +0.021 A 
ATOM      3  C   UNL     1       0.743   2.044  -0.572  0.00  0.00    +0.054 A 
ATOM      4  C   UNL     1       0.494   3.209   0.173  0.00  0.00    +0.174 A 
ATOM      5  C   UNL     1       1.539   4.081   0.447  0.00  0.00    +0.040 A 
ATOM      6  C   UNL     1       2.811   3.796  -0.015  0.00  0.00    +0.132 A 
ATOM      7  O   UNL     1      -0.819   3.213   0.478  0.00  0.00    -0.354 OA
ATOM      8  N   UNL     1      -1.428   2.058  -0.064  0.00  0.00    -0.073 NA
ATOM      9  C   UNL     1      -0.540   1.346  -0.689  0.00  0.00    +0.193 A 
ENDROOT
BRANCH   9  10
ATOM     10  C   UNL     1      -0.784   0.042  -1.402  0.00  0.00    +0.438 C 
ATOM     11  F   UNL     1      -2.153  -0.246  -1.393  0.00  0.00    -0.164 F 
ATOM     12  F   UNL     1      -0.338   0.143  -2.724  0.00  0.00    -0.164 F 
ATOM     13  F   UNL     1      -0.088  -0.983  -0.752  0.00  0.00    -0.164 F 
ENDBRANCH   9  10
BRANCH   1  14
ATOM     14  C   UNL     1       4.443   2.344  -1.250  0.00  0.00    +0.038 C 
BRANCH  14  16
ATOM     15  C   UNL     1       6.649   1.333  -0.655  0.00  0.00    +0.004 C 
ATOM     16  C   UNL     1       5.237   1.635  -0.150  0.00  0.00    +0.001 C 
ENDBRANCH  14  16
ENDBRANCH   1  14
BRANCH   6  17
ATOM     17  O   UNL     1       3.834   4.649   0.252  0.00  0.00    -0.472 OA
BRANCH  17  18
ATOM     18  C   UNL     1       3.741   5.965  -0.297  0.00  0.00    +0.316 C 
BRANCH  18  19
ATOM     19  C   UNL     1       4.202   6.970   0.727  0.00  0.00    +0.004 A 
ATOM     20  C   UNL     1       5.291   6.689   1.530  0.00  0.00    +0.008 A 
ATOM     21  C   UNL     1       5.717   7.614   2.465  0.00  0.00    +0.004 A 
ATOM     22  C   UNL     1       5.046   8.814   2.605  0.00  0.00    -0.047 A 
ATOM     23  C   UNL     1       3.953   9.093   1.806  0.00  0.00    +0.004 A 
ATOM     24  C   UNL     1       3.531   8.171   0.867  0.00  0.00    +0.008 A 
BRANCH  22  25
ATOM     25  C   UNL     1       5.507   9.820   3.629  0.00  0.00    +0.041 C 
BRANCH  25  26
ATOM     26  C   UNL     1       4.792   9.559   4.957  0.00  0.00    +0.060 C 
BRANCH  26  27
ATOM     27  C   UNL     1       5.253  10.565   5.980  0.00  0.00    +0.042 A 
ATOM     28  C   UNL     1       4.321  11.346   6.638  0.00  0.00    +0.023 A 
ATOM     29  C   UNL     1       4.755  12.263   7.583  0.00  0.00    +0.003 A 
ATOM     30  C   UNL     1       6.116  12.370   7.823  0.00  0.00    +0.020 A 
ATOM     31  C   UNL     1       6.989  11.560   7.122  0.00  0.00    +0.111 A 
ATOM     32  N   UNL     1       6.540  10.693   6.234  0.00  0.00    -0.260 NA
ENDBRANCH  26  27
ENDBRANCH  25  26
ENDBRANCH  22  25
ENDBRANCH  18  19
BRANCH  18  33
ATOM     33  C   UNL     1       4.614   6.060  -1.522  0.00  0.00    +0.400 C 
ATOM     34  O   UNL     1       5.387   5.169  -1.784  0.00  0.00    -0.242 OA
ATOM     35  O   UNL     1       4.531   7.134  -2.323  0.00  0.00    -0.242 OA
ENDBRANCH  18  33
ENDBRANCH  17  18
ENDBRANCH   6  17
BRANCH   5  36
ATOM     36  C   UNL     1       1.288   5.335   1.245  0.00  0.00    +0.042 C 
BRANCH  36  37
ATOM     37  C   UNL     1       1.622   5.079   2.716  0.00  0.00    +0.001 C 
ATOM     38  C   UNL     1       1.260   6.314   3.544  0.00  0.00    +0.004 C 
ENDBRANCH  36  37
ENDBRANCH   5  36
TORSDOF 12
