REMARK  Name = ZINC44879489
REMARK  10 active torsions:
REMARK  status: ('A' for Active; 'I' for Inactive)
REMARK    1  A    between atoms: C_1  and  C_2
REMARK    2  A    between atoms: C_5  and  C_8
REMARK    3  A    between atoms: C_8  and  S_9
REMARK    4  A    between atoms: S_9  and  N_12
REMARK    5  A    between atoms: C_15  and  C_18
REMARK    6  A    between atoms: N_20  and  C_21
REMARK    7  A    between atoms: C_21  and  C_22
REMARK    8  A    between atoms: C_25  and  C_28
REMARK    9  A    between atoms: C_28  and  N_29
REMARK   10  A    between atoms: C_33  and  C_36
REMARK                            x       y       z     vdW  Elec       q    Type
REMARK                         _______ _______ _______ _____ _____    ______ ____
ROOT
ATOM      1  C   UNL     1       3.617 -10.267  -0.064  0.00  0.00    +0.216 C 
ATOM      2  O   UNL     1       4.417 -10.335   0.845  0.00  0.00    -0.276 OA
ATOM      3  N   UNL     1       3.674 -11.151  -1.079  0.00  0.00    -0.311 N 
ATOM      4  H   UNL     1       3.034 -11.097  -1.806  0.00  0.00    +0.149 HD
ENDROOT
BRANCH   1   8
ATOM      5  N   UNL     1       1.666  -6.510  -0.043  0.00  0.00    -0.181 NA
ATOM      6  C   UNL     1       1.617  -7.263   1.218  0.00  0.00    +0.110 C 
ATOM      7  C   UNL     1       2.715  -8.331   1.197  0.00  0.00    +0.030 C 
ATOM      8  C   UNL     1       2.559  -9.194  -0.057  0.00  0.00    +0.077 C 
ATOM      9  C   UNL     1       2.713  -8.319  -1.303  0.00  0.00    +0.030 C 
ATOM     10  C   UNL     1       1.609  -7.250  -1.310  0.00  0.00    +0.110 C 
BRANCH   5  11
ATOM     11  S   UNL     1       1.777  -4.858  -0.034  0.00  0.00    +0.036 S 
ATOM     12  O   UNL     1       2.396  -4.530  -1.270  0.00  0.00    -0.158 OA
ATOM     13  O   UNL     1       2.410  -4.543   1.199  0.00  0.00    -0.158 OA
BRANCH  11  14
ATOM     14  C   UNL     1       0.059  -4.275  -0.021  0.00  0.00    +0.220 C 
BRANCH  14  19
ATOM     15  C   UNL     1      -0.018   1.503   0.010  0.00  0.00    +0.044 C 
ATOM     16  C   UNL     1       0.002  -0.004   0.002  0.00  0.00    -0.050 A 
ATOM     17  C   UNL     1       0.006  -0.689  -1.199  0.00  0.00    +0.003 A 
ATOM     18  C   UNL     1       0.025  -2.071  -1.206  0.00  0.00    +0.005 A 
ATOM     19  C   UNL     1       0.040  -2.768  -0.013  0.00  0.00    -0.025 A 
ATOM     20  C   UNL     1       0.037  -2.084   1.188  0.00  0.00    +0.005 A 
ATOM     21  C   UNL     1       0.023  -0.702   1.195  0.00  0.00    +0.003 A 
ENDBRANCH  14  19
ENDBRANCH  11  14
ENDBRANCH   5  11
ENDBRANCH   1   8
BRANCH   3  22
ATOM     22  C   UNL     1       4.702 -12.194  -1.085  0.00  0.00    +0.139 C 
BRANCH  22  23
ATOM     23  C   UNL     1       4.549 -13.044  -2.321  0.00  0.00    -0.030 A 
ATOM     24  C   UNL     1       3.736 -14.162  -2.294  0.00  0.00    +0.005 A 
ATOM     25  C   UNL     1       3.595 -14.941  -3.427  0.00  0.00    +0.002 A 
ATOM     26  C   UNL     1       4.266 -14.603  -4.587  0.00  0.00    -0.064 A 
ATOM     27  C   UNL     1       5.078 -13.484  -4.614  0.00  0.00    +0.002 A 
ATOM     28  C   UNL     1       5.216 -12.703  -3.482  0.00  0.00    +0.005 A 
BRANCH  26  29
ATOM     29  C   UNL     1       4.113 -15.453  -5.821  0.00  0.00    -0.043 C 
BRANCH  29  30
ATOM     30  N   UNL     1       2.985 -14.956  -6.621  0.00  0.00    +0.383 N 
ATOM     31  C   UNL     1       3.289 -13.604  -7.106  0.00  0.00    -0.078 C 
ATOM     32  C   UNL     1       2.085 -13.050  -7.871  0.00  0.00    -0.018 C 
ATOM     33  C   UNL     1       1.780 -13.964  -9.061  0.00  0.00    -0.001 C 
ATOM     34  C   UNL     1       1.538 -15.388  -8.551  0.00  0.00    -0.031 C 
ATOM     35  C   UNL     1       2.762 -15.855  -7.760  0.00  0.00    -0.075 C 
ATOM     36  C   UNL     1       1.308 -16.324  -9.739  0.00  0.00    +0.005 C 
ATOM     37  H   UNL     1       2.155 -14.928  -6.049  0.00  0.00    -0.081 HD
ENDBRANCH  29  30
ENDBRANCH  26  29
ENDBRANCH  22  23
ENDBRANCH   3  22
TORSDOF 8
