REMARK  Name = ZINC39325212
REMARK  9 active torsions:
REMARK  status: ('A' for Active; 'I' for Inactive)
REMARK    1  A    between atoms: C_1  and  C_2
REMARK    2  A    between atoms: C_7  and  S_8
REMARK    3  A    between atoms: S_8  and  N_11
REMARK    4  A    between atoms: N_11  and  C_12
REMARK    5  A    between atoms: N_11  and  C_19
REMARK    6  A    between atoms: C_12  and  C_13
REMARK    7  A    between atoms: C_19  and  C_20
REMARK    8  A    between atoms: C_25  and  C_33
REMARK    9  A    between atoms: C_26  and  C_32
REMARK                            x       y       z     vdW  Elec       q    Type
REMARK                         _______ _______ _______ _____ _____    ______ ____
ROOT
ATOM      1  N   UNL     1      -1.790   0.487   3.356  0.00  0.00    -0.171 NA
ENDROOT
BRANCH   1   2
ATOM      2  S   UNL     1      -0.220   0.194   2.921  0.00  0.00    +0.064 S 
ATOM      3  O   UNL     1       0.371  -0.526   3.993  0.00  0.00    -0.153 OA
ATOM      4  O   UNL     1       0.308   1.427   2.449  0.00  0.00    -0.153 OA
BRANCH   2  11
ATOM      5  C   UNL     1      -0.114   1.090   0.084  0.00  0.00    +0.046 C 
ATOM      6  C   UNL     1      -0.205  -0.401   0.282  0.00  0.00    -0.022 A 
ATOM      7  C   UNL     1      -0.227  -1.237  -0.835  0.00  0.00    +0.007 A 
ATOM      8  C   UNL     1      -0.306  -2.583  -0.709  0.00  0.00    +0.031 A 
ATOM      9  C   UNL     1      -0.370  -3.176   0.580  0.00  0.00    +0.102 A 
ATOM     10  C   UNL     1      -0.347  -2.302   1.748  0.00  0.00    +0.126 A 
ATOM     11  C   UNL     1      -0.257  -0.899   1.539  0.00  0.00    +0.136 A 
ATOM     12  N   UNL     1      -0.412  -2.967   2.902  0.00  0.00    -0.189 NA
ATOM     13  S   UNL     1      -0.491  -4.524   2.503  0.00  0.00    +0.117 S 
ATOM     14  N   UNL     1      -0.451  -4.470   0.895  0.00  0.00    -0.191 NA
ENDBRANCH   2  11
ENDBRANCH   1   2
BRANCH   1  15
ATOM     15  C   UNL     1      -2.453  -0.378   4.335  0.00  0.00    +0.146 C 
BRANCH  15  16
ATOM     16  C   UNL     1      -2.294   0.210   5.713  0.00  0.00    -0.014 A 
ATOM     17  C   UNL     1      -1.202  -0.125   6.498  0.00  0.00    +0.008 A 
ATOM     18  C   UNL     1      -1.097   0.440   7.760  0.00  0.00    +0.020 A 
ATOM     19  C   UNL     1      -2.079   1.313   8.190  0.00  0.00    +0.111 A 
ATOM     20  N   UNL     1      -3.105   1.609   7.416  0.00  0.00    -0.263 NA
ATOM     21  C   UNL     1      -3.233   1.095   6.208  0.00  0.00    +0.115 A 
ENDBRANCH  15  16
ENDBRANCH   1  15
BRANCH   1  22
ATOM     22  C   UNL     1      -2.517   1.612   2.761  0.00  0.00    +0.126 C 
BRANCH  22  23
ATOM     23  C   UNL     1      -3.102   1.186   1.413  0.00  0.00    +0.114 C 
ATOM     24  C   UNL     1      -3.591   2.433   0.703  0.00  0.00    -0.003 C 
ATOM     25  C   UNL     1      -4.906   2.476   0.349  0.00  0.00    -0.007 A 
ATOM     26  C   UNL     1      -5.461   3.642  -0.340  0.00  0.00    +0.013 A 
ATOM     27  C   UNL     1      -6.778   3.641  -0.672  0.00  0.00    -0.047 A 
ATOM     28  C   UNL     1      -7.602   2.556  -0.372  0.00  0.00    -0.046 A 
ATOM     29  C   UNL     1      -7.149   1.445   0.266  0.00  0.00    +0.027 A 
ATOM     30  C   UNL     1      -5.800   1.345   0.654  0.00  0.00    +0.041 A 
ATOM     31  N   UNL     1      -5.366   0.250   1.278  0.00  0.00    -0.284 N 
ATOM     32  C   UNL     1      -4.114   0.092   1.671  0.00  0.00    +0.225 C 
ATOM     33  O   UNL     1      -3.777  -0.930   2.238  0.00  0.00    -0.275 OA
ATOM     34  C   UNL     1      -9.054   2.619  -0.770  0.00  0.00    +0.044 C 
ATOM     35  C   UNL     1      -7.360   4.836  -1.382  0.00  0.00    +0.044 C 
ATOM     36  H   UNL     1      -5.999  -0.464   1.453  0.00  0.00    +0.155 HD
ENDBRANCH  22  23
ENDBRANCH   1  22
TORSDOF 6
