REMARK  Name = ZINC01126623
REMARK  9 active torsions:
REMARK  status: ('A' for Active; 'I' for Inactive)
REMARK    1  A    between atoms: C_1  and  C_2
REMARK    2  A    between atoms: C_3  and  C_23
REMARK    3  A    between atoms: C_4  and  C_10
REMARK    4  A    between atoms: C_13  and  O_17
REMARK    5  A    between atoms: O_17  and  C_18
REMARK    6  A    between atoms: C_18  and  C_19
REMARK    7  A    between atoms: C_19  and  O_21
REMARK    8  A    between atoms: O_21  and  C_22
REMARK    9  A    between atoms: N_25  and  C_26
REMARK                            x       y       z     vdW  Elec       q    Type
REMARK                         _______ _______ _______ _____ _____    ______ ____
ROOT
ATOM      1  C   UNL     1       3.011  -0.286  -1.053  0.00  0.00    +0.061 C 
ATOM      2  C   UNL     1       2.862   1.065  -0.404  0.00  0.00    +0.019 C 
ATOM      3  C   UNL     1       1.639   1.484  -0.015  0.00  0.00    +0.056 C 
ATOM      4  C   UNL     1       1.533   2.852   0.627  0.00  0.00    +0.142 C 
ATOM      5  N   UNL     1       2.784   3.613   0.787  0.00  0.00    -0.288 N 
ATOM      6  C   UNL     1       3.932   3.060   0.348  0.00  0.00    +0.304 C 
ATOM      7  O   UNL     1       4.969   3.683   0.470  0.00  0.00    -0.252 OA
ATOM      8  N   UNL     1       3.967   1.847  -0.219  0.00  0.00    -0.273 N 
ATOM      9  H   UNL     1       2.781   4.494   1.194  0.00  0.00    +0.151 HD
ATOM     10  H   UNL     1       4.825   1.505  -0.514  0.00  0.00    +0.156 HD
ENDROOT
BRANCH   4  11
ATOM     11  C   UNL     1       0.581   3.680  -0.197  0.00  0.00    -0.021 A 
ATOM     12  C   UNL     1      -0.720   3.867   0.232  0.00  0.00    +0.009 A 
ATOM     13  C   UNL     1      -1.595   4.626  -0.521  0.00  0.00    +0.047 A 
ATOM     14  C   UNL     1      -1.167   5.200  -1.709  0.00  0.00    +0.135 A 
ATOM     15  C   UNL     1       0.140   5.011  -2.138  0.00  0.00    +0.060 A 
ATOM     16  C   UNL     1       1.012   4.255  -1.378  0.00  0.00    +0.024 A 
ATOM     17 BR   UNL     1       0.727   5.793  -3.757  0.00  0.00    -0.047 Br
BRANCH  14  18
ATOM     18  O   UNL     1      -2.026   5.947  -2.452  0.00  0.00    -0.480 OA
BRANCH  18  19
ATOM     19  C   UNL     1      -3.355   6.100  -1.949  0.00  0.00    +0.349 C 
BRANCH  19  20
ATOM     20  C   UNL     1      -4.156   6.953  -2.899  0.00  0.00    +0.345 C 
ATOM     21  O   UNL     1      -3.642   7.386  -3.903  0.00  0.00    -0.247 OA
BRANCH  20  22
ATOM     22  O   UNL     1      -5.441   7.232  -2.629  0.00  0.00    -0.466 OA
ATOM     23  C   UNL     1      -6.152   8.059  -3.587  0.00  0.00    +0.280 C 
ENDBRANCH  20  22
ENDBRANCH  19  20
ENDBRANCH  18  19
ENDBRANCH  14  18
ENDBRANCH   4  11
BRANCH   3  24
ATOM     24  C   UNL     1       0.493   0.674  -0.206  0.00  0.00    +0.248 C 
ATOM     25  O   UNL     1       0.003   0.081   0.737  0.00  0.00    -0.270 OA
ATOM     26  N   UNL     1      -0.051   0.555  -1.433  0.00  0.00    -0.282 N 
ATOM     27  H   UNL     1       0.385   0.961  -2.199  0.00  0.00    +0.155 HD
BRANCH  26  28
ATOM     28  C   UNL     1      -1.246  -0.152  -1.603  0.00  0.00    +0.035 A 
ATOM     29  C   UNL     1      -1.462  -0.884  -2.763  0.00  0.00    +0.023 A 
ATOM     30  C   UNL     1      -2.643  -1.582  -2.928  0.00  0.00    +0.003 A 
ATOM     31  C   UNL     1      -3.609  -1.552  -1.940  0.00  0.00    +0.020 A 
ATOM     32  C   UNL     1      -3.398  -0.824  -0.783  0.00  0.00    +0.043 A 
ATOM     33  C   UNL     1      -2.216  -0.128  -0.610  0.00  0.00    +0.043 A 
ATOM     34 CL   UNL     1      -4.614  -0.789   0.455  0.00  0.00    -0.083 Cl
ENDBRANCH  26  28
ENDBRANCH   3  24
TORSDOF 7
