REMARK  Name = ZINC36026161
REMARK  4 active torsions:
REMARK  status: ('A' for Active; 'I' for Inactive)
REMARK    1  A    between atoms: C_6  and  C_7
REMARK    2  A    between atoms: C_10  and  C_35
REMARK    3  A    between atoms: C_13  and  C_28
REMARK    4  A    between atoms: C_18  and  C_21
REMARK                            x       y       z     vdW  Elec       q    Type
REMARK                         _______ _______ _______ _____ _____    ______ ____
ROOT
ATOM      1  C   UNL     1      -1.480  -1.095  -0.022  0.00  0.00    +0.093 C 
ATOM      2  C   UNL     1      -1.928  -1.329  -1.474  0.00  0.00    +0.067 C 
ATOM      3  C   UNL     1      -3.302  -2.018  -1.441  0.00  0.00    -0.028 C 
ATOM      4  N   UNL     1      -3.209  -3.248  -0.648  0.00  0.00    +0.389 N 
ATOM      5  C   UNL     1      -2.318  -4.220  -1.291  0.00  0.00    -0.028 C 
ATOM      6  C   UNL     1      -0.887  -3.659  -1.316  0.00  0.00    +0.067 C 
ATOM      7  C   UNL     1      -0.952  -2.337  -2.073  0.00  0.00    +0.141 C 
ATOM      8  O   UNL     1      -0.290  -2.108  -3.057  0.00  0.00    -0.297 OA
ATOM      9  C   UNL     1      -0.487  -3.317   0.129  0.00  0.00    +0.093 C 
ATOM     10  N   UNL     1      -1.464  -2.377   0.692  0.00  0.00    -0.301 NA
ATOM     11  H   UNL     1      -2.852  -3.026   0.269  0.00  0.00    -0.084 HD
ATOM     12  H   UNL     1      -1.307  -2.239   1.679  0.00  0.00    +0.123 HD
ATOM     13  H   UNL     1      -4.129  -3.653  -0.556  0.00  0.00    -0.084 HD
ENDROOT
BRANCH   1  19
ATOM     14  C   UNL     1       0.349   0.230  -1.101  0.00  0.00    +0.008 A 
ATOM     15  C   UNL     1       1.617   0.779  -1.092  0.00  0.00    +0.038 A 
ATOM     16  C   UNL     1       2.441   0.602   0.006  0.00  0.00    +0.123 A 
ATOM     17  C   UNL     1       1.993  -0.125   1.096  0.00  0.00    +0.038 A 
ATOM     18  C   UNL     1       0.724  -0.674   1.086  0.00  0.00    +0.008 A 
ATOM     19  C   UNL     1      -0.097  -0.497  -0.012  0.00  0.00    -0.030 A 
ATOM     20  F   UNL     1       3.681   1.139   0.015  0.00  0.00    -0.205 F 
ENDBRANCH   1  19
BRANCH   9  21
ATOM     21  C   UNL     1      -0.463  -4.576   0.956  0.00  0.00    -0.030 A 
ATOM     22  C   UNL     1       0.389  -5.610   0.616  0.00  0.00    +0.008 A 
ATOM     23  C   UNL     1       0.411  -6.766   1.375  0.00  0.00    +0.038 A 
ATOM     24  C   UNL     1      -0.420  -6.887   2.475  0.00  0.00    +0.123 A 
ATOM     25  C   UNL     1      -1.273  -5.850   2.815  0.00  0.00    +0.038 A 
ATOM     26  C   UNL     1      -1.290  -4.694   2.058  0.00  0.00    +0.008 A 
ATOM     27  F   UNL     1      -0.399  -8.016   3.217  0.00  0.00    -0.205 F 
ENDBRANCH   9  21
BRANCH   5  28
ATOM     28  C   UNL     1      -2.339  -5.511  -0.514  0.00  0.00    -0.060 A 
ATOM     29  C   UNL     1      -3.170  -5.645   0.582  0.00  0.00    +0.005 A 
ATOM     30  C   UNL     1      -3.191  -6.829   1.294  0.00  0.00    +0.038 A 
ATOM     31  C   UNL     1      -2.378  -7.882   0.910  0.00  0.00    +0.123 A 
ATOM     32  C   UNL     1      -1.545  -7.747  -0.189  0.00  0.00    +0.038 A 
ATOM     33  C   UNL     1      -1.531  -6.564  -0.903  0.00  0.00    +0.005 A 
ATOM     34  F   UNL     1      -2.397  -9.040   1.606  0.00  0.00    -0.205 F 
ENDBRANCH   5  28
BRANCH   3  35
ATOM     35  C   UNL     1      -3.730  -2.355  -2.846  0.00  0.00    -0.060 A 
ATOM     36  C   UNL     1      -4.627  -3.383  -3.067  0.00  0.00    +0.005 A 
ATOM     37  C   UNL     1      -5.020  -3.693  -4.355  0.00  0.00    +0.038 A 
ATOM     38  C   UNL     1      -4.516  -2.973  -5.425  0.00  0.00    +0.123 A 
ATOM     39  C   UNL     1      -3.618  -1.943  -5.202  0.00  0.00    +0.038 A 
ATOM     40  C   UNL     1      -3.230  -1.631  -3.913  0.00  0.00    +0.005 A 
ATOM     41  F   UNL     1      -4.899  -3.275  -6.684  0.00  0.00    -0.205 F 
ENDBRANCH   3  35
TORSDOF 4
