REMARK  Name = ZINC24905561
REMARK  4 active torsions:
REMARK  status: ('A' for Active; 'I' for Inactive)
REMARK    1  A    between atoms: C_4  and  O_25
REMARK    2  A    between atoms: C_5  and  C_7
REMARK    3  A    between atoms: C_7  and  N_8
REMARK    4  A    between atoms: O_25  and  C_26
REMARK                            x       y       z     vdW  Elec       q    Type
REMARK                         _______ _______ _______ _____ _____    ______ ____
ROOT
ATOM      1  N   UNL     1      -2.116   1.093   1.263  0.00  0.00    +0.383 N 
ATOM      2  C   UNL     1      -0.731   1.580   1.266  0.00  0.00    -0.075 C 
ATOM      3  C   UNL     1      -0.013   1.086   0.008  0.00  0.00    +0.025 C 
ATOM      4  C   UNL     1      -0.754   1.593  -1.230  0.00  0.00    +0.099 C 
ATOM      5  C   UNL     1      -2.207   1.117  -1.185  0.00  0.00    +0.025 C 
ATOM      6  C   UNL     1      -2.860   1.612   0.108  0.00  0.00    -0.075 C 
ATOM      7  N   UNL     1      -0.708   3.051  -1.279  0.00  0.00    -0.323 N 
ATOM      8  C   UNL     1      -1.107   3.792  -2.388  0.00  0.00    +0.055 A 
ATOM      9  C   UNL     1      -1.468   5.127  -2.210  0.00  0.00    +0.025 A 
ATOM     10  C   UNL     1      -1.850   5.892  -3.292  0.00  0.00    +0.002 A 
ATOM     11  C   UNL     1      -1.877   5.342  -4.561  0.00  0.00    +0.002 A 
ATOM     12  C   UNL     1      -1.528   4.016  -4.744  0.00  0.00    +0.030 A 
ATOM     13  C   UNL     1      -1.154   3.245  -3.663  0.00  0.00    +0.126 A 
ATOM     14  S   UNL     1      -0.753   1.539  -3.897  0.00  0.00    +0.062 S 
ATOM     15  O   UNL     1      -1.981   0.842  -4.058  0.00  0.00    -0.153 OA
ATOM     16  O   UNL     1       0.293   1.487  -4.857  0.00  0.00    -0.153 OA
ATOM     17  N   UNL     1      -0.104   1.052  -2.439  0.00  0.00    -0.167 NA
ATOM     18  H   UNL     1      -0.344   3.619  -0.410  0.00  0.00    +0.148 HD
ATOM     19  H   UNL     1       0.848   0.508  -2.355  0.00  0.00    +0.150 HD
ATOM     20  H   UNL     1      -2.086  -0.004   1.176  0.00  0.00    -0.081 HD
ENDROOT
BRANCH   1  21
ATOM     21  C   UNL     1      -2.796   1.429   2.521  0.00  0.00    -0.039 C 
BRANCH  21  26
ATOM     22  C   UNL     1      -1.250  -0.368   5.460  0.00  0.00    +0.000 A 
ATOM     23  C   UNL     1      -0.235   0.501   5.817  0.00  0.00    +0.004 A 
ATOM     24  C   UNL     1      -0.046   1.672   5.109  0.00  0.00    +0.046 A 
ATOM     25  C   UNL     1      -0.876   1.975   4.039  0.00  0.00    +0.128 A 
ATOM     26  C   UNL     1      -1.893   1.102   3.683  0.00  0.00    -0.022 A 
ATOM     27  C   UNL     1      -2.081  -0.066   4.397  0.00  0.00    +0.005 A 
BRANCH  25  28
ATOM     28  O   UNL     1      -0.692   3.127   3.341  0.00  0.00    -0.434 OA
BRANCH  28  29
ATOM     29  C   UNL     1       0.374   3.979   3.764  0.00  0.00    +0.541 C 
ATOM     30  F   UNL     1       0.159   4.372   5.089  0.00  0.00    -0.166 F 
ATOM     31  F   UNL     1       1.587   3.287   3.673  0.00  0.00    -0.166 F 
ENDBRANCH  28  29
ENDBRANCH  25  28
ENDBRANCH  21  26
ENDBRANCH   1  21
TORSDOF 4
