REMARK  Name = ZINC59122894
REMARK  9 active torsions:
REMARK  status: ('A' for Active; 'I' for Inactive)
REMARK    1  A    between atoms: C_1  and  C_2
REMARK    2  A    between atoms: C_2  and  C_3
REMARK    3  A    between atoms: C_6  and  C_9
REMARK    4  A    between atoms: N_11  and  C_32
REMARK    5  A    between atoms: N_15  and  C_23
REMARK    6  A    between atoms: C_17  and  C_19
REMARK    7  A    between atoms: C_19  and  O_21
REMARK    8  A    between atoms: O_21  and  C_22
REMARK    9  A    between atoms: C_26  and  N_29
REMARK                            x       y       z     vdW  Elec       q    Type
REMARK                         _______ _______ _______ _____ _____    ______ ____
ROOT
ATOM      1  C   UNL     1       2.686  -2.259   4.698  0.00  0.00    +0.067 C 
ATOM      2  N   UNL     1       3.956  -2.420   4.556  0.00  0.00    -0.181 NA
ATOM      3  N   UNL     1       4.809  -2.563   5.663  0.00  0.00    -0.189 N 
ATOM      4  C   UNL     1       4.278  -2.295   6.992  0.00  0.00    +0.195 C 
ATOM      5  C   UNL     1       2.860  -2.831   7.118  0.00  0.00    +0.068 C 
ATOM      6  C   UNL     1       1.994  -2.186   6.028  0.00  0.00    +0.062 C 
ATOM      7  N   UNL     1       5.155  -2.801   8.053  0.00  0.00    -0.188 N 
ATOM      8  N   UNL     1       5.672  -1.835   8.894  0.00  0.00    -0.163 NA
ATOM      9  C   UNL     1       5.406  -0.563   8.762  0.00  0.00    +0.203 C 
ATOM     10  S   UNL     1       4.315  -0.498   7.347  0.00  0.00    -0.049 S 
ENDROOT
BRANCH   1  14
ATOM     11  C   UNL     1       0.317  -1.896   1.195  0.00  0.00    -0.048 A 
ATOM     12  C   UNL     1       1.685  -2.075   1.086  0.00  0.00    +0.004 A 
ATOM     13  C   UNL     1       2.461  -2.193   2.220  0.00  0.00    +0.010 A 
ATOM     14  C   UNL     1       1.863  -2.132   3.481  0.00  0.00    -0.002 A 
ATOM     15  C   UNL     1       0.481  -1.951   3.583  0.00  0.00    +0.010 A 
ATOM     16  C   UNL     1      -0.282  -1.829   2.441  0.00  0.00    +0.004 A 
BRANCH  11  18
ATOM     17  C   UNL     1      -0.615  -0.295  -0.454  0.00  0.00    +0.009 C 
ATOM     18  C   UNL     1      -0.524  -1.768  -0.049  0.00  0.00    +0.032 C 
ENDBRANCH  11  18
ENDBRANCH   1  14
BRANCH   7  19
ATOM     19  C   UNL     1       5.444  -4.157   8.203  0.00  0.00    +0.055 A 
ATOM     20  C   UNL     1       4.901  -5.087   7.324  0.00  0.00    +0.027 A 
ATOM     21  C   UNL     1       5.189  -6.429   7.475  0.00  0.00    +0.034 A 
ATOM     22  C   UNL     1       6.019  -6.848   8.500  0.00  0.00    +0.126 A 
ATOM     23  C   UNL     1       6.561  -5.926   9.376  0.00  0.00    +0.034 A 
ATOM     24  C   UNL     1       6.282  -4.582   9.227  0.00  0.00    +0.027 A 
BRANCH  22  25
ATOM     25  N   UNL     1       6.326  -8.288   8.659  0.00  0.00    +0.056 N 
ATOM     26  O   UNL     1       5.852  -9.095   7.894  0.00  0.00    -0.126 OA
ATOM     27  O   UNL     1       7.050  -8.656   9.554  0.00  0.00    -0.126 OA
ENDBRANCH  22  25
ENDBRANCH   7  19
BRANCH   3  28
ATOM     28  C   UNL     1       6.137  -2.955   5.493  0.00  0.00    +0.055 A 
ATOM     29  C   UNL     1       6.444  -4.046   4.689  0.00  0.00    +0.025 A 
ATOM     30  C   UNL     1       7.760  -4.431   4.523  0.00  0.00    +0.002 A 
ATOM     31  C   UNL     1       8.771  -3.732   5.155  0.00  0.00    +0.000 A 
ATOM     32  C   UNL     1       8.470  -2.645   5.955  0.00  0.00    +0.002 A 
ATOM     33  C   UNL     1       7.157  -2.251   6.122  0.00  0.00    +0.025 A 
ENDBRANCH   3  28
BRANCH   9  34
ATOM     34  C   UNL     1       5.889   0.553   9.584  0.00  0.00    +0.366 C 
ATOM     35  O   UNL     1       5.545   1.691   9.328  0.00  0.00    -0.243 OA
BRANCH  34  36
ATOM     36  O   UNL     1       6.715   0.317  10.624  0.00  0.00    -0.463 OA
ATOM     37  C   UNL     1       7.146   1.449  11.381  0.00  0.00    +0.280 C 
ENDBRANCH  34  36
ENDBRANCH   9  34
TORSDOF 7
