REMARK  Name = ZINC08920461
REMARK  10 active torsions:
REMARK  status: ('A' for Active; 'I' for Inactive)
REMARK    1  A    between atoms: C_1  and  C_2
REMARK    2  A    between atoms: C_2  and  N_57
REMARK    3  A    between atoms: C_3  and  C_4
REMARK    4  A    between atoms: C_3  and  N_57
REMARK    5  A    between atoms: C_5  and  C_6
REMARK    6  A    between atoms: C_5  and  N_57
REMARK    7  A    between atoms: C_6  and  N_7
REMARK    8  A    between atoms: C_8  and  C_26
REMARK    9  A    between atoms: C_11  and  C_12
REMARK   10  A    between atoms: C_11  and  O_21
REMARK                            x       y       z     vdW  Elec       q    Type
REMARK                         _______ _______ _______ _____ _____    ______ ____
ROOT
ATOM      1  N   UNL     1       3.360   2.858   0.345  0.00  0.00    -0.285 N 
ATOM      2  C   UNL     1       2.342   1.808   0.236  0.00  0.00    +0.144 C 
ATOM      3  C   UNL     1       1.004   2.509   0.179  0.00  0.00    +0.074 C 
ATOM      4  C   UNL     1      -0.242   1.914   0.073  0.00  0.00    +0.168 C 
ATOM      5  C   UNL     1       1.279   3.881   0.247  0.00  0.00    +0.249 C 
ATOM      6  O   UNL     1       0.453   4.776   0.224  0.00  0.00    -0.282 OA
ATOM      7  C   UNL     1       2.751   4.056   0.354  0.00  0.00    +0.288 C 
ATOM      8  O   UNL     1       3.321   5.125   0.434  0.00  0.00    -0.266 OA
ENDROOT
BRANCH   4   9
ATOM      9  C   UNL     1      -1.434   2.741  -0.111  0.00  0.00    +0.171 A 
ATOM     10  C   UNL     1      -2.594   2.619   0.594  0.00  0.00    +0.061 A 
ATOM     11  C   UNL     1      -3.480   3.610   0.102  0.00  0.00    +0.021 A 
ATOM     12  C   UNL     1      -4.792   3.979   0.419  0.00  0.00    +0.011 A 
ATOM     13  C   UNL     1      -5.391   5.003  -0.259  0.00  0.00    +0.001 A 
ATOM     14  C   UNL     1      -4.708   5.679  -1.261  0.00  0.00    +0.004 A 
ATOM     15  C   UNL     1      -3.415   5.331  -1.590  0.00  0.00    +0.047 A 
ATOM     16  C   UNL     1      -2.785   4.294  -0.914  0.00  0.00    +0.136 A 
ATOM     17  O   UNL     1      -1.559   3.741  -1.011  0.00  0.00    -0.452 OA
ENDBRANCH   4   9
BRANCH   2  18
ATOM     18  C   UNL     1       2.401   0.906   1.442  0.00  0.00    -0.022 A 
ATOM     19  C   UNL     1       2.647   1.440   2.693  0.00  0.00    +0.007 A 
ATOM     20  C   UNL     1       2.696   0.613   3.800  0.00  0.00    +0.015 A 
ATOM     21  C   UNL     1       2.509  -0.750   3.654  0.00  0.00    +0.018 A 
ATOM     22  C   UNL     1       2.268  -1.284   2.401  0.00  0.00    +0.015 A 
ATOM     23  C   UNL     1       2.214  -0.456   1.296  0.00  0.00    +0.007 A 
ATOM     24 BR   UNL     1       2.583  -1.882   5.167  0.00  0.00    -0.050 Br
ENDBRANCH   2  18
BRANCH   4  25
ATOM     25  O   UNL     1      -0.356   0.568   0.136  0.00  0.00    -0.503 OA
ATOM     26  H   UNL     1      -1.318   0.311   0.043  0.00  0.00    +0.292 HD
ENDBRANCH   4  25
BRANCH   1  27
ATOM     27  C   UNL     1       4.806   2.636   0.429  0.00  0.00    +0.090 C 
BRANCH  27  28
ATOM     28  C   UNL     1       5.401   2.618  -0.981  0.00  0.00    -0.060 C 
BRANCH  28  29
ATOM     29  N   UNL     1       6.856   2.373  -0.880  0.00  0.00    +0.380 N 
ATOM     30  H   UNL     1       7.014   1.541  -0.300  0.00  0.00    -0.082 HD
BRANCH  29  32
ATOM     31  C   UNL     1       7.085   0.708  -2.654  0.00  0.00    -0.017 C 
ATOM     32  C   UNL     1       7.422   2.137  -2.225  0.00  0.00    -0.082 C 
ENDBRANCH  29  32
BRANCH  29  33
ATOM     33  C   UNL     1       7.521   3.532  -0.249  0.00  0.00    -0.082 C 
ATOM     34  C   UNL     1       8.932   3.119   0.173  0.00  0.00    -0.017 C 
ENDBRANCH  29  33
ENDBRANCH  28  29
ENDBRANCH  27  28
ENDBRANCH   1  27
TORSDOF 8
