REMARK  Name = ZINC63506300
REMARK  10 active torsions:
REMARK  status: ('A' for Active; 'I' for Inactive)
REMARK    1  A    between atoms: C_1  and  C_2
REMARK    2  A    between atoms: C_4  and  C_20
REMARK    3  A    between atoms: C_7  and  O_12
REMARK    4  A    between atoms: O_12  and  C_13
REMARK    5  A    between atoms: C_13  and  C_14
REMARK    6  A    between atoms: C_20  and  C_21
REMARK    7  A    between atoms: C_21  and  N_22
REMARK    8  A    between atoms: C_23  and  C_25
REMARK    9  A    between atoms: C_25  and  O_26
REMARK   10  A    between atoms: O_26  and  C_27
REMARK                            x       y       z     vdW  Elec       q    Type
REMARK                         _______ _______ _______ _____ _____    ______ ____
ROOT
ATOM      1  C   UNL     1      -0.019   1.526   0.010  0.00  0.00    +0.035 C 
ATOM      2  C   UNL     1       0.002  -0.004   0.002  0.00  0.00    +0.103 C 
ATOM      3  C   UNL     1      -1.410  -0.545   0.038  0.00  0.00    -0.037 C 
ATOM      4  C   UNL     1      -1.503  -1.275   1.172  0.00  0.00    +0.003 A 
ATOM      5  C   UNL     1      -2.598  -2.045   1.773  0.00  0.00    +0.055 A 
ATOM      6  C   UNL     1      -2.393  -2.691   2.946  0.00  0.00    +0.122 A 
ATOM      7  C   UNL     1      -1.160  -2.651   3.620  0.00  0.00    +0.048 A 
ATOM      8  C   UNL     1      -0.095  -1.970   3.147  0.00  0.00    +0.029 A 
ATOM      9  C   UNL     1      -0.204  -1.234   1.883  0.00  0.00    +0.043 A 
ATOM     10  N   UNL     1       0.658  -0.508   1.214  0.00  0.00    -0.378 N 
ATOM     11  H   UNL     1       1.576  -0.332   1.476  0.00  0.00    +0.160 HD
ENDROOT
BRANCH   6  12
ATOM     12  O   UNL     1      -3.416  -3.401   3.491  0.00  0.00    -0.487 OA
BRANCH  12  13
ATOM     13  C   UNL     1      -3.157  -4.065   4.729  0.00  0.00    +0.264 C 
BRANCH  13  14
ATOM     14  C   UNL     1      -4.398  -4.795   5.177  0.00  0.00    -0.010 A 
ATOM     15  C   UNL     1      -5.327  -4.154   5.975  0.00  0.00    +0.007 A 
ATOM     16  C   UNL     1      -6.465  -4.824   6.385  0.00  0.00    +0.000 A 
ATOM     17  C   UNL     1      -6.673  -6.134   5.997  0.00  0.00    +0.000 A 
ATOM     18  C   UNL     1      -5.744  -6.775   5.198  0.00  0.00    +0.000 A 
ATOM     19  C   UNL     1      -4.609  -6.104   4.785  0.00  0.00    +0.007 A 
ENDBRANCH  13  14
ENDBRANCH  12  13
ENDBRANCH   6  12
BRANCH   3  20
ATOM     20  C   UNL     1      -2.494  -0.315  -0.984  0.00  0.00    +0.052 C 
BRANCH  20  21
ATOM     21  C   UNL     1      -3.765  -1.048  -0.551  0.00  0.00    +0.108 C 
BRANCH  21  22
ATOM     22  N   UNL     1      -4.819  -0.825  -1.544  0.00  0.00    -0.312 N 
ATOM     23  C   UNL     1      -6.036  -1.378  -1.371  0.00  0.00    +0.251 C 
ATOM     24  O   UNL     1      -6.259  -2.061  -0.394  0.00  0.00    -0.272 OA
ATOM     25  H   UNL     1      -4.641  -0.279  -2.326  0.00  0.00    +0.149 HD
BRANCH  23  26
ATOM     26  C   UNL     1      -7.120  -1.149  -2.393  0.00  0.00    +0.324 C 
BRANCH  26  27
ATOM     27  O   UNL     1      -8.308  -1.833  -1.989  0.00  0.00    -0.480 OA
BRANCH  27  28
ATOM     28  C   UNL     1      -9.389  -1.728  -2.807  0.00  0.00    +0.156 A 
ATOM     29  C   UNL     1      -9.306  -0.987  -3.975  0.00  0.00    +0.051 A 
ATOM     30  C   UNL     1     -10.406  -0.881  -4.806  0.00  0.00    +0.042 A 
ATOM     31  C   UNL     1     -11.591  -1.514  -4.472  0.00  0.00    +0.126 A 
ATOM     32  C   UNL     1     -11.677  -2.255  -3.305  0.00  0.00    +0.080 A 
ATOM     33  C   UNL     1     -10.576  -2.368  -2.475  0.00  0.00    +0.168 A 
ATOM     34  F   UNL     1     -10.658  -3.096  -1.340  0.00  0.00    -0.202 F 
ATOM     35  F   UNL     1     -12.665  -1.408  -5.285  0.00  0.00    -0.205 F 
ENDBRANCH  27  28
ENDBRANCH  26  27
ENDBRANCH  23  26
ENDBRANCH  21  22
ENDBRANCH  20  21
ENDBRANCH   3  20
TORSDOF 9
