REMARK  Name = ZINC35529709
REMARK  10 active torsions:
REMARK  status: ('A' for Active; 'I' for Inactive)
REMARK    1  A    between atoms: C_1  and  C_2
REMARK    2  A    between atoms: C_2  and  O_3
REMARK    3  A    between atoms: O_3  and  C_4
REMARK    4  A    between atoms: C_4  and  C_6
REMARK    5  A    between atoms: C_8  and  C_30
REMARK    6  A    between atoms: C_10  and  N_11
REMARK    7  A    between atoms: C_12  and  C_14
REMARK    8  A    between atoms: C_14  and  C_16
REMARK    9  A    between atoms: C_14  and  N_22
REMARK   10  A    between atoms: C_26  and  C_29
REMARK                            x       y       z     vdW  Elec       q    Type
REMARK                         _______ _______ _______ _____ _____    ______ ____
ROOT
ATOM      1  N   UNL     1      -2.192  -4.852   0.316  0.00  0.00    -0.280 N 
ATOM      2  C   UNL     1      -2.454  -6.096  -0.132  0.00  0.00    +0.208 C 
ATOM      3  O   UNL     1      -3.534  -6.349  -0.622  0.00  0.00    -0.277 OA
ATOM      4  H   UNL     1      -1.329  -4.649   0.708  0.00  0.00    +0.155 HD
ENDROOT
BRANCH   1   9
ATOM      5  C   UNL     1      -3.068  -2.535   0.621  0.00  0.00    +0.088 A 
ATOM      6  C   UNL     1      -4.183  -1.720   0.408  0.00  0.00    +0.033 A 
ATOM      7  C   UNL     1      -5.261  -2.312  -0.175  0.00  0.00    +0.022 A 
ATOM      8  S   UNL     1      -4.707  -3.988  -0.417  0.00  0.00    -0.073 S 
ATOM      9  C   UNL     1      -3.157  -3.863   0.217  0.00  0.00    +0.086 A 
BRANCH   7  10
ATOM     10  C   UNL     1      -6.567  -1.714  -0.522  0.00  0.00    -0.011 A 
ATOM     11  C   UNL     1      -6.813  -0.366  -0.256  0.00  0.00    +0.009 A 
ATOM     12  C   UNL     1      -8.034   0.187  -0.583  0.00  0.00    +0.001 A 
ATOM     13  C   UNL     1      -9.014  -0.592  -1.172  0.00  0.00    +0.000 A 
ATOM     14  C   UNL     1      -8.777  -1.929  -1.438  0.00  0.00    +0.001 A 
ATOM     15  C   UNL     1      -7.558  -2.492  -1.122  0.00  0.00    +0.009 A 
ENDBRANCH   7  10
BRANCH   5  16
ATOM     16  C   UNL     1      -1.849  -2.009   1.241  0.00  0.00    +0.342 C 
ATOM     17  O   UNL     1      -0.890  -2.737   1.412  0.00  0.00    -0.245 OA
BRANCH  16  18
ATOM     18  O   UNL     1      -1.791  -0.716   1.624  0.00  0.00    -0.461 OA
BRANCH  18  20
ATOM     19  C   UNL     1      -0.694   1.210   2.586  0.00  0.00    +0.048 C 
ATOM     20  C   UNL     1      -0.572  -0.271   2.221  0.00  0.00    +0.229 C 
ENDBRANCH  18  20
ENDBRANCH  16  18
ENDBRANCH   5  16
ENDBRANCH   1   9
BRANCH   2  21
ATOM     21  C   UNL     1      -1.405  -7.172  -0.024  0.00  0.00    +0.050 C 
BRANCH  21  22
ATOM     22  N   UNL     1      -2.058  -8.482   0.096  0.00  0.00    +0.390 N 
ATOM     23  C   UNL     1      -2.908  -8.496   1.293  0.00  0.00    -0.077 C 
ATOM     24  C   UNL     1      -3.654  -9.830   1.378  0.00  0.00    -0.018 C 
ATOM     25  C   UNL     1      -2.637 -10.972   1.460  0.00  0.00    -0.001 C 
ATOM     26  C   UNL     1      -1.708 -10.903   0.244  0.00  0.00    -0.031 C 
ATOM     27  C   UNL     1      -1.035  -9.530   0.201  0.00  0.00    -0.074 C 
ATOM     28  C   UNL     1      -0.640 -11.993   0.355  0.00  0.00    +0.005 C 
ATOM     29  H   UNL     1      -2.627  -8.650  -0.720  0.00  0.00    -0.080 HD
ENDBRANCH  21  22
BRANCH  21  30
ATOM     30  C   UNL     1      -0.538  -7.154  -1.256  0.00  0.00    -0.052 A 
ATOM     31  C   UNL     1      -0.984  -7.746  -2.423  0.00  0.00    +0.002 A 
ATOM     32  C   UNL     1      -0.188  -7.729  -3.554  0.00  0.00    +0.000 A 
ATOM     33  C   UNL     1       1.052  -7.120  -3.518  0.00  0.00    +0.000 A 
ATOM     34  C   UNL     1       1.497  -6.527  -2.351  0.00  0.00    +0.000 A 
ATOM     35  C   UNL     1       0.700  -6.540  -1.222  0.00  0.00    +0.002 A 
ENDBRANCH  21  30
ENDBRANCH   2  21
TORSDOF 8
