REMARK  Name = ZINC39981052
REMARK  5 active torsions:
REMARK  status: ('A' for Active; 'I' for Inactive)
REMARK    1  A    between atoms: C_1  and  C_2
REMARK    2  A    between atoms: C_14  and  S_16
REMARK    3  A    between atoms: S_16  and  C_17
REMARK    4  A    between atoms: C_17  and  C_18
REMARK    5  A    between atoms: N_20  and  C_21
REMARK                            x       y       z     vdW  Elec       q    Type
REMARK                         _______ _______ _______ _____ _____    ______ ____
ROOT
ATOM      1  S   UNL     1       2.546  -6.020   4.110  0.00  0.00    -0.075 S 
ENDROOT
BRANCH   1  14
ATOM      2  C   UNL     1      -0.093   1.478   0.032  0.00  0.00    +0.044 C 
ATOM      3  C   UNL     1      -0.064  -0.029   0.023  0.00  0.00    -0.050 A 
ATOM      4  C   UNL     1      -0.061  -0.697  -1.210  0.00  0.00    +0.005 A 
ATOM      5  C   UNL     1      -0.041  -2.046  -1.288  0.00  0.00    +0.026 A 
ATOM      6  C   UNL     1      -0.021  -2.837  -0.052  0.00  0.00    +0.046 A 
ATOM      7  N   UNL     1       0.031  -4.131   0.158  0.00  0.00    -0.358 N 
ATOM      8  C   UNL     1      -0.099  -4.380   1.584  0.00  0.00    +0.252 C 
ATOM      9  C   UNL     1       0.026  -3.024   2.254  0.00  0.00    +0.117 C 
ATOM     10  C   UNL     1      -0.012  -2.100   1.238  0.00  0.00    +0.025 A 
ATOM     11  C   UNL     1      -0.035  -0.687   1.204  0.00  0.00    +0.015 A 
ATOM     12  N   UNL     1       0.268  -2.906   3.562  0.00  0.00    -0.147 NA
ATOM     13  N   UNL     1       0.904  -3.900   4.104  0.00  0.00    -0.122 NA
ATOM     14  C   UNL     1       1.352  -4.952   3.376  0.00  0.00    +0.208 C 
ATOM     15  N   UNL     1       0.946  -5.226   2.157  0.00  0.00    -0.227 NA
ATOM     16  H   UNL     1       0.140  -4.810  -0.526  0.00  0.00    +0.162 HD
ENDBRANCH   1  14
BRANCH   1  17
ATOM     17  C   UNL     1       2.865  -7.266   2.831  0.00  0.00    +0.173 C 
BRANCH  17  18
ATOM     18  C   UNL     1       3.884  -8.255   3.336  0.00  0.00    +0.228 C 
ATOM     19  O   UNL     1       4.348  -8.132   4.450  0.00  0.00    -0.275 OA
ATOM     20  N   UNL     1       4.279  -9.277   2.551  0.00  0.00    -0.284 N 
ATOM     21  H   UNL     1       3.860  -9.414   1.687  0.00  0.00    +0.155 HD
BRANCH  20  22
ATOM     22  C   UNL     1       5.290 -10.138   2.981  0.00  0.00    +0.041 A 
ATOM     23  C   UNL     1       5.407 -10.460   4.316  0.00  0.00    +0.024 A 
ATOM     24  C   UNL     1       6.412 -11.318   4.755  0.00  0.00    +0.002 A 
ATOM     25  C   UNL     1       7.304 -11.861   3.882  0.00  0.00    +0.008 A 
ATOM     26  C   UNL     1       7.219 -11.557   2.512  0.00  0.00    -0.016 A 
ATOM     27  C   UNL     1       6.198 -10.690   2.052  0.00  0.00    +0.003 A 
ATOM     28  C   UNL     1       6.111 -10.391   0.683  0.00  0.00    +0.010 A 
ATOM     29  C   UNL     1       7.005 -10.942  -0.184  0.00  0.00    +0.001 A 
ATOM     30  C   UNL     1       8.006 -11.800   0.267  0.00  0.00    +0.001 A 
ATOM     31  C   UNL     1       8.127 -12.103   1.588  0.00  0.00    +0.008 A 
ENDBRANCH  20  22
ENDBRANCH  17  18
ENDBRANCH   1  17
TORSDOF 4
