REMARK  Name = ZINC35456550
REMARK  9 active torsions:
REMARK  status: ('A' for Active; 'I' for Inactive)
REMARK    1  A    between atoms: C_1  and  C_2
REMARK    2  A    between atoms: C_6  and  C_31
REMARK    3  A    between atoms: C_9  and  C_10
REMARK    4  A    between atoms: C_9  and  C_11
REMARK    5  A    between atoms: C_11  and  C_12
REMARK    6  A    between atoms: C_12  and  C_13
REMARK    7  A    between atoms: C_18  and  O_20
REMARK    8  A    between atoms: C_22  and  O_30
REMARK    9  A    between atoms: C_24  and  O_29
REMARK                            x       y       z     vdW  Elec       q    Type
REMARK                         _______ _______ _______ _____ _____    ______ ____
ROOT
ATOM      1  C   UNL     1      -0.090   1.521   0.698  0.00  0.00    +0.008 C 
ATOM      2  C   UNL     1      -0.070  -0.011   0.685  0.00  0.00    -0.008 C 
ATOM      3  C   UNL     1       0.287  -0.519  -0.702  0.00  0.00    +0.004 C 
ATOM      4  C   UNL     1       1.747  -0.235  -1.042  0.00  0.00    +0.010 C 
ATOM      5  C   UNL     1       2.658  -0.920  -0.024  0.00  0.00    +0.005 C 
ATOM      6  C   UNL     1       2.329  -0.434   1.381  0.00  0.00    +0.007 C 
ATOM      7  C   UNL     1       0.871  -0.523   1.773  0.00  0.00    -0.026 C 
ATOM      8  C   UNL     1       0.464  -1.941   2.181  0.00  0.00    +0.012 C 
ATOM      9  C   UNL     1       3.257  -1.101   2.393  0.00  0.00    +0.038 C 
ATOM     10  C   UNL     1       4.699  -0.655   2.130  0.00  0.00    +0.146 C 
ATOM     11  C   UNL     1       5.133  -1.046   0.717  0.00  0.00    +0.177 C 
ATOM     12  C   UNL     1       4.120  -0.535  -0.307  0.00  0.00    +0.126 C 
ATOM     13  C   UNL     1       4.562  -0.436  -1.765  0.00  0.00    +0.199 C 
ATOM     14  O   UNL     1       4.368   0.716  -0.941  0.00  0.00    -0.365 OA
ATOM     15  C   UNL     1       2.535  -2.436  -0.171  0.00  0.00    +0.014 C 
ENDROOT
BRANCH  11  16
ATOM     16  O   UNL     1       6.414  -0.467   0.443  0.00  0.00    -0.386 OA
ATOM     17  H   UNL     1       7.113  -0.752   1.048  0.00  0.00    +0.210 HD
ENDBRANCH  11  16
BRANCH  10  18
ATOM     18  O   UNL     1       4.800   0.760   2.292  0.00  0.00    -0.389 OA
ATOM     19  H   UNL     1       4.562   1.074   3.175  0.00  0.00    +0.210 HD
ENDBRANCH  10  18
BRANCH   7  20
ATOM     20  C   UNL     1       0.650   0.384   3.009  0.00  0.00    +0.012 C 
BRANCH  20  21
ATOM     21  C   UNL     1      -0.809   0.288   3.458  0.00  0.00    +0.038 C 
BRANCH  21  22
ATOM     22  C   UNL     1      -1.023   1.170   4.661  0.00  0.00    +0.004 C 
ATOM     23  C   UNL     1      -1.482   2.420   4.657  0.00  0.00    +0.097 C 
ATOM     24  C   UNL     1      -1.538   2.913   6.037  0.00  0.00    +0.334 C 
ATOM     25  O   UNL     1      -1.915   4.020   6.368  0.00  0.00    -0.246 OA
ATOM     26  O   UNL     1      -1.111   1.955   6.880  0.00  0.00    -0.428 OA
ATOM     27  C   UNL     1      -0.765   0.804   6.104  0.00  0.00    +0.337 C 
BRANCH  27  28
ATOM     28  O   UNL     1       0.616   0.487   6.290  0.00  0.00    -0.354 OA
ATOM     29  H   UNL     1       0.845   0.244   7.197  0.00  0.00    +0.214 HD
ENDBRANCH  27  28
ENDBRANCH  21  22
ENDBRANCH  20  21
ENDBRANCH   7  20
TORSDOF 6
