REMARK  Name = ZINC09548811
REMARK  4 active torsions:
REMARK  status: ('A' for Active; 'I' for Inactive)
REMARK    1  A    between atoms: C_6  and  S_7
REMARK    2  A    between atoms: S_7  and  N_10
REMARK    3  A    between atoms: C_15  and  N_16
REMARK    4  A    between atoms: C_15  and  N_67
REMARK                            x       y       z     vdW  Elec       q    Type
REMARK                         _______ _______ _______ _____ _____    ______ ____
ROOT
ATOM      1  N   UNL     1      -3.276   2.792   3.633  0.00  0.00    -0.180 NA
ATOM      2  C   UNL     1      -2.692   3.971   2.976  0.00  0.00    +0.091 C 
ATOM      3  C   UNL     1      -2.447   3.635   1.501  0.00  0.00    -0.059 C 
ATOM      4  C   UNL     1      -2.355   1.259   1.976  0.00  0.00    -0.059 C 
ATOM      5  C   UNL     1      -2.597   1.498   3.470  0.00  0.00    +0.091 C 
ATOM      6  N   UNL     1      -1.615   2.415   1.424  0.00  0.00    +0.392 N 
ATOM      7  H   UNL     1      -0.762   2.558   1.976  0.00  0.00    -0.079 HD
ENDROOT
BRANCH   1   8
ATOM      8  S   UNL     1      -4.660   2.918   4.532  0.00  0.00    +0.061 S 
ATOM      9  O   UNL     1      -4.652   1.831   5.446  0.00  0.00    -0.153 OA
ATOM     10  O   UNL     1      -4.746   4.271   4.958  0.00  0.00    -0.153 OA
BRANCH   8  16
ATOM     11  C   UNL     1      -6.599   3.713   2.780  0.00  0.00    +0.029 A 
ATOM     12  C   UNL     1      -7.659   3.493   1.925  0.00  0.00    +0.006 A 
ATOM     13  C   UNL     1      -8.153   2.210   1.730  0.00  0.00    -0.044 A 
ATOM     14  C   UNL     1      -7.574   1.149   2.388  0.00  0.00    -0.042 A 
ATOM     15  C   UNL     1      -6.504   1.372   3.245  0.00  0.00    +0.032 A 
ATOM     16  C   UNL     1      -6.017   2.648   3.440  0.00  0.00    +0.106 A 
ATOM     17  C   UNL     1      -8.051  -0.270   2.216  0.00  0.00    +0.035 C 
ATOM     18  C   UNL     1      -9.454  -0.296   1.613  0.00  0.00    +0.005 C 
ATOM     19  C   UNL     1      -9.457   0.585   0.358  0.00  0.00    +0.005 C 
ATOM     20  C   UNL     1      -9.321   2.043   0.793  0.00  0.00    +0.035 C 
ENDBRANCH   8  16
ENDBRANCH   1   8
BRANCH   6  21
ATOM     21  C   UNL     1      -1.239   2.149   0.020  0.00  0.00    +0.043 C 
BRANCH  21  22
ATOM     22  N   UNL     1      -0.016   1.343   0.009  0.00  0.00    -0.241 N 
ATOM     23  C   UNL     1       0.002  -0.004   0.002  0.00  0.00    +0.245 C 
ATOM     24  O   UNL     1      -0.955  -0.748   0.009  0.00  0.00    -0.273 OA
ATOM     25  C   UNL     1       1.469  -0.399  -0.017  0.00  0.00    +0.112 C 
ATOM     26  C   UNL     1       1.758  -1.087  -1.371  0.00  0.00    +0.035 C 
ATOM     27  C   UNL     1       3.224  -0.959  -1.675  0.00  0.00    +0.003 C 
ATOM     28  C   UNL     1       4.037  -2.182  -1.206  0.00  0.00    +0.000 C 
ATOM     29  C   UNL     1       3.605  -2.690   0.183  0.00  0.00    +0.000 C 
ATOM     30  C   UNL     1       3.344  -1.564   1.147  0.00  0.00    +0.003 C 
ATOM     31  C   UNL     1       1.839  -1.236   1.117  0.00  0.00    +0.035 C 
ATOM     32  N   UNL     1       2.169   0.902  -0.014  0.00  0.00    -0.285 N 
ATOM     33  C   UNL     1       1.220   1.853   0.000  0.00  0.00    +0.308 C 
ATOM     34  O   UNL     1       1.458   3.045   0.004  0.00  0.00    -0.252 OA
ATOM     35  H   UNL     1       3.129   1.042  -0.021  0.00  0.00    +0.151 HD
ENDBRANCH  21  22
ENDBRANCH   6  21
TORSDOF 4
