REMARK  Name = ZINC56902208
REMARK  10 active torsions:
REMARK  status: ('A' for Active; 'I' for Inactive)
REMARK    1  A    between atoms: C_1  and  N_2
REMARK    2  A    between atoms: N_2  and  C_3
REMARK    3  A    between atoms: N_2  and  C_4
REMARK    4  A    between atoms: C_4  and  C_5
REMARK    5  A    between atoms: C_5  and  N_6
REMARK    6  A    between atoms: C_12  and  O_16
REMARK    7  A    between atoms: O_16  and  C_17
REMARK    8  A    between atoms: C_21  and  C_23
REMARK    9  A    between atoms: N_26  and  S_29
REMARK   10  A    between atoms: S_29  and  C_32
REMARK                            x       y       z     vdW  Elec       q    Type
REMARK                         _______ _______ _______ _____ _____    ______ ____
ROOT
ATOM      1  N   UNL     1      -3.506  -0.544  -1.623  0.00  0.00    -0.252 N 
ATOM      2  C   UNL     1      -4.579   0.292  -1.353  0.00  0.00    +0.168 A 
ATOM      3  N   UNL     1      -4.589   1.596  -1.206  0.00  0.00    -0.224 NA
ATOM      4  C   UNL     1      -5.720   2.288  -0.944  0.00  0.00    +0.081 A 
ATOM      5  C   UNL     1      -5.867   3.683  -0.763  0.00  0.00    +0.032 A 
ATOM      6  C   UNL     1      -7.094   4.231  -0.500  0.00  0.00    +0.048 A 
ATOM      7  C   UNL     1      -8.236   3.442  -0.402  0.00  0.00    +0.131 A 
ATOM      8  C   UNL     1      -8.127   2.070  -0.574  0.00  0.00    +0.063 A 
ATOM      9  C   UNL     1      -6.899   1.516  -0.837  0.00  0.00    +0.044 A 
ATOM     10  S   UNL     1      -6.300  -0.131  -1.126  0.00  0.00    -0.052 S 
ATOM     11  C   UNL     1      -3.717  -1.853  -1.866  0.00  0.00    +0.224 C 
ATOM     12  O   UNL     1      -2.774  -2.604  -2.000  0.00  0.00    -0.275 OA
ENDROOT
BRANCH  11  13
ATOM     13  C   UNL     1      -5.123  -2.383  -1.972  0.00  0.00    +0.078 C 
ATOM     14  C   UNL     1      -5.665  -2.676  -0.571  0.00  0.00    +0.030 C 
ATOM     15  C   UNL     1      -7.107  -3.182  -0.681  0.00  0.00    +0.110 C 
ATOM     16  N   UNL     1      -7.135  -4.334  -1.592  0.00  0.00    -0.181 NA
ATOM     17  C   UNL     1      -6.557  -4.187  -2.935  0.00  0.00    +0.110 C 
ATOM     18  C   UNL     1      -5.122  -3.670  -2.800  0.00  0.00    +0.030 C 
BRANCH  16  19
ATOM     19  S   UNL     1      -7.806  -5.771  -1.115  0.00  0.00    +0.029 S 
ATOM     20  O   UNL     1      -7.149  -6.756  -1.901  0.00  0.00    -0.158 OA
ATOM     21  O   UNL     1      -7.685  -5.775   0.301  0.00  0.00    -0.158 OA
ATOM     22  C   UNL     1      -9.552  -5.652  -1.593  0.00  0.00    +0.215 C 
ENDBRANCH  16  19
ENDBRANCH  11  13
BRANCH   1  23
ATOM     23  C   UNL     1      -2.144  -0.004  -1.643  0.00  0.00    +0.097 C 
BRANCH  23  24
ATOM     24  C   UNL     1      -1.501  -0.193  -0.268  0.00  0.00    -0.060 C 
BRANCH  24  26
ATOM     25  C   UNL     1      -0.187   1.801  -0.497  0.00  0.00    -0.097 C 
ATOM     26  N   UNL     1      -0.135   0.348  -0.289  0.00  0.00    +0.377 N 
ATOM     27  C   UNL     1       0.525   0.061   0.992  0.00  0.00    -0.097 C 
ATOM     28  H   UNL     1       0.386  -0.081  -1.039  0.00  0.00    -0.083 HD
ENDBRANCH  24  26
ENDBRANCH  23  24
ENDBRANCH   1  23
BRANCH   7  29
ATOM     29  O   UNL     1      -9.444   4.009  -0.139  0.00  0.00    -0.406 OA
BRANCH  29  30
ATOM     30  C   UNL     1      -9.472   5.428   0.026  0.00  0.00    +0.575 C 
ATOM     31  F   UNL     1      -9.015   6.043  -1.145  0.00  0.00    -0.133 F 
ATOM     32  F   UNL     1     -10.783   5.841   0.288  0.00  0.00    -0.133 F 
ATOM     33  F   UNL     1      -8.646   5.790   1.095  0.00  0.00    -0.133 F 
ENDBRANCH  29  30
ENDBRANCH   7  29
TORSDOF 7
