REMARK  Name = ZINC20285646
REMARK  6 active torsions:
REMARK  status: ('A' for Active; 'I' for Inactive)
REMARK    1  A    between atoms: C_1  and  C_2
REMARK    2  A    between atoms: C_5  and  S_8
REMARK    3  A    between atoms: S_8  and  C_11
REMARK    4  A    between atoms: N_21  and  C_22
REMARK    5  A    between atoms: C_25  and  O_29
REMARK    6  A    between atoms: O_29  and  C_30
REMARK                            x       y       z     vdW  Elec       q    Type
REMARK                         _______ _______ _______ _____ _____    ______ ____
ROOT
ATOM      1  C   UNL     1       1.069   3.453   0.112  0.00  0.00    +0.154 A 
ATOM      2  C   UNL     1       2.221   4.165   0.100  0.00  0.00    +0.044 A 
ATOM      3  C   UNL     1       3.488   3.435  -0.034  0.00  0.00    +0.021 A 
ATOM      4  C   UNL     1       4.710   4.114  -0.052  0.00  0.00    +0.031 A 
ATOM      5  C   UNL     1       5.883   3.401  -0.179  0.00  0.00    +0.042 A 
ATOM      6  C   UNL     1       5.854   2.018  -0.289  0.00  0.00    +0.023 A 
ATOM      7  C   UNL     1       4.654   1.337  -0.272  0.00  0.00    +0.048 A 
ATOM      8  C   UNL     1       3.461   2.035  -0.145  0.00  0.00    +0.138 A 
ATOM      9  O   UNL     1       2.278   1.381  -0.121  0.00  0.00    -0.437 OA
ATOM     10  C   UNL     1       1.111   2.044  -0.004  0.00  0.00    +0.225 A 
ATOM     11  N   UNL     1      -0.017   1.363   0.009  0.00  0.00    -0.324 N 
ATOM     12 CL   UNL     1       7.404   4.238  -0.203  0.00  0.00    -0.084 Cl
ATOM     13  H   UNL     1      -0.980   1.895   0.021  0.00  0.00    +0.169 HD
ENDROOT
BRANCH  11  14
ATOM     14  C   UNL     1       0.010  -0.004   0.009  0.00  0.00    +0.044 A 
ATOM     15  C   UNL     1      -0.095  -0.707  -1.195  0.00  0.00    +0.029 A 
ATOM     16  C   UNL     1      -0.063  -2.085  -1.191  0.00  0.00    +0.049 A 
ATOM     17  C   UNL     1       0.063  -2.776   0.006  0.00  0.00    +0.138 A 
ATOM     18  C   UNL     1       0.163  -2.083   1.206  0.00  0.00    +0.084 A 
ATOM     19  C   UNL     1       0.137  -0.703   1.212  0.00  0.00    +0.049 A 
ATOM     20 CL   UNL     1       0.321  -2.953   2.700  0.00  0.00    -0.080 Cl
BRANCH  17  21
ATOM     21  O   UNL     1       0.088  -4.135   0.005  0.00  0.00    -0.494 OA
ATOM     22  C   UNL     1      -0.019  -4.785  -1.263  0.00  0.00    +0.277 C 
ENDBRANCH  17  21
ENDBRANCH  11  14
BRANCH   1  23
ATOM     23  S   UNL     1      -0.479   4.280   0.271  0.00  0.00    +0.030 S 
ATOM     24  O   UNL     1      -0.847   4.707  -1.034  0.00  0.00    -0.164 OA
ATOM     25  O   UNL     1      -1.310   3.439   1.060  0.00  0.00    -0.164 OA
BRANCH  23  30
ATOM     26  C   UNL     1       0.492   9.277   3.510  0.00  0.00    +0.044 C 
ATOM     27  C   UNL     1       0.248   8.029   2.701  0.00  0.00    -0.050 A 
ATOM     28  C   UNL     1       0.360   8.066   1.323  0.00  0.00    +0.005 A 
ATOM     29  C   UNL     1       0.138   6.921   0.581  0.00  0.00    +0.027 A 
ATOM     30  C   UNL     1      -0.196   5.739   1.216  0.00  0.00    +0.094 A 
ATOM     31  C   UNL     1      -0.313   5.704   2.593  0.00  0.00    +0.027 A 
ATOM     32  C   UNL     1      -0.086   6.848   3.336  0.00  0.00    +0.005 A 
ENDBRANCH  23  30
ENDBRANCH   1  23
TORSDOF 4
