REMARK  Name = ZINC22400378
REMARK  9 active torsions:
REMARK  status: ('A' for Active; 'I' for Inactive)
REMARK    1  A    between atoms: C_1  and  S_2
REMARK    2  A    between atoms: S_2  and  N_5
REMARK    3  A    between atoms: N_5  and  C_6
REMARK    4  A    between atoms: N_5  and  C_20
REMARK    5  A    between atoms: C_6  and  C_7
REMARK    6  A    between atoms: N_9  and  C_10
REMARK    7  A    between atoms: C_12  and  N_17
REMARK    8  A    between atoms: C_25  and  O_26
REMARK    9  A    between atoms: O_26  and  C_27
REMARK                            x       y       z     vdW  Elec       q    Type
REMARK                         _______ _______ _______ _____ _____    ______ ____
ROOT
ATOM      1  N   UNL     1       3.680   6.184   0.316  0.00  0.00    -0.195 N 
ENDROOT
BRANCH   1   2
ATOM      2  C   UNL     1       4.399   6.415  -0.862  0.00  0.00    +0.094 A 
ATOM      3  C   UNL     1       4.263   7.621  -1.534  0.00  0.00    +0.028 A 
ATOM      4  C   UNL     1       4.974   7.847  -2.697  0.00  0.00    +0.002 A 
ATOM      5  C   UNL     1       5.823   6.874  -3.193  0.00  0.00    +0.004 A 
ATOM      6  C   UNL     1       5.964   5.670  -2.528  0.00  0.00    +0.048 A 
ATOM      7  C   UNL     1       5.258   5.437  -1.359  0.00  0.00    +0.151 A 
BRANCH   7   8
ATOM      8  O   UNL     1       5.401   4.256  -0.700  0.00  0.00    -0.454 OA
BRANCH   8   9
ATOM      9  C   UNL     1       6.326   3.375  -1.163  0.00  0.00    +0.129 A 
ATOM     10  C   UNL     1       5.923   2.152  -1.681  0.00  0.00    +0.046 A 
ATOM     11  C   UNL     1       6.865   1.261  -2.157  0.00  0.00    +0.004 A 
ATOM     12  C   UNL     1       8.210   1.582  -2.106  0.00  0.00    +0.000 A 
ATOM     13  C   UNL     1       8.614   2.797  -1.584  0.00  0.00    +0.004 A 
ATOM     14  C   UNL     1       7.675   3.694  -1.113  0.00  0.00    +0.046 A 
ENDBRANCH   8   9
ENDBRANCH   7   8
ENDBRANCH   1   2
BRANCH   1  16
ATOM     15  C   UNL     1       5.282   4.960   2.190  0.00  0.00    +0.218 C 
ATOM     16  S   UNL     1       4.381   6.481   1.787  0.00  0.00    +0.043 S 
ATOM     17  O   UNL     1       5.295   7.542   1.545  0.00  0.00    -0.155 OA
ATOM     18  O   UNL     1       3.289   6.655   2.680  0.00  0.00    -0.155 OA
ENDBRANCH   1  16
BRANCH   1  19
ATOM     19  C   UNL     1       2.306   5.678   0.248  0.00  0.00    +0.227 C 
BRANCH  19  20
ATOM     20  C   UNL     1       2.329   4.176   0.138  0.00  0.00    +0.236 C 
ATOM     21  O   UNL     1       3.388   3.585   0.118  0.00  0.00    -0.274 OA
ATOM     22  N   UNL     1       1.172   3.488   0.062  0.00  0.00    -0.283 N 
ATOM     23  H   UNL     1       0.216   4.027  -0.015  0.00  0.00    +0.155 HD
BRANCH  22  24
ATOM     24  C   UNL     1       1.188   2.088   0.080  0.00  0.00    +0.054 A 
ATOM     25  C   UNL     1       2.247   1.412   0.671  0.00  0.00    +0.057 A 
ATOM     26  C   UNL     1       2.259   0.031   0.688  0.00  0.00    +0.128 A 
ATOM     27  C   UNL     1       1.219  -0.679   0.116  0.00  0.00    +0.034 A 
ATOM     28  C   UNL     1       0.163  -0.009  -0.474  0.00  0.00    +0.024 A 
ATOM     29  C   UNL     1       0.144   1.373  -0.494  0.00  0.00    +0.062 A 
ATOM     30 CL   UNL     1      -1.178   2.213  -1.241  0.00  0.00    -0.082 Cl
BRANCH  26  31
ATOM     31  N   UNL     1       3.388  -0.691   1.318  0.00  0.00    +0.056 N 
ATOM     32  O   UNL     1       3.400  -1.908   1.332  0.00  0.00    -0.126 OA
ATOM     33  O   UNL     1       4.304  -0.066   1.821  0.00  0.00    -0.126 OA
ENDBRANCH  26  31
ENDBRANCH  22  24
ENDBRANCH  19  20
ENDBRANCH   1  19
TORSDOF 8
