REMARK  Name = ZINC02352142
REMARK  8 active torsions:
REMARK  status: ('A' for Active; 'I' for Inactive)
REMARK    1  A    between atoms: C_1  and  C_2
REMARK    2  A    between atoms: C_2  and  C_3
REMARK    3  A    between atoms: N_14  and  C_31
REMARK    4  A    between atoms: C_15  and  S_17
REMARK    5  A    between atoms: S_17  and  C_18
REMARK    6  A    between atoms: C_18  and  C_19
REMARK    7  A    between atoms: N_21  and  C_22
REMARK    8  A    between atoms: C_26  and  N_28
REMARK                            x       y       z     vdW  Elec       q    Type
REMARK                         _______ _______ _______ _____ _____    ______ ____
ROOT
ATOM      1  C   UNL     1     -11.738  -5.264   0.206  0.00  0.00    -0.006 C 
ATOM      2  C   UNL     1     -10.769  -6.091   1.056  0.00  0.00    +0.008 C 
ATOM      3  C   UNL     1      -9.405  -6.161   0.367  0.00  0.00    +0.037 C 
ATOM      4  C   UNL     1      -8.947  -4.743   0.037  0.00  0.00    -0.023 A 
ATOM      5  C   UNL     1      -9.830  -3.725  -0.000  0.00  0.00    -0.004 A 
ATOM      6  S   UNL     1      -8.867  -2.295  -0.415  0.00  0.00    -0.073 S 
ATOM      7  C   UNL     1      -7.276  -3.072  -0.538  0.00  0.00    +0.117 A 
ATOM      8  C   UNL     1      -7.548  -4.420  -0.252  0.00  0.00    +0.076 A 
ATOM      9  C   UNL     1      -6.423  -5.304  -0.279  0.00  0.00    +0.268 A 
ATOM     10  O   UNL     1      -6.564  -6.492  -0.043  0.00  0.00    -0.267 OA
ATOM     11  N   UNL     1      -5.208  -4.806  -0.573  0.00  0.00    -0.255 N 
ATOM     12  C   UNL     1      -5.031  -3.476  -0.835  0.00  0.00    +0.178 A 
ATOM     13  N   UNL     1      -6.051  -2.642  -0.816  0.00  0.00    -0.215 NA
ATOM     14  C   UNL     1     -11.305  -3.792   0.255  0.00  0.00    +0.046 C 
ENDROOT
BRANCH  11  15
ATOM     15  C   UNL     1      -4.102  -5.667  -0.606  0.00  0.00    +0.052 A 
ATOM     16  C   UNL     1      -3.828  -6.403  -1.751  0.00  0.00    +0.026 A 
ATOM     17  C   UNL     1      -2.734  -7.245  -1.783  0.00  0.00    +0.002 A 
ATOM     18  C   UNL     1      -1.920  -7.365  -0.672  0.00  0.00    +0.000 A 
ATOM     19  C   UNL     1      -2.194  -6.638   0.472  0.00  0.00    +0.002 A 
ATOM     20  C   UNL     1      -3.282  -5.789   0.507  0.00  0.00    +0.026 A 
ENDBRANCH  11  15
BRANCH   1  22
ATOM     21  C   UNL     1     -14.140  -4.678  -0.156  0.00  0.00    +0.004 C 
ATOM     22  C   UNL     1     -13.156  -5.401   0.765  0.00  0.00    +0.000 C 
ENDBRANCH   1  22
BRANCH  12  23
ATOM     23  S   UNL     1      -3.419  -2.871  -1.209  0.00  0.00    -0.078 S 
BRANCH  23  24
ATOM     24  C   UNL     1      -3.793  -1.118  -1.461  0.00  0.00    +0.173 C 
BRANCH  24  25
ATOM     25  C   UNL     1      -2.525  -0.378  -1.803  0.00  0.00    +0.227 C 
ATOM     26  O   UNL     1      -1.473  -0.977  -1.869  0.00  0.00    -0.275 OA
ATOM     27  N   UNL     1      -2.561   0.949  -2.035  0.00  0.00    -0.285 N 
ATOM     28  H   UNL     1      -3.386   1.442  -1.905  0.00  0.00    +0.155 HD
BRANCH  27  29
ATOM     29  C   UNL     1      -1.408   1.616  -2.464  0.00  0.00    +0.036 A 
ATOM     30  C   UNL     1      -0.447   0.939  -3.203  0.00  0.00    +0.023 A 
ATOM     31  C   UNL     1       0.687   1.601  -3.630  0.00  0.00    +0.004 A 
ATOM     32  C   UNL     1       0.869   2.936  -3.318  0.00  0.00    +0.033 A 
ATOM     33  C   UNL     1      -0.083   3.611  -2.577  0.00  0.00    +0.128 A 
ATOM     34  C   UNL     1      -1.220   2.954  -2.146  0.00  0.00    +0.056 A 
BRANCH  33  35
ATOM     35  N   UNL     1       0.115   5.040  -2.245  0.00  0.00    +0.056 N 
ATOM     36  O   UNL     1       1.116   5.620  -2.625  0.00  0.00    -0.126 OA
ATOM     37  O   UNL     1      -0.724   5.636  -1.593  0.00  0.00    -0.126 OA
ENDBRANCH  33  35
ENDBRANCH  27  29
ENDBRANCH  24  25
ENDBRANCH  23  24
ENDBRANCH  12  23
TORSDOF 7
