REMARK  Name = ZINC63150575
REMARK  6 active torsions:
REMARK  status: ('A' for Active; 'I' for Inactive)
REMARK    1  A    between atoms: C_1  and  C_2
REMARK    2  A    between atoms: C_2  and  C_4
REMARK    3  A    between atoms: C_2  and  O_19
REMARK    4  A    between atoms: N_6  and  N_7
REMARK    5  A    between atoms: C_8  and  C_10
REMARK    6  A    between atoms: O_19  and  C_20
REMARK                            x       y       z     vdW  Elec       q    Type
REMARK                         _______ _______ _______ _____ _____    ______ ____
ROOT
ATOM      1  C   UNL     1      -1.469  -0.321   0.136  0.00  0.00    +0.270 C 
ATOM      2  O   UNL     1      -1.895  -0.800   1.165  0.00  0.00    -0.270 OA
ATOM      3  N   UNL     1      -2.309  -0.063  -0.887  0.00  0.00    -0.231 N 
ATOM      4  H   UNL     1      -1.968   0.320  -1.710  0.00  0.00    +0.173 HD
ENDROOT
BRANCH   3   5
ATOM      5  N   UNL     1      -3.674  -0.350  -0.761  0.00  0.00    -0.230 N 
ATOM      6  C   UNL     1      -4.514  -0.092  -1.783  0.00  0.00    +0.258 C 
ATOM      7  O   UNL     1      -4.086   0.389  -2.815  0.00  0.00    -0.269 OA
ATOM      8  H   UNL     1      -4.016  -0.733   0.062  0.00  0.00    +0.173 HD
BRANCH   6   9
ATOM      9  C   UNL     1      -5.944  -0.392  -1.651  0.00  0.00    +0.044 C 
ATOM     10  C   UNL     1      -6.926  -0.196  -2.597  0.00  0.00    +0.008 A 
ATOM     11  C   UNL     1      -6.903   0.321  -3.917  0.00  0.00    +0.010 A 
ATOM     12  C   UNL     1      -8.043   0.402  -4.636  0.00  0.00    +0.001 A 
ATOM     13  C   UNL     1      -9.286  -0.011  -4.127  0.00  0.00    +0.002 A 
ATOM     14  C   UNL     1      -9.417  -0.517  -2.882  0.00  0.00    +0.026 A 
ATOM     15  C   UNL     1      -8.223  -0.641  -2.031  0.00  0.00    +0.043 A 
ATOM     16  N   UNL     1      -8.062  -1.084  -0.816  0.00  0.00    -0.380 N 
ATOM     17  C   UNL     1      -6.646  -0.987  -0.450  0.00  0.00    +0.154 C 
ATOM     18  H   UNL     1      -8.768  -1.428  -0.245  0.00  0.00    +0.160 HD
ENDBRANCH   6   9
ENDBRANCH   3   5
BRANCH   1  20
ATOM     19  C   UNL     1       0.194   1.499  -0.139  0.00  0.00    +0.062 C 
ATOM     20  C   UNL     1       0.000  -0.013  -0.000  0.00  0.00    +0.257 C 
BRANCH  20  21
ATOM     21  O   UNL     1       0.693  -0.477   1.160  0.00  0.00    -0.479 OA
BRANCH  21  22
ATOM     22  C   UNL     1       2.014  -0.764   1.016  0.00  0.00    +0.136 A 
ATOM     23  C   UNL     1       2.656  -0.496  -0.184  0.00  0.00    +0.048 A 
ATOM     24  C   UNL     1       3.999  -0.787  -0.329  0.00  0.00    +0.023 A 
ATOM     25  C   UNL     1       4.704  -1.347   0.722  0.00  0.00    +0.042 A 
ATOM     26  C   UNL     1       4.066  -1.615   1.920  0.00  0.00    +0.039 A 
ATOM     27  C   UNL     1       2.724  -1.320   2.071  0.00  0.00    +0.061 A 
ATOM     28 BR   UNL     1       1.853  -1.681   3.711  0.00  0.00    -0.046 Br
ATOM     29 CL   UNL     1       6.391  -1.713   0.538  0.00  0.00    -0.084 Cl
ENDBRANCH  21  22
ENDBRANCH  20  21
ENDBRANCH   1  20
TORSDOF 5
