REMARK  Name = ZINC03402180
REMARK  11 active torsions:
REMARK  status: ('A' for Active; 'I' for Inactive)
REMARK    1  A    between atoms: C_1  and  C_2
REMARK    2  A    between atoms: C_5  and  C_8
REMARK    3  A    between atoms: C_8  and  C_10
REMARK    4  A    between atoms: C_15  and  C_16
REMARK    5  A    between atoms: C_16  and  O_18
REMARK    6  A    between atoms: O_18  and  C_19
REMARK    7  A    between atoms: C_19  and  C_20
REMARK    8  A    between atoms: N_22  and  C_23
REMARK    9  A    between atoms: C_24  and  C_33
REMARK   10  A    between atoms: C_33  and  O_35
REMARK   11  A    between atoms: O_35  and  C_36
REMARK                            x       y       z     vdW  Elec       q    Type
REMARK                         _______ _______ _______ _____ _____    ______ ____
ROOT
ATOM      1  C   UNL     1       1.050   3.673   0.599  0.00  0.00    +0.328 C 
ENDROOT
BRANCH   1   2
ATOM      2  C   UNL     1       1.040   2.172   0.724  0.00  0.00    +0.255 C 
ATOM      3  O   UNL     1       2.082   1.552   0.685  0.00  0.00    -0.272 OA
ATOM      4  N   UNL     1      -0.128   1.516   0.878  0.00  0.00    -0.277 N 
ATOM      5  H   UNL     1      -0.962   2.011   0.905  0.00  0.00    +0.155 HD
BRANCH   4   6
ATOM      6  C   UNL     1      -0.138   0.135   0.993  0.00  0.00    +0.086 A 
ATOM      7  C   UNL     1      -1.226  -0.709   1.161  0.00  0.00    +0.091 A 
ATOM      8  C   UNL     1      -0.966  -2.140   1.248  0.00  0.00    -0.021 A 
ATOM      9  C   UNL     1       0.336  -2.487   1.170  0.00  0.00    -0.004 A 
ATOM     10  S   UNL     1       1.206  -0.957   0.968  0.00  0.00    -0.077 S 
ATOM     11  C   UNL     1       0.922  -3.862   1.251  0.00  0.00    +0.043 C 
ATOM     12  C   UNL     1       0.153  -4.798   0.308  0.00  0.00    +0.005 C 
ATOM     13  C   UNL     1      -1.012  -5.408   1.080  0.00  0.00    +0.001 C 
ATOM     14  C   UNL     1      -1.541  -4.411   2.109  0.00  0.00    +0.005 C 
ATOM     15  C   UNL     1      -2.080  -3.165   1.415  0.00  0.00    +0.037 C 
BRANCH   7  16
ATOM     16  C   UNL     1      -2.589  -0.179   1.244  0.00  0.00    +0.342 C 
ATOM     17  O   UNL     1      -3.252  -0.044   0.233  0.00  0.00    -0.245 OA
BRANCH  16  18
ATOM     18  O   UNL     1      -3.109   0.158   2.442  0.00  0.00    -0.464 OA
ATOM     19  C   UNL     1      -4.466   0.676   2.449  0.00  0.00    +0.280 C 
ENDBRANCH  16  18
ENDBRANCH   7  16
ENDBRANCH   4   6
ENDBRANCH   1   2
BRANCH   1  20
ATOM     20  O   UNL     1       2.417   4.136   0.444  0.00  0.00    -0.452 OA
BRANCH  20  21
ATOM     21  C   UNL     1       2.603   5.465   0.319  0.00  0.00    +0.340 C 
ATOM     22  O   UNL     1       1.648   6.216   0.339  0.00  0.00    -0.245 OA
BRANCH  21  28
ATOM     23  C   UNL     1       4.158   7.380  -0.101  0.00  0.00    +0.036 A 
ATOM     24  C   UNL     1       5.450   7.880  -0.247  0.00  0.00    +0.012 A 
ATOM     25  C   UNL     1       6.535   7.029  -0.149  0.00  0.00    +0.001 A 
ATOM     26  C   UNL     1       6.348   5.681   0.100  0.00  0.00    +0.001 A 
ATOM     27  C   UNL     1       5.073   5.167   0.253  0.00  0.00    +0.016 A 
ATOM     28  C   UNL     1       3.968   6.009   0.157  0.00  0.00    +0.070 A 
BRANCH  23  29
ATOM     29  C   UNL     1       2.994   8.285  -0.212  0.00  0.00    +0.194 C 
ATOM     30  O   UNL     1       2.710   9.024   0.710  0.00  0.00    -0.287 OA
BRANCH  29  35
ATOM     31  C   UNL     1      -0.191   8.303  -5.004  0.00  0.00    +0.044 C 
ATOM     32  C   UNL     1       0.643   8.299  -3.749  0.00  0.00    -0.050 A 
ATOM     33  C   UNL     1       0.367   9.200  -2.735  0.00  0.00    +0.004 A 
ATOM     34  C   UNL     1       1.127   9.201  -1.583  0.00  0.00    +0.012 A 
ATOM     35  C   UNL     1       2.176   8.289  -1.442  0.00  0.00    +0.022 A 
ATOM     36  C   UNL     1       2.452   7.386  -2.471  0.00  0.00    +0.012 A 
ATOM     37  C   UNL     1       1.681   7.393  -3.615  0.00  0.00    +0.004 A 
ENDBRANCH  29  35
ENDBRANCH  23  29
ENDBRANCH  21  28
ENDBRANCH  20  21
ENDBRANCH   1  20
TORSDOF 9
