REMARK  Name = ZINC15007572
REMARK  10 active torsions:
REMARK  status: ('A' for Active; 'I' for Inactive)
REMARK    1  A    between atoms: C_1  and  N_69
REMARK    2  A    between atoms: C_2  and  N_69
REMARK    3  A    between atoms: C_3  and  C_4
REMARK    4  A    between atoms: C_3  and  N_69
REMARK    5  A    between atoms: C_4  and  N_5
REMARK    6  A    between atoms: C_8  and  C_12
REMARK    7  A    between atoms: C_8  and  C_20
REMARK    8  A    between atoms: C_12  and  C_13
REMARK    9  A    between atoms: C_26  and  C_28
REMARK   10  A    between atoms: C_29  and  C_30
REMARK                            x       y       z     vdW  Elec       q    Type
REMARK                         _______ _______ _______ _____ _____    ______ ____
ROOT
ATOM      1  N   UNL     1       2.336  -1.414   4.033  0.00  0.00    -0.226 N 
ATOM      2  C   UNL     1       2.471  -0.168   3.528  0.00  0.00    +0.247 C 
ATOM      3  O   UNL     1       2.117   0.874   4.037  0.00  0.00    -0.273 OA
ATOM      4  C   UNL     1       3.158  -0.346   2.188  0.00  0.00    +0.119 C 
ATOM      5  N   UNL     1       3.351  -1.803   2.085  0.00  0.00    -0.284 N 
ATOM      6  C   UNL     1       2.840  -2.339   3.208  0.00  0.00    +0.309 C 
ATOM      7  O   UNL     1       2.836  -3.531   3.446  0.00  0.00    -0.252 OA
ATOM      8  H   UNL     1       3.765  -2.282   1.350  0.00  0.00    +0.151 HD
ENDROOT
BRANCH   4   9
ATOM      9  C   UNL     1       2.265   0.161   1.054  0.00  0.00    +0.025 C 
ATOM     10  C   UNL     1       0.882  -0.487   1.165  0.00  0.00    +0.025 C 
ATOM     11  C   UNL     1       0.002  -0.004   0.008  0.00  0.00    +0.108 C 
ATOM     12  N   UNL     1      -0.018   1.465   0.011  0.00  0.00    -0.298 N 
ATOM     13  C   UNL     1       1.261   2.189  -0.003  0.00  0.00    +0.108 C 
ATOM     14  C   UNL     1       2.127   1.681   1.154  0.00  0.00    +0.025 C 
ATOM     15  C   UNL     1      -1.187   2.136   0.019  0.00  0.00    +0.239 C 
ATOM     16  O   UNL     1      -1.191   3.349   0.117  0.00  0.00    -0.271 OA
BRANCH  15  17
ATOM     17  C   UNL     1      -2.451   1.405  -0.089  0.00  0.00    +0.068 C 
ATOM     18  C   UNL     1      -3.614   2.081  -0.181  0.00  0.00    +0.013 C 
BRANCH  18  19
ATOM     19  C   UNL     1      -4.885   1.346  -0.291  0.00  0.00    -0.025 A 
ATOM     20  C   UNL     1      -4.890  -0.052  -0.305  0.00  0.00    +0.008 A 
ATOM     21  C   UNL     1      -6.085  -0.733  -0.401  0.00  0.00    +0.001 A 
ATOM     22  C   UNL     1      -7.277  -0.036  -0.496  0.00  0.00    +0.000 A 
ATOM     23  C   UNL     1      -7.280   1.348  -0.489  0.00  0.00    +0.001 A 
ATOM     24  C   UNL     1      -6.094   2.043  -0.387  0.00  0.00    +0.008 A 
ENDBRANCH  18  19
ENDBRANCH  15  17
ENDBRANCH   4   9
BRANCH   1  25
ATOM     25  C   UNL     1       1.717  -1.715   5.326  0.00  0.00    +0.099 C 
BRANCH  25  26
ATOM     26  C   UNL     1       2.787  -1.695   6.420  0.00  0.00    -0.060 C 
BRANCH  26  29
ATOM     27  C   UNL     1       1.658  -3.374   7.750  0.00  0.00    -0.097 C 
ATOM     28  C   UNL     1       3.107  -1.755   8.819  0.00  0.00    -0.097 C 
ATOM     29  N   UNL     1       2.144  -1.978   7.720  0.00  0.00    +0.377 N 
ATOM     30  H   UNL     1       1.345  -1.344   7.843  0.00  0.00    -0.083 HD
ENDBRANCH  26  29
ENDBRANCH  25  26
ENDBRANCH   1  25
BRANCH   4  31
ATOM     31  C   UNL     1       4.505   0.378   2.174  0.00  0.00    +0.070 C 
BRANCH  31  32
ATOM     32  C   UNL     1       5.409  -0.222   3.220  0.00  0.00    -0.042 A 
ATOM     33  C   UNL     1       6.236  -1.281   2.893  0.00  0.00    +0.004 A 
ATOM     34  C   UNL     1       7.066  -1.833   3.852  0.00  0.00    +0.003 A 
ATOM     35  C   UNL     1       7.069  -1.327   5.138  0.00  0.00    +0.038 A 
ATOM     36  C   UNL     1       6.242  -0.267   5.466  0.00  0.00    +0.124 A 
ATOM     37  C   UNL     1       5.415   0.289   4.504  0.00  0.00    +0.042 A 
ATOM     38  F   UNL     1       6.245   0.229   6.723  0.00  0.00    -0.205 F 
ENDBRANCH  31  32
ENDBRANCH   4  31
TORSDOF 8
