REMARK  Name = ZINC54201339
REMARK  8 active torsions:
REMARK  status: ('A' for Active; 'I' for Inactive)
REMARK    1  A    between atoms: C_1  and  O_2
REMARK    2  A    between atoms: O_2  and  C_3
REMARK    3  A    between atoms: C_6  and  C_9
REMARK    4  A    between atoms: C_12  and  C_15
REMARK    5  A    between atoms: C_28  and  C_29
REMARK    6  A    between atoms: C_32  and  O_37
REMARK    7  A    between atoms: C_33  and  O_35
REMARK    8  A    between atoms: O_35  and  C_36
REMARK                            x       y       z     vdW  Elec       q    Type
REMARK                         _______ _______ _______ _____ _____    ______ ____
ROOT
ATOM      1  C   UNL     1       2.343  -2.427  -4.386  0.00  0.00    +0.069 C 
ATOM      2  N   UNL     1       2.851  -1.818  -5.403  0.00  0.00    -0.182 NA
ATOM      3  N   UNL     1       2.915  -2.595  -6.558  0.00  0.00    -0.200 N 
ATOM      4  C   UNL     1       2.366  -3.928  -6.266  0.00  0.00    +0.135 C 
ATOM      5  C   UNL     1       1.972  -3.840  -4.778  0.00  0.00    +0.087 C 
ATOM      6  C   UNL     1       3.411  -2.183  -7.770  0.00  0.00    +0.149 C 
ATOM      7  N   UNL     1       3.428  -2.974  -8.803  0.00  0.00    -0.153 NA
ATOM      8  C   UNL     1       3.907  -2.587  -9.992  0.00  0.00    +0.302 C 
ATOM      9  O   UNL     1       3.979  -3.227 -11.027  0.00  0.00    -0.260 OA
ATOM     10  S   UNL     1       4.415  -0.901  -9.688  0.00  0.00    -0.026 S 
ATOM     11  C   UNL     1       3.941  -0.821  -7.965  0.00  0.00    +0.057 C 
ATOM     12  C   UNL     1       4.044   0.208  -7.080  0.00  0.00    +0.026 C 
ENDROOT
BRANCH   4  13
ATOM     13  C   UNL     1       3.415  -4.990  -6.472  0.00  0.00    -0.025 A 
ATOM     14  C   UNL     1       4.723  -4.752  -6.096  0.00  0.00    +0.007 A 
ATOM     15  C   UNL     1       5.686  -5.726  -6.285  0.00  0.00    +0.020 A 
ATOM     16  C   UNL     1       5.339  -6.940  -6.851  0.00  0.00    +0.041 A 
ATOM     17  C   UNL     1       4.029  -7.178  -7.228  0.00  0.00    +0.020 A 
ATOM     18  C   UNL     1       3.067  -6.205  -7.033  0.00  0.00    +0.007 A 
ATOM     19 CL   UNL     1       6.547  -8.163  -7.090  0.00  0.00    -0.084 Cl
ENDBRANCH   4  13
BRANCH   1  23
ATOM     20  C   UNL     1       1.812  -0.735  -0.529  0.00  0.00    +0.120 A 
ATOM     21  C   UNL     1       2.367   0.027  -1.549  0.00  0.00    +0.046 A 
ATOM     22  C   UNL     1       2.542  -0.518  -2.803  0.00  0.00    +0.013 A 
ATOM     23  C   UNL     1       2.159  -1.840  -3.047  0.00  0.00    -0.002 A 
ATOM     24  C   UNL     1       1.601  -2.603  -2.018  0.00  0.00    +0.013 A 
ATOM     25  C   UNL     1       1.435  -2.051  -0.766  0.00  0.00    +0.046 A 
BRANCH  20  27
ATOM     26  C   UNL     1       2.051   1.164   0.880  0.00  0.00    +0.277 C 
ATOM     27  O   UNL     1       1.642  -0.194   0.705  0.00  0.00    -0.495 OA
ENDBRANCH  20  27
ENDBRANCH   1  23
BRANCH  12  28
ATOM     28  C   UNL     1       4.438   1.541  -7.548  0.00  0.00    -0.020 A 
ATOM     29  C   UNL     1       4.528   1.806  -8.921  0.00  0.00    +0.012 A 
ATOM     30  C   UNL     1       4.898   3.058  -9.357  0.00  0.00    +0.050 A 
ATOM     31  C   UNL     1       5.183   4.061  -8.440  0.00  0.00    +0.158 A 
ATOM     32  C   UNL     1       5.096   3.806  -7.071  0.00  0.00    +0.162 A 
ATOM     33  C   UNL     1       4.719   2.556  -6.624  0.00  0.00    +0.057 A 
BRANCH  32  34
ATOM     34  O   UNL     1       5.377   4.792  -6.177  0.00  0.00    -0.491 OA
ATOM     35  C   UNL     1       5.268   4.461  -4.791  0.00  0.00    +0.277 C 
ENDBRANCH  32  34
BRANCH  31  36
ATOM     36  O   UNL     1       5.548   5.295  -8.876  0.00  0.00    -0.503 OA
ATOM     37  H   UNL     1       4.806   5.900  -9.011  0.00  0.00    +0.292 HD
ENDBRANCH  31  36
ENDBRANCH  12  28
TORSDOF 6
