REMARK  Name = ZINC04267292
REMARK  12 active torsions:
REMARK  status: ('A' for Active; 'I' for Inactive)
REMARK    1  A    between atoms: C_1  and  C_2
REMARK    2  A    between atoms: C_3  and  N_15
REMARK    3  A    between atoms: N_6  and  C_9
REMARK    4  A    between atoms: N_7  and  C_8
REMARK    5  A    between atoms: N_15  and  C_16
REMARK    6  A    between atoms: C_16  and  C_18
REMARK    7  A    between atoms: C_16  and  C_34
REMARK    8  A    between atoms: C_18  and  C_19
REMARK    9  A    between atoms: C_19  and  C_21
REMARK   10  A    between atoms: C_22  and  O_33
REMARK   11  A    between atoms: N_29  and  C_32
REMARK   12  A    between atoms: C_43  and  O_44
REMARK                            x       y       z     vdW  Elec       q    Type
REMARK                         _______ _______ _______ _____ _____    ______ ____
ROOT
ATOM      1  C   UNL     1      -4.937   7.204   0.387  0.00  0.00    +0.112 C 
ENDROOT
BRANCH   1   2
ATOM      2  C   UNL     1      -4.700   8.610  -0.100  0.00  0.00    +0.022 A 
ATOM      3  C   UNL     1      -4.751   8.900  -1.473  0.00  0.00    -0.009 A 
ATOM      4  C   UNL     1      -5.035   7.900  -2.419  0.00  0.00    +0.009 A 
ATOM      5  C   UNL     1      -5.082   8.218  -3.741  0.00  0.00    +0.001 A 
ATOM      6  C   UNL     1      -4.859   9.524  -4.174  0.00  0.00    +0.001 A 
ATOM      7  C   UNL     1      -4.587  10.519  -3.287  0.00  0.00    +0.008 A 
ATOM      8  C   UNL     1      -4.529  10.230  -1.913  0.00  0.00    -0.017 A 
ATOM      9  C   UNL     1      -4.251  11.233  -0.968  0.00  0.00    +0.012 A 
ATOM     10  C   UNL     1      -4.203  10.919   0.355  0.00  0.00    +0.046 A 
ATOM     11  C   UNL     1      -4.427   9.609   0.791  0.00  0.00    +0.122 A 
BRANCH  11  12
ATOM     12  O   UNL     1      -4.373   9.326   2.119  0.00  0.00    -0.506 OA
ATOM     13  H   UNL     1      -3.493   9.073   2.432  0.00  0.00    +0.292 HD
ENDBRANCH  11  12
ENDBRANCH   1   2
BRANCH   1  14
ATOM     14  N   UNL     1      -5.836   7.234   1.549  0.00  0.00    -0.331 N 
ATOM     15  H   UNL     1      -5.700   6.422   2.132  0.00  0.00    +0.147 HD
BRANCH  14  18
ATOM     16  C   UNL     1      -7.740   9.456   2.451  0.00  0.00    +0.067 C 
ATOM     17  C   UNL     1      -8.048   8.310   1.522  0.00  0.00    +0.059 A 
ATOM     18  C   UNL     1      -7.183   7.345   1.144  0.00  0.00    +0.116 A 
ATOM     19  C   UNL     1      -7.867   6.459   0.272  0.00  0.00    +0.293 A 
ATOM     20  O   UNL     1      -7.397   5.469  -0.259  0.00  0.00    -0.264 OA
ATOM     21  N   UNL     1      -9.131   6.910   0.137  0.00  0.00    -0.216 N 
ATOM     22  N   UNL     1      -9.256   8.070   0.912  0.00  0.00    -0.282 N 
ATOM     23  C   UNL     1     -10.466   8.884   1.053  0.00  0.00    +0.171 C 
BRANCH  21  24
ATOM     24  C   UNL     1     -10.137   6.324  -0.637  0.00  0.00    +0.067 A 
ATOM     25  C   UNL     1     -11.395   6.101  -0.092  0.00  0.00    +0.028 A 
ATOM     26  C   UNL     1     -12.388   5.528  -0.861  0.00  0.00    +0.002 A 
ATOM     27  C   UNL     1     -12.127   5.165  -2.170  0.00  0.00    +0.000 A 
ATOM     28  C   UNL     1     -10.874   5.379  -2.714  0.00  0.00    +0.002 A 
ATOM     29  C   UNL     1      -9.879   5.957  -1.952  0.00  0.00    +0.028 A 
ENDBRANCH  21  24
ENDBRANCH  14  18
ENDBRANCH   1  14
BRANCH   1  30
ATOM     30  C   UNL     1      -3.604   6.572   0.790  0.00  0.00    +0.107 C 
BRANCH  30  31
ATOM     31  C   UNL     1      -3.824   5.128   1.161  0.00  0.00    +0.174 C 
ATOM     32  O   UNL     1      -4.940   4.651   1.107  0.00  0.00    -0.292 OA
BRANCH  31  33
ATOM     33  C   UNL     1      -2.731   4.327   1.571  0.00  0.00    +0.124 A 
ATOM     34  C   UNL     1      -2.930   2.996   1.960  0.00  0.00    +0.142 A 
ATOM     35  C   UNL     1      -1.763   2.213   2.377  0.00  0.00    +0.041 A 
ATOM     36  C   UNL     1      -1.906   0.877   2.771  0.00  0.00    +0.013 A 
ATOM     37  C   UNL     1      -0.809   0.162   3.160  0.00  0.00    +0.001 A 
ATOM     38  C   UNL     1       0.449   0.748   3.158  0.00  0.00    +0.002 A 
ATOM     39  C   UNL     1       0.614   2.059   2.769  0.00  0.00    +0.026 A 
ATOM     40  C   UNL     1      -0.490   2.810   2.373  0.00  0.00    +0.055 A 
ATOM     41  N   UNL     1      -0.331   4.123   1.982  0.00  0.00    -0.310 N 
ATOM     42  C   UNL     1      -1.374   4.877   1.594  0.00  0.00    +0.266 A 
ATOM     43  O   UNL     1      -1.187   6.033   1.257  0.00  0.00    -0.267 OA
ATOM     44  C   UNL     1       1.010   4.712   1.991  0.00  0.00    +0.152 C 
BRANCH  34  45
ATOM     45  O   UNL     1      -4.163   2.450   1.953  0.00  0.00    -0.505 OA
ATOM     46  H   UNL     1      -4.708   2.585   2.740  0.00  0.00    +0.292 HD
ENDBRANCH  34  45
ENDBRANCH  31  33
ENDBRANCH  30  31
ENDBRANCH   1  30
TORSDOF 9
