REMARK  Name = ZINC00937253
REMARK  6 active torsions:
REMARK  status: ('A' for Active; 'I' for Inactive)
REMARK    1  A    between atoms: C_1  and  C_2
REMARK    2  A    between atoms: C_5  and  C_8
REMARK    3  A    between atoms: C_8  and  S_9
REMARK    4  A    between atoms: S_9  and  C_10
REMARK    5  A    between atoms: C_21  and  C_23
REMARK    6  A    between atoms: C_28  and  C_29
REMARK                            x       y       z     vdW  Elec       q    Type
REMARK                         _______ _______ _______ _____ _____    ______ ____
ROOT
ATOM      1  C   UNL     1       0.002  -0.004   0.002  0.00  0.00    +0.171 A 
ATOM      2  N   UNL     1      -1.176  -0.687   0.015  0.00  0.00    -0.302 N 
ATOM      3  H   UNL     1      -2.017  -0.203   0.030  0.00  0.00    +0.171 HD
ATOM      4  C   UNL     1      -1.177  -2.037   0.004  0.00  0.00    +0.258 A 
ATOM      5  O   UNL     1      -2.228  -2.658   0.009  0.00  0.00    -0.267 OA
ATOM      6  C   UNL     1       0.050  -2.711  -0.011  0.00  0.00    +0.069 A 
ATOM      7  C   UNL     1       1.219  -1.970  -0.019  0.00  0.00    +0.135 A 
ATOM      8  N   UNL     1       1.159  -0.634  -0.012  0.00  0.00    -0.208 NA
ATOM      9  N   UNL     1       2.438  -2.616  -0.038  0.00  0.00    -0.302 N 
ATOM     10  C   UNL     1       2.530  -3.923  -0.433  0.00  0.00    +0.017 C 
ATOM     11  C   UNL     1       1.441  -4.720  -0.451  0.00  0.00    +0.024 C 
ATOM     12  C   UNL     1       0.091  -4.210  -0.014  0.00  0.00    +0.093 C 
ATOM     13  C   UNL     1       1.530  -6.058  -0.875  0.00  0.00    +0.162 C 
ATOM     14  O   UNL     1       0.532  -6.751  -0.874  0.00  0.00    -0.292 OA
ATOM     15  C   UNL     1       2.836  -6.648  -1.331  0.00  0.00    +0.080 C 
ATOM     16  C   UNL     1       3.713  -5.533  -1.909  0.00  0.00    +0.014 C 
ATOM     17  C   UNL     1       3.884  -4.450  -0.842  0.00  0.00    +0.051 C 
ATOM     18  H   UNL     1       3.239  -2.139   0.232  0.00  0.00    +0.153 HD
ENDROOT
BRANCH  12  19
ATOM     19  C   UNL     1      -0.200  -4.713   1.377  0.00  0.00    -0.024 A 
ATOM     20  C   UNL     1       0.643  -4.383   2.422  0.00  0.00    +0.005 A 
ATOM     21  C   UNL     1       0.377  -4.844   3.697  0.00  0.00    +0.000 A 
ATOM     22  C   UNL     1      -0.733  -5.635   3.928  0.00  0.00    +0.001 A 
ATOM     23  C   UNL     1      -1.576  -5.965   2.883  0.00  0.00    +0.012 A 
ATOM     24  C   UNL     1      -1.312  -5.500   1.609  0.00  0.00    +0.059 A 
BRANCH  24  25
ATOM     25  C   UNL     1      -2.234  -5.855   0.471  0.00  0.00    +0.418 C 
ATOM     26  F   UNL     1      -3.279  -6.653   0.949  0.00  0.00    -0.166 F 
ATOM     27  F   UNL     1      -2.759  -4.684  -0.087  0.00  0.00    -0.166 F 
ATOM     28  F   UNL     1      -1.520  -6.558  -0.506  0.00  0.00    -0.166 F 
ENDBRANCH  24  25
ENDBRANCH  12  19
BRANCH   1  29
ATOM     29  S   UNL     1      -0.022   1.758   0.012  0.00  0.00    -0.083 S 
BRANCH  29  30
ATOM     30  C   UNL     1       1.756   2.096  -0.004  0.00  0.00    +0.112 C 
BRANCH  30  35
ATOM     31  C   UNL     1       2.630   7.808   0.019  0.00  0.00    +0.044 C 
ATOM     32  C   UNL     1       2.403   6.319   0.013  0.00  0.00    -0.050 A 
ATOM     33  C   UNL     1       2.309   5.629   1.208  0.00  0.00    +0.003 A 
ATOM     34  C   UNL     1       2.100   4.263   1.202  0.00  0.00    +0.005 A 
ATOM     35  C   UNL     1       1.984   3.586   0.002  0.00  0.00    -0.037 A 
ATOM     36  C   UNL     1       2.083   4.275  -1.192  0.00  0.00    +0.005 A 
ATOM     37  C   UNL     1       2.287   5.642  -1.187  0.00  0.00    +0.003 A 
ENDBRANCH  30  35
ENDBRANCH  29  30
ENDBRANCH   1  29
TORSDOF 5
