REMARK  Name = ZINC02876959
REMARK  11 active torsions:
REMARK  status: ('A' for Active; 'I' for Inactive)
REMARK    1  A    between atoms: C_1  and  O_2
REMARK    2  A    between atoms: O_2  and  C_3
REMARK    3  A    between atoms: C_6  and  N_26
REMARK    4  A    between atoms: C_8  and  N_9
REMARK    5  A    between atoms: N_9  and  C_10
REMARK    6  A    between atoms: N_9  and  S_22
REMARK    7  A    between atoms: C_10  and  C_11
REMARK    8  A    between atoms: N_13  and  C_14
REMARK    9  A    between atoms: C_19  and  S_20
REMARK   10  A    between atoms: S_20  and  C_21
REMARK   11  A    between atoms: S_22  and  C_25
REMARK                            x       y       z     vdW  Elec       q    Type
REMARK                         _______ _______ _______ _____ _____    ______ ____
ROOT
ATOM      1  N   UNL     1      -0.042   1.461   0.014  0.00  0.00    -0.195 N 
ENDROOT
BRANCH   1   7
ATOM      2  C   UNL     1       1.723   2.624   1.192  0.00  0.00    +0.143 A 
ATOM      3  C   UNL     1       2.910   3.337   1.171  0.00  0.00    +0.050 A 
ATOM      4  C   UNL     1       3.533   3.608  -0.034  0.00  0.00    +0.036 A 
ATOM      5  C   UNL     1       2.973   3.169  -1.219  0.00  0.00    +0.128 A 
ATOM      6  C   UNL     1       1.791   2.453  -1.206  0.00  0.00    +0.061 A 
ATOM      7  C   UNL     1       1.158   2.182  -0.002  0.00  0.00    +0.095 A 
BRANCH   5   8
ATOM      8  N   UNL     1       3.645   3.461  -2.505  0.00  0.00    +0.056 N 
ATOM      9  O   UNL     1       4.689   4.088  -2.518  0.00  0.00    -0.126 OA
ATOM     10  O   UNL     1       3.154   3.075  -3.551  0.00  0.00    -0.126 OA
ENDBRANCH   5   8
BRANCH   2  12
ATOM     11  C   UNL     1       1.746   2.842   3.561  0.00  0.00    +0.277 C 
ATOM     12  O   UNL     1       1.109   2.357   2.377  0.00  0.00    -0.493 OA
ENDBRANCH   2  12
ENDBRANCH   1   7
BRANCH   1  13
ATOM     13  S   UNL     1      -1.490   2.264   0.036  0.00  0.00    +0.043 S 
ATOM     14  O   UNL     1      -1.238   3.485  -0.647  0.00  0.00    -0.155 OA
ATOM     15  O   UNL     1      -2.430   1.329  -0.475  0.00  0.00    -0.155 OA
ATOM     16  C   UNL     1      -1.818   2.586   1.791  0.00  0.00    +0.218 C 
ENDBRANCH   1  13
BRANCH   1  17
ATOM     17  C   UNL     1      -0.016  -0.004   0.005  0.00  0.00    +0.227 C 
BRANCH  17  18
ATOM     18  C   UNL     1       0.140  -0.512   1.415  0.00  0.00    +0.236 C 
ATOM     19  O   UNL     1       0.222   0.272   2.337  0.00  0.00    -0.274 OA
ATOM     20  N   UNL     1       0.188  -1.838   1.651  0.00  0.00    -0.283 N 
ATOM     21  H   UNL     1       0.058  -2.466   0.923  0.00  0.00    +0.155 HD
BRANCH  20  22
ATOM     22  C   UNL     1       0.427  -2.310   2.949  0.00  0.00    +0.047 A 
ATOM     23  C   UNL     1      -0.070  -1.618   4.043  0.00  0.00    +0.024 A 
ATOM     24  C   UNL     1       0.163  -2.088   5.322  0.00  0.00    +0.002 A 
ATOM     25  C   UNL     1       0.899  -3.243   5.516  0.00  0.00    +0.001 A 
ATOM     26  C   UNL     1       1.403  -3.936   4.432  0.00  0.00    +0.016 A 
ATOM     27  C   UNL     1       1.170  -3.475   3.144  0.00  0.00    +0.029 A 
BRANCH  27  28
ATOM     28  S   UNL     1       1.811  -4.356   1.760  0.00  0.00    -0.127 S 
ATOM     29  C   UNL     1       2.683  -5.764   2.502  0.00  0.00    +0.090 C 
ENDBRANCH  27  28
ENDBRANCH  20  22
ENDBRANCH  17  18
ENDBRANCH   1  17
TORSDOF 8
