REMARK  Name = ZINC39970686
REMARK  7 active torsions:
REMARK  status: ('A' for Active; 'I' for Inactive)
REMARK    1  A    between atoms: C_1  and  C_2
REMARK    2  A    between atoms: C_7  and  C_32
REMARK    3  A    between atoms: N_9  and  S_10
REMARK    4  A    between atoms: S_10  and  C_13
REMARK    5  A    between atoms: C_16  and  N_19
REMARK    6  A    between atoms: N_19  and  C_20
REMARK    7  A    between atoms: C_20  and  N_22
REMARK                            x       y       z     vdW  Elec       q    Type
REMARK                         _______ _______ _______ _____ _____    ______ ____
ROOT
ATOM      1  C   UNL     1       0.675   0.754   4.077  0.00  0.00    +0.106 A 
ATOM      2  C   UNL     1      -0.327   1.656   3.767  0.00  0.00    +0.030 A 
ATOM      3  C   UNL     1      -1.384   1.841   4.636  0.00  0.00    +0.025 A 
ATOM      4  C   UNL     1      -1.440   1.121   5.822  0.00  0.00    +0.033 A 
ATOM      5  C   UNL     1      -0.432   0.217   6.131  0.00  0.00    +0.025 A 
ATOM      6  C   UNL     1       0.620   0.032   5.255  0.00  0.00    +0.030 A 
ENDROOT
BRANCH   1   7
ATOM      7  S   UNL     1       2.022   0.521   2.965  0.00  0.00    +0.061 S 
ATOM      8  O   UNL     1       3.046  -0.134   3.700  0.00  0.00    -0.153 OA
ATOM      9  O   UNL     1       2.230   1.765   2.311  0.00  0.00    -0.153 OA
BRANCH   7  16
ATOM     10  C   UNL     1       2.192  -2.270   3.408  0.00  0.00    +0.026 C 
ATOM     11  C   UNL     1       1.524  -1.992   2.060  0.00  0.00    +0.077 C 
ATOM     12  C   UNL     1       2.308  -2.691   0.945  0.00  0.00    +0.020 C 
ATOM     13  C   UNL     1       1.719  -2.297  -0.412  0.00  0.00    +0.003 C 
ATOM     14  C   UNL     1       1.848  -0.784  -0.606  0.00  0.00    +0.020 C 
ATOM     15  C   UNL     1       1.058  -0.064   0.492  0.00  0.00    +0.077 C 
ATOM     16  N   UNL     1       1.518  -0.546   1.802  0.00  0.00    -0.171 NA
ATOM     17  C   UNL     1      -0.433  -0.361   0.330  0.00  0.00    +0.026 C 
ENDBRANCH   7  16
ENDBRANCH   1   7
BRANCH   4  18
ATOM     18  N   UNL     1      -2.509   1.307   6.705  0.00  0.00    -0.296 N 
ATOM     19  H   UNL     1      -3.172   1.992   6.526  0.00  0.00    +0.154 HD
BRANCH  18  20
ATOM     20  C   UNL     1      -2.618   0.534   7.804  0.00  0.00    +0.141 C 
ATOM     21  S   UNL     1      -2.282   1.190   9.349  0.00  0.00    -0.018 S 
BRANCH  20  22
ATOM     22  N   UNL     1      -2.991  -0.756   7.687  0.00  0.00    -0.282 N 
ATOM     23  C   UNL     1      -3.083  -1.618   8.873  0.00  0.00    +0.113 C 
ATOM     24  C   UNL     1      -2.426  -2.961   8.528  0.00  0.00    +0.024 C 
ATOM     25  C   UNL     1      -3.220  -3.625   7.404  0.00  0.00    +0.038 C 
ATOM     26  C   UNL     1      -3.413  -2.668   6.257  0.00  0.00    -0.026 A 
ATOM     27  C   UNL     1      -3.303  -1.296   6.432  0.00  0.00    +0.039 A 
ATOM     28  C   UNL     1      -3.497  -0.438   5.355  0.00  0.00    +0.024 A 
ATOM     29  C   UNL     1      -3.803  -0.951   4.110  0.00  0.00    +0.002 A 
ATOM     30  C   UNL     1      -3.915  -2.318   3.935  0.00  0.00    +0.000 A 
ATOM     31  C   UNL     1      -3.713  -3.175   5.004  0.00  0.00    +0.005 A 
ENDBRANCH  20  22
ENDBRANCH  18  20
ENDBRANCH   4  18
TORSDOF 5
