REMARK  Name = ZINC52729984
REMARK  5 active torsions:
REMARK  status: ('A' for Active; 'I' for Inactive)
REMARK    1  A    between atoms: C_3  and  C_9
REMARK    2  A    between atoms: N_7  and  N_8
REMARK    3  A    between atoms: C_9  and  O_10
REMARK    4  A    between atoms: O_10  and  C_11
REMARK    5  A    between atoms: C_12  and  N_19
REMARK                            x       y       z     vdW  Elec       q    Type
REMARK                         _______ _______ _______ _____ _____    ______ ____
ROOT
ATOM      1  C   UNL     1       3.694   2.064  -0.023  0.00  0.00    +0.268 C 
ENDROOT
BRANCH   1   4
ATOM      2  C   UNL     1      -0.017   1.376   0.010  0.00  0.00    +0.020 A 
ATOM      3  C   UNL     1       1.185   2.073   0.002  0.00  0.00    +0.012 A 
ATOM      4  C   UNL     1       2.365   1.353  -0.013  0.00  0.00    +0.031 A 
ATOM      5  C   UNL     1       2.310  -0.038  -0.020  0.00  0.00    +0.138 A 
ATOM      6  N   UNL     1       1.144  -0.665  -0.012  0.00  0.00    -0.239 NA
ATOM      7  C   UNL     1       0.002  -0.004   0.002  0.00  0.00    +0.113 A 
ATOM      8  N   UNL     1       3.489  -0.774  -0.036  0.00  0.00    -0.267 N 
ATOM      9  H   UNL     1       4.345  -0.319  -0.042  0.00  0.00    +0.167 HD
BRANCH   8  10
ATOM     10  N   UNL     1       3.441  -2.139  -0.043  0.00  0.00    -0.255 NA
ATOM     11  H   UNL     1       2.895  -2.478  -0.821  0.00  0.00    +0.140 HD
ATOM     12  H   UNL     1       4.370  -2.534  -0.054  0.00  0.00    +0.140 HD
ENDBRANCH   8  10
ENDBRANCH   1   4
BRANCH   1  13
ATOM     13  O   UNL     1       3.478   3.476  -0.013  0.00  0.00    -0.484 OA
BRANCH  13  14
ATOM     14  C   UNL     1       4.582   4.270  -0.020  0.00  0.00    +0.165 A 
ATOM     15  C   UNL     1       5.161   4.664   1.177  0.00  0.00    +0.171 A 
ATOM     16  C   UNL     1       6.283   5.470   1.169  0.00  0.00    +0.074 A 
ATOM     17  C   UNL     1       6.830   5.885  -0.034  0.00  0.00    +0.127 A 
ATOM     18  C   UNL     1       6.254   5.492  -1.230  0.00  0.00    +0.057 A 
ATOM     19  C   UNL     1       5.135   4.681  -1.225  0.00  0.00    +0.064 A 
ATOM     20 BR   UNL     1       4.352   4.138  -2.859  0.00  0.00    -0.046 Br
ATOM     21  F   UNL     1       7.927   6.673  -0.040  0.00  0.00    -0.205 F 
BRANCH  15  22
ATOM     22  N   UNL     1       4.577   4.222   2.463  0.00  0.00    +0.060 N 
ATOM     23  O   UNL     1       5.081   4.565   3.506  0.00  0.00    -0.126 OA
ATOM     24  O   UNL     1       3.595   3.517   2.470  0.00  0.00    -0.126 OA
ENDBRANCH  15  22
ENDBRANCH  13  14
ENDBRANCH   1  13
TORSDOF 5
