REMARK  Name = ZINC44094590
REMARK  11 active torsions:
REMARK  status: ('A' for Active; 'I' for Inactive)
REMARK    1  A    between atoms: C_1  and  C_2
REMARK    2  A    between atoms: C_2  and  C_3
REMARK    3  A    between atoms: C_5  and  C_8
REMARK    4  A    between atoms: C_20  and  C_22
REMARK    5  A    between atoms: C_23  and  C_24
REMARK    6  A    between atoms: C_26  and  O_34
REMARK    7  A    between atoms: C_27  and  O_32
REMARK    8  A    between atoms: C_28  and  O_30
REMARK    9  A    between atoms: O_30  and  C_31
REMARK   10  A    between atoms: O_32  and  C_33
REMARK   11  A    between atoms: O_34  and  C_35
REMARK                            x       y       z     vdW  Elec       q    Type
REMARK                         _______ _______ _______ _____ _____    ______ ____
ROOT
ATOM      1  C   UNL     1      -5.510  -0.082  -1.564  0.00  0.00    +0.038 A 
ATOM      2  C   UNL     1      -6.395  -0.971  -0.943  0.00  0.00    +0.016 A 
ATOM      3  C   UNL     1      -7.388  -1.549  -1.707  0.00  0.00    +0.042 A 
ATOM      4  C   UNL     1      -7.477  -1.232  -3.060  0.00  0.00    +0.099 A 
ATOM      5  N   UNL     1      -6.623  -0.386  -3.617  0.00  0.00    -0.349 N 
ATOM      6  C   UNL     1      -5.665   0.191  -2.920  0.00  0.00    +0.095 A 
ATOM      7  N   UNL     1      -8.473  -1.810  -3.836  0.00  0.00    -0.314 N 
ATOM      8  C   UNL     1      -8.672  -1.392  -5.230  0.00  0.00    +0.125 C 
ATOM      9  C   UNL     1      -8.594  -2.632  -6.129  0.00  0.00    +0.127 C 
ATOM     10  N   UNL     1      -9.468  -3.673  -5.570  0.00  0.00    -0.295 N 
ATOM     11  C   UNL     1      -9.269  -4.091  -4.176  0.00  0.00    +0.127 C 
ATOM     12  C   UNL     1      -9.343  -2.855  -3.278  0.00  0.00    +0.125 C 
ATOM     13  C   UNL     1     -10.435  -4.234  -6.323  0.00  0.00    +0.240 C 
ATOM     14  O   UNL     1     -10.531  -3.948  -7.503  0.00  0.00    -0.271 OA
ATOM     15  H   UNL     1      -6.707  -0.183  -4.562  0.00  0.00    +0.167 HD
ENDROOT
BRANCH   1  18
ATOM     16  C   UNL     1      -3.157   1.097   0.892  0.00  0.00    +0.227 A 
ATOM     17  N   UNL     1      -4.180   0.380   0.523  0.00  0.00    -0.191 NA
ATOM     18  C   UNL     1      -4.426   0.566  -0.786  0.00  0.00    +0.203 A 
ATOM     19  N   UNL     1      -3.546   1.414  -1.260  0.00  0.00    -0.056 NA
ATOM     20  O   UNL     1      -2.710   1.777  -0.172  0.00  0.00    -0.338 OA
BRANCH  16  22
ATOM     21  C   UNL     1      -1.495   0.086   2.429  0.00  0.00    +0.014 C 
ATOM     22  C   UNL     1      -2.579   1.156   2.282  0.00  0.00    +0.095 C 
ENDBRANCH  16  22
ENDBRANCH   1  18
BRANCH  13  23
ATOM     23  C   UNL     1     -11.369  -5.186  -5.723  0.00  0.00    +0.068 C 
ATOM     24  C   UNL     1     -12.244  -5.856  -6.503  0.00  0.00    +0.013 C 
BRANCH  24  25
ATOM     25  C   UNL     1     -12.108  -5.812  -7.966  0.00  0.00    -0.018 A 
ATOM     26  C   UNL     1     -10.856  -6.010  -8.560  0.00  0.00    +0.057 A 
ATOM     27  C   UNL     1     -10.732  -5.968  -9.936  0.00  0.00    +0.166 A 
ATOM     28  C   UNL     1     -11.850  -5.729 -10.731  0.00  0.00    +0.204 A 
ATOM     29  C   UNL     1     -13.097  -5.530 -10.143  0.00  0.00    +0.166 A 
ATOM     30  C   UNL     1     -13.230  -5.577  -8.768  0.00  0.00    +0.057 A 
BRANCH  29  31
ATOM     31  O   UNL     1     -14.186  -5.296 -10.923  0.00  0.00    -0.491 OA
ATOM     32  C   UNL     1     -15.434  -5.102 -10.254  0.00  0.00    +0.277 C 
ENDBRANCH  29  31
BRANCH  28  33
ATOM     33  O   UNL     1     -11.724  -5.688 -12.084  0.00  0.00    -0.488 OA
ATOM     34  C   UNL     1     -11.890  -6.920 -12.788  0.00  0.00    +0.277 C 
ENDBRANCH  28  33
BRANCH  27  35
ATOM     35  O   UNL     1      -9.516  -6.160 -10.514  0.00  0.00    -0.491 OA
ATOM     36  C   UNL     1      -8.412  -6.400  -9.639  0.00  0.00    +0.277 C 
ENDBRANCH  27  35
ENDBRANCH  24  25
ENDBRANCH  13  23
TORSDOF 7
