REMARK  Name = ZINC35642154
REMARK  10 active torsions:
REMARK  status: ('A' for Active; 'I' for Inactive)
REMARK    1  A    between atoms: C_1  and  C_2
REMARK    2  A    between atoms: C_2  and  N_3
REMARK    3  A    between atoms: C_4  and  C_23
REMARK    4  A    between atoms: C_5  and  C_18
REMARK    5  A    between atoms: C_6  and  C_11
REMARK    6  A    between atoms: C_18  and  O_20
REMARK    7  A    between atoms: O_20  and  C_21
REMARK    8  A    between atoms: C_21  and  C_22
REMARK    9  A    between atoms: C_23  and  N_24
REMARK   10  A    between atoms: C_30  and  C_32
REMARK                            x       y       z     vdW  Elec       q    Type
REMARK                         _______ _______ _______ _____ _____    ______ ____
ROOT
ATOM      1  N   UNL     1       0.788  -0.529  -1.369  0.00  0.00    -0.258 N 
ATOM      2  C   UNL     1      -0.060  -0.727  -2.421  0.00  0.00    +0.041 C 
ATOM      3  C   UNL     1       0.378  -1.275  -3.575  0.00  0.00    +0.080 C 
ATOM      4  C   UNL     1       1.841  -1.663  -3.661  0.00  0.00    +0.144 C 
ATOM      5  N   UNL     1       2.670  -1.407  -2.471  0.00  0.00    -0.288 N 
ATOM      6  C   UNL     1       2.088  -0.847  -1.392  0.00  0.00    +0.307 C 
ATOM      7  O   UNL     1       2.765  -0.629  -0.406  0.00  0.00    -0.252 OA
ATOM      8  H   UNL     1       3.613  -1.633  -2.466  0.00  0.00    +0.151 HD
ENDROOT
BRANCH   4   9
ATOM      9  C   UNL     1       2.451  -0.918  -4.821  0.00  0.00    -0.021 A 
ATOM     10  C   UNL     1       2.831   0.403  -4.670  0.00  0.00    +0.006 A 
ATOM     11  C   UNL     1       3.391   1.087  -5.733  0.00  0.00    +0.002 A 
ATOM     12  C   UNL     1       3.570   0.451  -6.947  0.00  0.00    +0.020 A 
ATOM     13  C   UNL     1       3.190  -0.871  -7.098  0.00  0.00    +0.041 A 
ATOM     14  C   UNL     1       2.636  -1.557  -6.032  0.00  0.00    +0.025 A 
ATOM     15 CL   UNL     1       3.416  -1.671  -8.622  0.00  0.00    -0.084 Cl
ENDBRANCH   4   9
BRANCH   1  17
ATOM     16  C   UNL     1       0.369   1.594  -0.229  0.00  0.00    +0.025 C 
ATOM     17  C   UNL     1       0.245   0.071  -0.147  0.00  0.00    +0.111 C 
ENDBRANCH   1  17
BRANCH   3  18
ATOM     18  C   UNL     1      -0.499  -1.482  -4.665  0.00  0.00    +0.339 C 
ATOM     19  O   UNL     1      -0.964  -2.587  -4.872  0.00  0.00    -0.245 OA
BRANCH  18  20
ATOM     20  O   UNL     1      -0.819  -0.453  -5.477  0.00  0.00    -0.462 OA
BRANCH  20  21
ATOM     21  C   UNL     1      -1.710  -0.733  -6.559  0.00  0.00    +0.229 C 
ATOM     22  C   UNL     1      -1.955   0.546  -7.363  0.00  0.00    +0.048 C 
ENDBRANCH  20  21
ENDBRANCH  18  20
ENDBRANCH   3  18
BRANCH   2  23
ATOM     23  C   UNL     1      -1.507  -0.327  -2.293  0.00  0.00    +0.136 C 
BRANCH  23  24
ATOM     24  N   UNL     1      -2.166  -1.186  -1.300  0.00  0.00    -0.294 NA
ATOM     25  C   UNL     1      -2.221  -2.579  -1.764  0.00  0.00    +0.104 C 
ATOM     26  C   UNL     1      -2.747  -3.470  -0.633  0.00  0.00    +0.123 C 
ATOM     27  N   UNL     1      -4.028  -2.920  -0.164  0.00  0.00    -0.293 N 
ATOM     28  C   UNL     1      -4.085  -1.493   0.189  0.00  0.00    +0.123 C 
ATOM     29  C   UNL     1      -3.506  -0.681  -0.974  0.00  0.00    +0.104 C 
ATOM     30  C   UNL     1      -5.120  -3.703  -0.059  0.00  0.00    +0.282 C 
ATOM     31  O   UNL     1      -5.039  -4.895  -0.290  0.00  0.00    -0.267 OA
BRANCH  30  32
ATOM     32  C   UNL     1      -6.407  -3.118   0.334  0.00  0.00    +0.189 A 
ATOM     33  C   UNL     1      -7.611  -3.761   0.342  0.00  0.00    +0.054 A 
ATOM     34  C   UNL     1      -8.563  -2.830   0.784  0.00  0.00    +0.042 A 
ATOM     35  C   UNL     1      -7.906  -1.673   1.024  0.00  0.00    +0.196 A 
ATOM     36  O   UNL     1      -6.606  -1.853   0.756  0.00  0.00    -0.458 OA
ENDBRANCH  30  32
ENDBRANCH  23  24
ENDBRANCH   2  23
TORSDOF 8
