REMARK  Name = ZINC38903571
REMARK  12 active torsions:
REMARK  status: ('A' for Active; 'I' for Inactive)
REMARK    1  A    between atoms: C_1  and  C_2
REMARK    2  A    between atoms: C_5  and  C_8
REMARK    3  A    between atoms: C_8  and  C_10
REMARK    4  A    between atoms: C_8  and  N_16
REMARK    5  A    between atoms: C_17  and  C_19
REMARK    6  A    between atoms: N_24  and  C_26
REMARK    7  A    between atoms: C_26  and  C_27
REMARK    8  A    between atoms: C_29  and  C_32
REMARK    9  A    between atoms: C_35  and  C_38
REMARK   10  A    between atoms: C_38  and  C_39
REMARK   11  A    between atoms: C_38  and  C_40
REMARK   12  A    between atoms: C_38  and  C_41
REMARK                            x       y       z     vdW  Elec       q    Type
REMARK                         _______ _______ _______ _____ _____    ______ ____
ROOT
ATOM      1  C   UNL     1      -2.261  -6.529   2.025  0.00  0.00    +0.058 C 
ATOM      2  C   UNL     1      -1.488  -6.581   3.346  0.00  0.00    +0.009 C 
ATOM      3  C   UNL     1      -2.387  -7.183   4.429  0.00  0.00    -0.018 C 
ATOM      4  C   UNL     1      -2.860  -8.567   3.980  0.00  0.00    -0.078 C 
ATOM      5  N   UNL     1      -3.615  -8.448   2.727  0.00  0.00    +0.386 N 
ATOM      6  C   UNL     1      -2.740  -7.937   1.665  0.00  0.00    -0.065 C 
ATOM      7  H   UNL     1      -4.386  -7.811   2.860  0.00  0.00    -0.081 HD
ENDROOT
BRANCH   1   9
ATOM      8  N   UNL     1      -0.816  -4.781   1.039  0.00  0.00    -0.304 N 
ATOM      9  C   UNL     1      -1.361  -6.009   0.935  0.00  0.00    +0.215 C 
ATOM     10  O   UNL     1      -1.125  -6.696  -0.037  0.00  0.00    -0.276 OA
ATOM     11  H   UNL     1      -1.004  -4.231   1.816  0.00  0.00    +0.150 HD
BRANCH   8  12
ATOM     12  C   UNL     1       0.059  -4.275  -0.021  0.00  0.00    +0.134 C 
BRANCH  12  17
ATOM     13  C   UNL     1      -0.018   1.503   0.010  0.00  0.00    +0.044 C 
ATOM     14  C   UNL     1       0.002  -0.004   0.002  0.00  0.00    -0.050 A 
ATOM     15  C   UNL     1       0.006  -0.689  -1.199  0.00  0.00    +0.004 A 
ATOM     16  C   UNL     1       0.025  -2.071  -1.206  0.00  0.00    +0.006 A 
ATOM     17  C   UNL     1       0.040  -2.768  -0.013  0.00  0.00    -0.023 A 
ATOM     18  C   UNL     1       0.037  -2.084   1.188  0.00  0.00    +0.006 A 
ATOM     19  C   UNL     1       0.023  -0.702   1.195  0.00  0.00    +0.004 A 
ENDBRANCH  12  17
BRANCH  12  20
ATOM     20  C   UNL     1       1.466  -4.761   0.215  0.00  0.00    -0.023 A 
ATOM     21  C   UNL     1       1.977  -4.801   1.499  0.00  0.00    +0.006 A 
ATOM     22  C   UNL     1       3.268  -5.246   1.715  0.00  0.00    +0.000 A 
ATOM     23  C   UNL     1       4.047  -5.652   0.648  0.00  0.00    +0.000 A 
ATOM     24  C   UNL     1       3.536  -5.613  -0.635  0.00  0.00    +0.000 A 
ATOM     25  C   UNL     1       2.244  -5.171  -0.852  0.00  0.00    +0.006 A 
ENDBRANCH  12  20
ENDBRANCH   8  12
ENDBRANCH   1   9
BRANCH   5  26
ATOM     26  C   UNL     1      -4.133  -9.767   2.341  0.00  0.00    +0.022 C 
BRANCH  26  27
ATOM     27  C   UNL     1      -5.133 -10.234   3.367  0.00  0.00    +0.211 A 
ATOM     28  N   UNL     1      -6.416 -10.009   3.336  0.00  0.00    -0.193 NA
ATOM     29  C   UNL     1      -7.007 -10.569   4.407  0.00  0.00    +0.202 A 
ATOM     30  N   UNL     1      -6.089 -11.159   5.131  0.00  0.00    -0.056 NA
ATOM     31  O   UNL     1      -4.854 -10.954   4.461  0.00  0.00    -0.340 OA
BRANCH  29  32
ATOM     32  C   UNL     1      -8.458 -10.525   4.716  0.00  0.00    +0.022 A 
ATOM     33  C   UNL     1      -9.336  -9.865   3.858  0.00  0.00    +0.012 A 
ATOM     34  C   UNL     1     -10.684  -9.827   4.150  0.00  0.00    +0.005 A 
ATOM     35  C   UNL     1     -11.165 -10.441   5.293  0.00  0.00    -0.042 A 
ATOM     36  C   UNL     1     -10.298 -11.098   6.148  0.00  0.00    +0.005 A 
ATOM     37  C   UNL     1      -8.948 -11.147   5.862  0.00  0.00    +0.012 A 
BRANCH  35  38
ATOM     38  C   UNL     1     -12.638 -10.395   5.607  0.00  0.00    -0.013 C 
ATOM     39  C   UNL     1     -13.422 -11.056   4.472  0.00  0.00    +0.015 C 
ATOM     40  C   UNL     1     -12.904 -11.144   6.915  0.00  0.00    +0.015 C 
ATOM     41  C   UNL     1     -13.083  -8.939   5.754  0.00  0.00    +0.015 C 
ENDBRANCH  35  38
ENDBRANCH  29  32
ENDBRANCH  26  27
ENDBRANCH   5  26
TORSDOF 8
