REMARK  Name = ZINC24550543
REMARK  7 active torsions:
REMARK  status: ('A' for Active; 'I' for Inactive)
REMARK    1  A    between atoms: C_1  and  C_2
REMARK    2  A    between atoms: N_5  and  C_8
REMARK    3  A    between atoms: C_8  and  C_10
REMARK    4  A    between atoms: C_8  and  C_30
REMARK    5  A    between atoms: C_10  and  N_11
REMARK    6  A    between atoms: C_12  and  C_14
REMARK    7  A    between atoms: N_19  and  C_21
REMARK                            x       y       z     vdW  Elec       q    Type
REMARK                         _______ _______ _______ _____ _____    ______ ____
ROOT
ATOM      1  N   UNL     1      -0.176   1.441   0.193  0.00  0.00    -0.316 N 
ATOM      2  C   UNL     1       0.792   2.364   0.353  0.00  0.00    +0.218 C 
ATOM      3  O   UNL     1       0.510   3.543   0.372  0.00  0.00    -0.275 OA
ATOM      4  H   UNL     1       0.080   0.371   0.181  0.00  0.00    +0.149 HD
ENDROOT
BRANCH   2   5
ATOM      5  C   UNL     1       2.227   1.930   0.511  0.00  0.00    +0.101 C 
ATOM      6  C   UNL     1       2.437   1.186   1.849  0.00  0.00    +0.110 C 
ATOM      7  C   UNL     1       3.808   1.630   2.310  0.00  0.00    +0.221 C 
ATOM      8  O   UNL     1       4.467   1.076   3.164  0.00  0.00    -0.275 OA
ATOM      9  N   UNL     1       4.189   2.729   1.635  0.00  0.00    -0.271 N 
ATOM     10  C   UNL     1       3.158   3.151   0.680  0.00  0.00    +0.127 C 
BRANCH   9  11
ATOM     11  C   UNL     1       5.412   3.385   1.821  0.00  0.00    +0.040 A 
ATOM     12  C   UNL     1       5.720   4.508   1.063  0.00  0.00    +0.027 A 
ATOM     13  C   UNL     1       6.924   5.159   1.247  0.00  0.00    +0.051 A 
ATOM     14  C   UNL     1       7.833   4.688   2.181  0.00  0.00    +0.166 A 
ATOM     15  C   UNL     1       7.530   3.560   2.939  0.00  0.00    +0.168 A 
ATOM     16  C   UNL     1       6.320   2.910   2.757  0.00  0.00    +0.073 A 
ATOM     17  O   UNL     1       8.577   3.303   3.777  0.00  0.00    -0.453 OA
ATOM     18  C   UNL     1       9.347   4.519   3.815  0.00  0.00    +0.466 C 
ATOM     19  O   UNL     1       9.071   5.138   2.545  0.00  0.00    -0.453 OA
ENDBRANCH   9  11
ENDBRANCH   2   5
BRANCH   1  20
ATOM     20  C   UNL     1      -1.571   1.862   0.034  0.00  0.00    +0.094 C 
BRANCH  20  21
ATOM     21  C   UNL     1      -2.460   0.629  -0.136  0.00  0.00    -0.013 C 
BRANCH  21  26
ATOM     22  C   UNL     1      -2.517  -2.668   4.533  0.00  0.00    +0.007 C 
ATOM     23  C   UNL     1      -2.913  -1.678   3.435  0.00  0.00    -0.018 C 
ATOM     24  C   UNL     1      -2.896  -2.386   2.077  0.00  0.00    -0.015 C 
ATOM     25  C   UNL     1      -3.233  -1.377   0.977  0.00  0.00    -0.078 C 
ATOM     26  N   UNL     1      -2.250  -0.286   0.993  0.00  0.00    +0.386 N 
ATOM     27  C   UNL     1      -2.281   0.438   2.270  0.00  0.00    -0.078 C 
ATOM     28  C   UNL     1      -1.915  -0.517   3.409  0.00  0.00    -0.015 C 
ATOM     29  H   UNL     1      -1.251  -0.734   0.886  0.00  0.00    -0.081 HD
ENDBRANCH  21  26
BRANCH  21  30
ATOM     30  C   UNL     1      -3.905   1.054  -0.176  0.00  0.00    -0.022 A 
ATOM     31  C   UNL     1      -4.773   1.031  -1.217  0.00  0.00    +0.009 A 
ATOM     32  C   UNL     1      -6.067   1.474  -1.021  0.00  0.00    +0.008 A 
ATOM     33  C   UNL     1      -6.431   1.918   0.207  0.00  0.00    +0.045 A 
ATOM     34  S   UNL     1      -4.921   1.710   1.137  0.00  0.00    -0.103 S 
ENDBRANCH  21  30
ENDBRANCH  20  21
ENDBRANCH   1  20
TORSDOF 6
