REMARK  Name = ZINC01215024
REMARK  6 active torsions:
REMARK  status: ('A' for Active; 'I' for Inactive)
REMARK    1  A    between atoms: C_4  and  C_7
REMARK    2  A    between atoms: C_7  and  C_8
REMARK    3  A    between atoms: C_7  and  N_14
REMARK    4  A    between atoms: C_20  and  C_22
REMARK    5  A    between atoms: C_27  and  C_38
REMARK    6  A    between atoms: C_30  and  C_33
REMARK                            x       y       z     vdW  Elec       q    Type
REMARK                         _______ _______ _______ _____ _____    ______ ____
ROOT
ATOM      1  N   UNL     1       4.134  -1.869  -0.668  0.00  0.00    -0.289 NA
ATOM      2  C   UNL     1       3.225  -2.953  -0.275  0.00  0.00    +0.104 C 
ATOM      3  C   UNL     1       3.502  -4.187  -1.141  0.00  0.00    +0.123 C 
ATOM      4  N   UNL     1       4.934  -4.511  -1.048  0.00  0.00    -0.294 N 
ATOM      5  C   UNL     1       5.908  -3.436  -1.295  0.00  0.00    +0.123 C 
ATOM      6  C   UNL     1       5.536  -2.232  -0.423  0.00  0.00    +0.104 C 
ATOM      7  C   UNL     1       5.343  -5.759  -0.745  0.00  0.00    +0.268 C 
ATOM      8  O   UNL     1       6.528  -6.029  -0.756  0.00  0.00    -0.268 OA
ENDROOT
BRANCH   7   9
ATOM      9  C   UNL     1       4.351  -6.798  -0.401  0.00  0.00    +0.167 A 
ATOM     10  C   UNL     1       4.642  -8.109   0.040  0.00  0.00    +0.112 A 
ATOM     11  C   UNL     1       3.468  -8.738   0.247  0.00  0.00    +0.137 A 
ATOM     12  N   UNL     1       2.459  -7.867  -0.052  0.00  0.00    -0.237 N 
ATOM     13  N   UNL     1       3.037  -6.661  -0.447  0.00  0.00    -0.163 NA
ATOM     14  C   UNL     1       1.036  -8.204   0.050  0.00  0.00    +0.215 C 
ATOM     15  C   UNL     1       0.887  -9.730   0.053  0.00  0.00    +0.063 C 
ATOM     16  C   UNL     1       1.837 -10.346   1.086  0.00  0.00    +0.111 C 
ATOM     17  N   UNL     1       3.225 -10.044   0.686  0.00  0.00    -0.321 N 
ATOM     18 CL   UNL     1       6.223  -8.785   0.271  0.00  0.00    -0.078 Cl
ATOM     19  H   UNL     1       3.928 -10.712   0.726  0.00  0.00    +0.148 HD
BRANCH  16  20
ATOM     20  C   UNL     1       1.633 -11.838   1.135  0.00  0.00    +0.010 A 
ATOM     21  C   UNL     1       0.921 -12.574   2.023  0.00  0.00    +0.013 A 
ATOM     22  C   UNL     1       0.872 -13.947   1.870  0.00  0.00    +0.008 A 
ATOM     23  C   UNL     1       1.538 -14.517   0.836  0.00  0.00    +0.045 A 
ATOM     24  S   UNL     1       2.259 -13.095   0.033  0.00  0.00    -0.100 S 
ENDBRANCH  16  20
BRANCH  14  25
ATOM     25  C   UNL     1       0.283  -7.615  -1.144  0.00  0.00    +0.412 C 
ATOM     26  F   UNL     1       0.802  -8.144  -2.330  0.00  0.00    -0.168 F 
ATOM     27  F   UNL     1      -1.075  -7.938  -1.044  0.00  0.00    -0.168 F 
ATOM     28  F   UNL     1       0.432  -6.224  -1.149  0.00  0.00    -0.168 F 
ENDBRANCH  14  25
ENDBRANCH   7   9
BRANCH   1  29
ATOM     29  C   UNL     1       3.787  -0.616   0.017  0.00  0.00    +0.117 C 
BRANCH  29  33
ATOM     30  C   UNL     1       6.336   2.518  -1.370  0.00  0.00    +0.000 A 
ATOM     31  C   UNL     1       5.970   2.463  -0.038  0.00  0.00    +0.000 A 
ATOM     32  C   UNL     1       5.146   1.449   0.411  0.00  0.00    +0.005 A 
ATOM     33  C   UNL     1       4.686   0.490  -0.472  0.00  0.00    -0.026 A 
ATOM     34  C   UNL     1       5.050   0.546  -1.805  0.00  0.00    +0.005 A 
ATOM     35  C   UNL     1       5.876   1.559  -2.253  0.00  0.00    +0.000 A 
ENDBRANCH  29  33
BRANCH  29  36
ATOM     36  C   UNL     1       2.352  -0.264  -0.275  0.00  0.00    -0.026 A 
ATOM     37  C   UNL     1       1.841  -0.444  -1.547  0.00  0.00    +0.005 A 
ATOM     38  C   UNL     1       0.524  -0.121  -1.816  0.00  0.00    +0.000 A 
ATOM     39  C   UNL     1      -0.283   0.381  -0.812  0.00  0.00    +0.000 A 
ATOM     40  C   UNL     1       0.227   0.560   0.461  0.00  0.00    +0.000 A 
ATOM     41  C   UNL     1       1.543   0.233   0.730  0.00  0.00    +0.005 A 
ENDBRANCH  29  36
ENDBRANCH   1  29
TORSDOF 6
