REMARK  Name = ZINC00697347
REMARK  9 active torsions:
REMARK  status: ('A' for Active; 'I' for Inactive)
REMARK    1  A    between atoms: C_1  and  C_2
REMARK    2  A    between atoms: C_2  and  C_3
REMARK    3  A    between atoms: C_4  and  C_29
REMARK    4  A    between atoms: C_5  and  N_10
REMARK    5  A    between atoms: C_7  and  C_9
REMARK    6  A    between atoms: C_16  and  C_18
REMARK    7  A    between atoms: C_19  and  C_20
REMARK    8  A    between atoms: C_23  and  N_26
REMARK    9  A    between atoms: C_29  and  C_30
REMARK                            x       y       z     vdW  Elec       q    Type
REMARK                         _______ _______ _______ _____ _____    ______ ____
ROOT
ATOM      1  N   UNL     1       7.991   3.046   0.846  0.00  0.00    -0.312 N 
ATOM      2  C   UNL     1       8.075   1.620   0.501  0.00  0.00    +0.125 C 
ATOM      3  C   UNL     1       7.308   1.367  -0.800  0.00  0.00    +0.127 C 
ATOM      4  N   UNL     1       5.942   1.890  -0.647  0.00  0.00    -0.295 N 
ATOM      5  C   UNL     1       5.775   3.274  -0.177  0.00  0.00    +0.127 C 
ATOM      6  C   UNL     1       6.603   3.450   1.106  0.00  0.00    +0.125 C 
ATOM      7  C   UNL     1       4.871   1.123  -0.934  0.00  0.00    +0.240 C 
ATOM      8  O   UNL     1       3.752   1.600  -0.889  0.00  0.00    -0.271 OA
ENDROOT
BRANCH   1  11
ATOM      9  C   UNL     1      10.287   4.811   3.084  0.00  0.00    +0.024 A 
ATOM     10  C   UNL     1       9.488   4.561   1.986  0.00  0.00    +0.016 A 
ATOM     11  C   UNL     1       8.806   3.344   1.926  0.00  0.00    +0.128 A 
ATOM     12  N   UNL     1       8.946   2.478   2.926  0.00  0.00    -0.219 NA
ATOM     13  C   UNL     1       9.723   2.757   3.953  0.00  0.00    +0.106 A 
ATOM     14  N   UNL     1      10.380   3.896   4.038  0.00  0.00    -0.347 N 
ATOM     15  C   UNL     1       9.861   1.747   5.063  0.00  0.00    +0.086 C 
ATOM     16  H   UNL     1      11.013   4.082   4.918  0.00  0.00    +0.167 HD
BRANCH   9  18
ATOM     17  C   UNL     1      10.199   7.127   3.966  0.00  0.00    +0.010 C 
ATOM     18  C   UNL     1      11.044   6.110   3.196  0.00  0.00    +0.050 C 
ENDBRANCH   9  18
BRANCH  10  19
ATOM     19  C   UNL     1       9.355   5.575   0.879  0.00  0.00    +0.075 C 
BRANCH  19  20
ATOM     20  C   UNL     1      10.346   5.260  -0.212  0.00  0.00    -0.043 A 
ATOM     21  C   UNL     1      11.569   5.903  -0.242  0.00  0.00    +0.005 A 
ATOM     22  C   UNL     1      12.480   5.610  -1.240  0.00  0.00    +0.020 A 
ATOM     23  C   UNL     1      12.162   4.682  -2.215  0.00  0.00    +0.041 A 
ATOM     24  C   UNL     1      10.935   4.043  -2.188  0.00  0.00    +0.020 A 
ATOM     25  C   UNL     1      10.028   4.332  -1.187  0.00  0.00    +0.005 A 
ATOM     26 CL   UNL     1      13.303   4.318  -3.472  0.00  0.00    -0.084 Cl
ENDBRANCH  19  20
ENDBRANCH  10  19
ENDBRANCH   1  11
BRANCH   7  27
ATOM     27  C   UNL     1       5.054  -0.282  -1.301  0.00  0.00    +0.068 C 
ATOM     28  C   UNL     1       3.980  -1.077  -1.483  0.00  0.00    +0.013 C 
BRANCH  28  29
ATOM     29  C   UNL     1       4.164  -2.490  -1.851  0.00  0.00    -0.025 A 
ATOM     30  C   UNL     1       3.053  -3.317  -2.041  0.00  0.00    +0.010 A 
ATOM     31  C   UNL     1       3.233  -4.642  -2.380  0.00  0.00    +0.033 A 
ATOM     32  C   UNL     1       4.511  -5.150  -2.544  0.00  0.00    +0.126 A 
ATOM     33  C   UNL     1       5.615  -4.337  -2.358  0.00  0.00    +0.033 A 
ATOM     34  C   UNL     1       5.451  -3.012  -2.013  0.00  0.00    +0.010 A 
BRANCH  32  35
ATOM     35  N   UNL     1       4.696  -6.571  -2.914  0.00  0.00    +0.056 N 
ATOM     36  O   UNL     1       5.818  -7.023  -3.054  0.00  0.00    -0.126 OA
ATOM     37  O   UNL     1       3.725  -7.289  -3.078  0.00  0.00    -0.126 OA
ENDBRANCH  32  35
ENDBRANCH  28  29
ENDBRANCH   7  27
TORSDOF 7
