REMARK  Name = ZINC40983894
REMARK  13 active torsions:
REMARK  status: ('A' for Active; 'I' for Inactive)
REMARK    1  A    between atoms: C_1  and  C_2
REMARK    2  A    between atoms: C_2  and  O_3
REMARK    3  A    between atoms: O_3  and  C_4
REMARK    4  A    between atoms: C_4  and  C_6
REMARK    5  A    between atoms: C_13  and  C_15
REMARK    6  A    between atoms: N_18  and  C_21
REMARK    7  A    between atoms: C_21  and  C_22
REMARK    8  A    between atoms: C_23  and  C_37
REMARK    9  A    between atoms: C_25  and  C_27
REMARK   10  A    between atoms: C_30  and  O_33
REMARK   11  A    between atoms: O_33  and  C_34
REMARK   12  A    between atoms: C_34  and  C_35
REMARK   13  A    between atoms: C_34  and  C_36
REMARK                            x       y       z     vdW  Elec       q    Type
REMARK                         _______ _______ _______ _____ _____    ______ ____
ROOT
ATOM      1  C   UNL     1       2.913  -6.076  -4.827  0.00  0.00    +0.072 C 
ATOM      2  C   UNL     1       1.899  -6.753  -5.754  0.00  0.00    -0.006 C 
ATOM      3  C   UNL     1       2.634  -7.354  -6.954  0.00  0.00    -0.078 C 
ATOM      4  N   UNL     1       3.611  -8.346  -6.487  0.00  0.00    +0.383 N 
ATOM      5  C   UNL     1       4.628  -7.690  -5.655  0.00  0.00    -0.078 C 
ATOM      6  C   UNL     1       3.969  -7.102  -4.406  0.00  0.00    -0.006 C 
ATOM      7  H   UNL     1       3.138  -9.052  -5.943  0.00  0.00    -0.081 HD
ENDROOT
BRANCH   1  14
ATOM      8  C   UNL     1       0.820  -2.536  -2.397  0.00  0.00    +0.115 C 
ATOM      9  C   UNL     1       0.454  -1.836  -3.708  0.00  0.00    +0.018 C 
ATOM     10  C   UNL     1       1.355  -2.351  -4.832  0.00  0.00    +0.020 C 
ATOM     11  C   UNL     1       1.133  -3.856  -5.010  0.00  0.00    +0.108 C 
ATOM     12  N   UNL     1       1.342  -4.521  -3.716  0.00  0.00    -0.300 N 
ATOM     13  C   UNL     1       0.592  -4.044  -2.546  0.00  0.00    +0.122 C 
ATOM     14  C   UNL     1       2.206  -5.550  -3.605  0.00  0.00    +0.219 C 
ATOM     15  O   UNL     1       2.413  -6.053  -2.521  0.00  0.00    -0.275 OA
BRANCH   8  16
ATOM     16  C   UNL     1      -0.046  -2.005  -1.284  0.00  0.00    +0.312 C 
ATOM     17  O   UNL     1      -0.770  -2.754  -0.672  0.00  0.00    -0.250 OA
BRANCH  16  18
ATOM     18  O   UNL     1      -0.013  -0.700  -0.973  0.00  0.00    -0.465 OA
BRANCH  18  20
ATOM     19  C   UNL     1      -0.686   1.241   0.301  0.00  0.00    +0.048 C 
ATOM     20  C   UNL     1      -0.860  -0.265   0.093  0.00  0.00    +0.229 C 
ENDBRANCH  18  20
ENDBRANCH  16  18
ENDBRANCH   8  16
ENDBRANCH   1  14
BRANCH   4  21
ATOM     21  C   UNL     1       4.259  -8.975  -7.645  0.00  0.00    -0.019 C 
BRANCH  21  22
ATOM     22  C   UNL     1       5.171 -10.078  -7.172  0.00  0.00    +0.066 A 
ATOM     23  C   UNL     1       6.469  -9.947  -6.846  0.00  0.00    +0.124 A 
ATOM     24  O   UNL     1       6.914 -11.165  -6.477  0.00  0.00    -0.440 OA
ATOM     25  C   UNL     1       5.886 -12.025  -6.581  0.00  0.00    +0.228 A 
ATOM     26  N   UNL     1       4.830 -11.364  -6.997  0.00  0.00    -0.216 NA
ATOM     27  C   UNL     1       7.276  -8.675  -6.886  0.00  0.00    +0.088 C 
BRANCH  25  28
ATOM     28  C   UNL     1       5.935 -13.469  -6.274  0.00  0.00    +0.037 A 
ATOM     29  C   UNL     1       4.793 -14.257  -6.431  0.00  0.00    +0.017 A 
ATOM     30  C   UNL     1       4.842 -15.604  -6.144  0.00  0.00    +0.046 A 
ATOM     31  C   UNL     1       6.026 -16.178  -5.700  0.00  0.00    +0.121 A 
ATOM     32  C   UNL     1       7.164 -15.398  -5.542  0.00  0.00    +0.046 A 
ATOM     33  C   UNL     1       7.124 -14.051  -5.832  0.00  0.00    +0.017 A 
BRANCH  31  34
ATOM     34  O   UNL     1       6.071 -17.506  -5.418  0.00  0.00    -0.489 OA
BRANCH  34  35
ATOM     35  C   UNL     1       4.837 -18.225  -5.481  0.00  0.00    +0.167 C 
ATOM     36  C   UNL     1       4.615 -18.730  -6.908  0.00  0.00    +0.051 C 
ATOM     37  C   UNL     1       4.890 -19.415  -4.521  0.00  0.00    +0.051 C 
ENDBRANCH  34  35
ENDBRANCH  31  34
ENDBRANCH  25  28
ENDBRANCH  21  22
ENDBRANCH   4  21
TORSDOF 9
