REMARK  Name = ZINC22323239
REMARK  15 active torsions:
REMARK  status: ('A' for Active; 'I' for Inactive)
REMARK    1  A    between atoms: C_1  and  C_2
REMARK    2  A    between atoms: C_5  and  S_8
REMARK    3  A    between atoms: S_8  and  N_11
REMARK    4  A    between atoms: N_11  and  C_12
REMARK    5  A    between atoms: N_11  and  C_27
REMARK    6  A    between atoms: C_12  and  C_13
REMARK    7  A    between atoms: N_15  and  C_16
REMARK    8  A    between atoms: C_16  and  C_18
REMARK    9  A    between atoms: C_16  and  C_19
REMARK   10  A    between atoms: C_22  and  C_26
REMARK   11  A    between atoms: C_23  and  C_25
REMARK   12  A    between atoms: C_30  and  O_35
REMARK   13  A    between atoms: C_31  and  O_33
REMARK   14  A    between atoms: O_33  and  C_34
REMARK   15  A    between atoms: O_35  and  C_36
REMARK                            x       y       z     vdW  Elec       q    Type
REMARK                         _______ _______ _______ _____ _____    ______ ____
ROOT
ATOM      1  N   UNL     1      -1.200  -0.720   0.009  0.00  0.00    -0.194 N 
ENDROOT
BRANCH   1   2
ATOM      2  C   UNL     1       0.004  -0.007  -0.009  0.00  0.00    +0.055 A 
ATOM      3  C   UNL     1       1.058  -0.444  -0.801  0.00  0.00    +0.028 A 
ATOM      4  C   UNL     1       2.247   0.259  -0.821  0.00  0.00    +0.051 A 
ATOM      5  C   UNL     1       2.391   1.401  -0.050  0.00  0.00    +0.162 A 
ATOM      6  C   UNL     1       1.338   1.841   0.745  0.00  0.00    +0.163 A 
ATOM      7  C   UNL     1       0.145   1.137   0.765  0.00  0.00    +0.074 A 
BRANCH   6   8
ATOM      8  O   UNL     1       1.478   2.962   1.502  0.00  0.00    -0.491 OA
ATOM      9  C   UNL     1       0.355   3.356   2.293  0.00  0.00    +0.277 C 
ENDBRANCH   6   8
BRANCH   5  10
ATOM     10  O   UNL     1       3.563   2.092  -0.070  0.00  0.00    -0.491 OA
ATOM     11  C   UNL     1       4.602   1.583  -0.909  0.00  0.00    +0.277 C 
ENDBRANCH   5  10
ENDBRANCH   1   2
BRANCH   1  12
ATOM     12  S   UNL     1      -1.217  -2.304   0.491  0.00  0.00    +0.075 S 
ATOM     13  O   UNL     1      -2.288  -2.929  -0.203  0.00  0.00    -0.150 OA
ATOM     14  O   UNL     1       0.122  -2.770   0.404  0.00  0.00    -0.150 OA
BRANCH  12  19
ATOM     15  C   UNL     1      -2.687  -2.373   6.343  0.00  0.00    +0.044 C 
ATOM     16  C   UNL     1      -2.320  -2.356   4.881  0.00  0.00    -0.050 A 
ATOM     17  C   UNL     1      -3.310  -2.424   3.919  0.00  0.00    +0.005 A 
ATOM     18  C   UNL     1      -2.973  -2.408   2.579  0.00  0.00    +0.029 A 
ATOM     19  C   UNL     1      -1.646  -2.324   2.200  0.00  0.00    +0.109 A 
ATOM     20  C   UNL     1      -0.656  -2.261   3.162  0.00  0.00    +0.029 A 
ATOM     21  C   UNL     1      -0.993  -2.272   4.503  0.00  0.00    +0.005 A 
ENDBRANCH  12  19
ENDBRANCH   1  12
BRANCH   1  22
ATOM     22  C   UNL     1      -2.445  -0.065  -0.398  0.00  0.00    +0.227 C 
BRANCH  22  23
ATOM     23  C   UNL     1      -2.588  -0.145  -1.897  0.00  0.00    +0.233 C 
ATOM     24  O   UNL     1      -1.734  -0.695  -2.558  0.00  0.00    -0.274 OA
ATOM     25  N   UNL     1      -3.665   0.395  -2.501  0.00  0.00    -0.307 N 
ATOM     26  H   UNL     1      -4.440   0.894  -1.900  0.00  0.00    +0.149 HD
BRANCH  25  27
ATOM     27  C   UNL     1      -3.804   0.318  -3.957  0.00  0.00    +0.100 C 
ATOM     28  C   UNL     1      -3.043   1.477  -4.604  0.00  0.00    +0.033 C 
BRANCH  27  29
ATOM     29  C   UNL     1      -5.262   0.405  -4.328  0.00  0.00    -0.027 A 
ATOM     30  C   UNL     1      -6.096   1.277  -3.653  0.00  0.00    +0.006 A 
ATOM     31  C   UNL     1      -7.432   1.359  -3.996  0.00  0.00    +0.004 A 
ATOM     32  C   UNL     1      -7.937   0.564  -5.009  0.00  0.00    -0.048 A 
ATOM     33  C   UNL     1      -7.104  -0.312  -5.679  0.00  0.00    -0.047 A 
ATOM     34  C   UNL     1      -5.766  -0.391  -5.339  0.00  0.00    +0.009 A 
ATOM     35  C   UNL     1      -7.654  -1.179  -6.782  0.00  0.00    +0.044 C 
ATOM     36  C   UNL     1      -9.395   0.651  -5.380  0.00  0.00    +0.044 C 
ENDBRANCH  27  29
ENDBRANCH  25  27
ENDBRANCH  22  23
ENDBRANCH   1  22
TORSDOF 9
