REMARK  Name = ZINC09637794
REMARK  6 active torsions:
REMARK  status: ('A' for Active; 'I' for Inactive)
REMARK    1  A    between atoms: C_3  and  C_6
REMARK    2  A    between atoms: N_13  and  C_16
REMARK    3  A    between atoms: C_16  and  C_17
REMARK    4  A    between atoms: N_19  and  C_20
REMARK    5  A    between atoms: C_20  and  C_21
REMARK    6  A    between atoms: C_21  and  N_60
REMARK                            x       y       z     vdW  Elec       q    Type
REMARK                         _______ _______ _______ _____ _____    ______ ____
ROOT
ATOM      1  C   UNL     1       1.504  -0.726   4.369  0.00  0.00    +0.233 C 
ATOM      2  O   UNL     1       0.656   0.111   4.141  0.00  0.00    -0.274 OA
ATOM      3  N   UNL     1       1.338  -1.990   3.931  0.00  0.00    -0.315 N 
ATOM      4  H   UNL     1       2.016  -2.659   4.113  0.00  0.00    +0.149 HD
ENDROOT
BRANCH   1   5
ATOM      5  C   UNL     1       2.743  -0.353   5.141  0.00  0.00    +0.221 C 
BRANCH   5  13
ATOM      6  C   UNL     1       3.625   4.531   4.287  0.00  0.00    +0.010 A 
ATOM      7  C   UNL     1       3.454   5.761   4.834  0.00  0.00    +0.057 A 
ATOM      8  S   UNL     1       2.628   5.416   6.375  0.00  0.00    -0.076 S 
ATOM      9  C   UNL     1       2.531   3.648   6.253  0.00  0.00    +0.116 A 
ATOM     10  C   UNL     1       3.142   3.365   5.019  0.00  0.00    +0.080 A 
ATOM     11  C   UNL     1       3.206   1.981   4.663  0.00  0.00    +0.263 A 
ATOM     12  O   UNL     1       3.722   1.636   3.613  0.00  0.00    -0.267 OA
ATOM     13  N   UNL     1       2.685   1.066   5.501  0.00  0.00    -0.290 N 
ATOM     14  C   UNL     1       2.112   1.432   6.676  0.00  0.00    +0.203 A 
ATOM     15  N   UNL     1       2.042   2.687   7.032  0.00  0.00    -0.230 NA
BRANCH   6  18
ATOM     16  C   UNL     1       4.791   4.711   0.689  0.00  0.00    +0.008 A 
ATOM     17  C   UNL     1       4.030   5.023   1.796  0.00  0.00    +0.016 A 
ATOM     18  C   UNL     1       4.287   4.375   2.975  0.00  0.00    +0.021 A 
ATOM     19  S   UNL     1       5.625   3.287   2.512  0.00  0.00    -0.097 S 
ATOM     20  C   UNL     1       5.759   3.767   0.798  0.00  0.00    +0.046 A 
ENDBRANCH   6  18
ENDBRANCH   5  13
ENDBRANCH   1   5
BRANCH   3  21
ATOM     21  C   UNL     1       0.134  -2.353   3.180  0.00  0.00    +0.092 C 
BRANCH  21  22
ATOM     22  C   UNL     1       0.134  -3.859   2.914  0.00  0.00    -0.049 C 
ATOM     23  C   UNL     1      -1.053  -4.218   2.017  0.00  0.00    -0.010 C 
ATOM     24  C   UNL     1      -2.357  -3.824   2.714  0.00  0.00    -0.001 C 
ATOM     25  C   UNL     1      -2.474  -4.576   4.041  0.00  0.00    -0.000 C 
ATOM     26  C   UNL     1      -1.287  -4.217   4.938  0.00  0.00    -0.001 C 
ATOM     27  C   UNL     1       0.016  -4.612   4.241  0.00  0.00    -0.010 C 
BRANCH  22  33
ATOM     28  C   UNL     1       1.558  -3.493   0.989  0.00  0.00    -0.049 C 
ATOM     29  C   UNL     1       2.899  -3.874   0.357  0.00  0.00    +0.141 C 
ATOM     30  O   UNL     1       2.942  -5.290   0.157  0.00  0.00    -0.383 OA
ATOM     31  C   UNL     1       2.777  -6.046   1.359  0.00  0.00    +0.141 C 
ATOM     32  C   UNL     1       1.435  -5.688   2.002  0.00  0.00    -0.049 C 
ATOM     33  N   UNL     1       1.407  -4.233   2.260  0.00  0.00    +0.387 N 
ATOM     34  H   UNL     1       2.186  -3.989   2.884  0.00  0.00    -0.081 HD
ENDBRANCH  22  33
ENDBRANCH  21  22
ENDBRANCH   3  21
TORSDOF 6
