REMARK  Name = ZINC20208530
REMARK  7 active torsions:
REMARK  status: ('A' for Active; 'I' for Inactive)
REMARK    1  A    between atoms: C_1  and  C_2
REMARK    2  A    between atoms: C_2  and  S_3
REMARK    3  A    between atoms: S_3  and  C_6
REMARK    4  A    between atoms: C_12  and  C_13
REMARK    5  A    between atoms: C_16  and  O_20
REMARK    6  A    between atoms: O_20  and  C_21
REMARK    7  A    between atoms: C_21  and  C_23
REMARK                            x       y       z     vdW  Elec       q    Type
REMARK                         _______ _______ _______ _____ _____    ______ ____
ROOT
ATOM      1  C   UNL     1       1.216  -2.738  -2.831  0.00  0.00    +0.235 C 
ATOM      2  N   UNL     1       0.337  -3.649  -3.140  0.00  0.00    -0.145 NA
ATOM      3  N   UNL     1       0.328  -4.876  -2.513  0.00  0.00    -0.150 N 
ATOM      4  C   UNL     1      -0.518  -5.960  -2.833  0.00  0.00    +0.153 C 
ATOM      5  N   UNL     1      -1.094  -6.102  -3.997  0.00  0.00    -0.283 NA
ATOM      6  C   UNL     1      -0.687  -6.928  -1.712  0.00  0.00    +0.081 C 
ATOM      7  C   UNL     1      -1.865  -7.614  -1.518  0.00  0.00    +0.024 C 
ATOM      8  C   UNL     1       0.482  -7.112  -0.816  0.00  0.00    +0.273 C 
ATOM      9  O   UNL     1       0.633  -8.146  -0.186  0.00  0.00    -0.268 OA
ATOM     10  N   UNL     1       1.372  -6.105  -0.720  0.00  0.00    -0.152 NA
ATOM     11  C   UNL     1       1.249  -5.064  -1.504  0.00  0.00    +0.182 C 
ATOM     12  S   UNL     1       2.172  -3.551  -1.558  0.00  0.00    -0.015 S 
ATOM     13  H   UNL     1      -1.008  -5.407  -4.668  0.00  0.00    +0.188 HD
ENDROOT
BRANCH   7  14
ATOM     14  C   UNL     1      -3.050  -7.272  -2.308  0.00  0.00    -0.023 A 
ATOM     15  C   UNL     1      -3.947  -8.275  -2.703  0.00  0.00    +0.011 A 
ATOM     16  C   UNL     1      -5.058  -7.948  -3.444  0.00  0.00    +0.048 A 
ATOM     17  C   UNL     1      -5.295  -6.626  -3.803  0.00  0.00    +0.150 A 
ATOM     18  C   UNL     1      -4.409  -5.625  -3.414  0.00  0.00    +0.084 A 
ATOM     19  C   UNL     1      -3.296  -5.939  -2.667  0.00  0.00    +0.031 A 
ATOM     20 CL   UNL     1      -4.712  -3.976  -3.867  0.00  0.00    -0.080 Cl
BRANCH  17  21
ATOM     21  O   UNL     1      -6.393  -6.310  -4.535  0.00  0.00    -0.421 OA
BRANCH  21  22
ATOM     22  C   UNL     1      -6.238  -6.131  -5.864  0.00  0.00    +0.351 C 
ATOM     23  O   UNL     1      -5.160  -6.345  -6.385  0.00  0.00    -0.244 OA
BRANCH  22  24
ATOM     24  C   UNL     1      -7.368  -5.679  -6.678  0.00  0.00    +0.097 A 
ATOM     25  C   UNL     1      -7.422  -5.442  -8.044  0.00  0.00    +0.022 A 
ATOM     26  C   UNL     1      -8.636  -5.021  -8.528  0.00  0.00    +0.008 A 
ATOM     27  C   UNL     1      -9.673  -4.868  -7.667  0.00  0.00    +0.046 A 
ATOM     28  S   UNL     1      -9.035  -5.299  -6.174  0.00  0.00    -0.090 S 
ENDBRANCH  22  24
ENDBRANCH  21  22
ENDBRANCH  17  21
ENDBRANCH   7  14
BRANCH   1  29
ATOM     29  S   UNL     1       1.415  -1.121  -3.501  0.00  0.00    +0.022 S 
ATOM     30  O   UNL     1       0.762  -1.168  -4.762  0.00  0.00    -0.167 OA
ATOM     31  O   UNL     1       2.809  -0.863  -3.417  0.00  0.00    -0.167 OA
BRANCH  29  33
ATOM     32  C   UNL     1       0.614   1.414  -2.857  0.00  0.00    +0.028 C 
ATOM     33  C   UNL     1       0.508  -0.032  -2.369  0.00  0.00    +0.171 C 
ENDBRANCH  29  33
ENDBRANCH   1  29
TORSDOF 6
