REMARK  Name = ZINC14977475
REMARK  10 active torsions:
REMARK  status: ('A' for Active; 'I' for Inactive)
REMARK    1  A    between atoms: C_1  and  C_2
REMARK    2  A    between atoms: C_6  and  C_32
REMARK    3  A    between atoms: C_16  and  N_65
REMARK    4  A    between atoms: C_20  and  C_21
REMARK    5  A    between atoms: C_20  and  N_65
REMARK    6  A    between atoms: C_21  and  C_22
REMARK    7  A    between atoms: C_25  and  O_30
REMARK    8  A    between atoms: C_26  and  O_28
REMARK    9  A    between atoms: O_28  and  C_29
REMARK   10  A    between atoms: O_30  and  C_31
REMARK                            x       y       z     vdW  Elec       q    Type
REMARK                         _______ _______ _______ _____ _____    ______ ____
ROOT
ATOM      1  C   UNL     1      -5.280  -4.889   5.262  0.00  0.00    +0.044 C 
ATOM      2  C   UNL     1      -5.459  -3.858   4.178  0.00  0.00    -0.048 A 
ATOM      3  C   UNL     1      -6.738  -3.580   3.700  0.00  0.00    +0.004 A 
ATOM      4  C   UNL     1      -6.935  -2.655   2.720  0.00  0.00    +0.012 A 
ATOM      5  C   UNL     1      -5.834  -1.971   2.185  0.00  0.00    +0.022 A 
ATOM      6  C   UNL     1      -5.976  -1.005   1.171  0.00  0.00    +0.051 A 
ATOM      7  N   UNL     1      -4.894  -0.406   0.719  0.00  0.00    -0.219 NA
ATOM      8  C   UNL     1      -3.686  -0.695   1.198  0.00  0.00    +0.219 A 
ATOM      9  N   UNL     1      -3.491  -1.594   2.143  0.00  0.00    -0.214 NA
ATOM     10  C   UNL     1      -4.531  -2.252   2.670  0.00  0.00    +0.077 A 
ATOM     11  C   UNL     1      -4.368  -3.212   3.680  0.00  0.00    +0.032 A 
ATOM     12  N   UNL     1      -2.589  -0.029   0.680  0.00  0.00    -0.300 N 
ATOM     13  C   UNL     1      -1.780   0.579   1.758  0.00  0.00    +0.108 C 
ATOM     14  C   UNL     1      -0.722   1.574   1.243  0.00  0.00    +0.017 C 
ATOM     15  C   UNL     1      -0.013   1.086   0.008  0.00  0.00    -0.014 C 
ATOM     16  C   UNL     1      -0.765   1.600  -1.240  0.00  0.00    -0.070 C 
ATOM     17  C   UNL     1      -1.974   0.825  -1.498  0.00  0.00    +0.003 C 
ATOM     18  C   UNL     1      -2.989   0.907  -0.343  0.00  0.00    +0.106 C 
ATOM     19  C   UNL     1      -7.335  -0.663   0.616  0.00  0.00    +0.066 C 
ENDROOT
BRANCH  16  20
ATOM     20  N   UNL     1       0.130   1.500  -2.408  0.00  0.00    +0.381 N 
ATOM     21  H   UNL     1       0.074   0.551  -2.797  0.00  0.00    -0.086 HD
ATOM     22  H   UNL     1       1.095   1.692  -2.112  0.00  0.00    -0.086 HD
BRANCH  20  23
ATOM     23  C   UNL     1      -0.265   2.474  -3.442  0.00  0.00    -0.078 C 
BRANCH  23  24
ATOM     24  C   UNL     1       0.679   2.347  -4.638  0.00  0.00    +0.016 C 
BRANCH  24  25
ATOM     25  C   UNL     1       0.282   3.340  -5.700  0.00  0.00    -0.045 A 
ATOM     26  C   UNL     1       0.829   4.610  -5.697  0.00  0.00    +0.007 A 
ATOM     27  C   UNL     1       0.467   5.524  -6.669  0.00  0.00    +0.049 A 
ATOM     28  C   UNL     1      -0.445   5.168  -7.649  0.00  0.00    +0.161 A 
ATOM     29  C   UNL     1      -0.996   3.890  -7.653  0.00  0.00    +0.162 A 
ATOM     30  C   UNL     1      -0.625   2.977  -6.679  0.00  0.00    +0.053 A 
BRANCH  29  31
ATOM     31  O   UNL     1      -1.891   3.537  -8.613  0.00  0.00    -0.491 OA
ATOM     32  C   UNL     1      -2.415   2.209  -8.554  0.00  0.00    +0.277 C 
ENDBRANCH  29  31
BRANCH  28  33
ATOM     33  O   UNL     1      -0.801   6.066  -8.606  0.00  0.00    -0.491 OA
ATOM     34  C   UNL     1      -0.196   7.359  -8.541  0.00  0.00    +0.277 C 
ENDBRANCH  28  33
ENDBRANCH  24  25
ENDBRANCH  23  24
ENDBRANCH  20  23
ENDBRANCH  16  20
TORSDOF 6
