REMARK  Name = ZINC39666096
REMARK  9 active torsions:
REMARK  status: ('A' for Active; 'I' for Inactive)
REMARK    1  A    between atoms: C_1  and  C_2
REMARK    2  A    between atoms: C_5  and  O_8
REMARK    3  A    between atoms: O_8  and  C_9
REMARK    4  A    between atoms: C_9  and  C_11
REMARK    5  A    between atoms: C_9  and  C_12
REMARK    6  A    between atoms: C_12  and  N_13
REMARK    7  A    between atoms: C_14  and  C_16
REMARK    8  A    between atoms: C_27  and  C_29
REMARK    9  A    between atoms: C_33  and  C_35
REMARK                            x       y       z     vdW  Elec       q    Type
REMARK                         _______ _______ _______ _____ _____    ______ ____
ROOT
ATOM      1  C   UNL     1       4.656  -6.550   0.310  0.00  0.00    +0.100 C 
ATOM      2  C   UNL     1       4.937  -5.632  -0.901  0.00  0.00    +0.121 C 
ATOM      3  N   UNL     1       6.229  -6.113  -1.444  0.00  0.00    -0.296 N 
ATOM      4  C   UNL     1       6.151  -7.589  -1.327  0.00  0.00    +0.115 C 
ATOM      5  C   UNL     1       5.454  -7.834   0.026  0.00  0.00    -0.004 C 
ATOM      6  C   UNL     1       4.513  -9.030  -0.075  0.00  0.00    -0.010 C 
ATOM      7  C   UNL     1       5.334 -10.303  -0.299  0.00  0.00    -0.082 C 
ATOM      8  N   UNL     1       6.272 -10.485   0.815  0.00  0.00    +0.379 N 
ATOM      9  C   UNL     1       7.232  -9.376   0.848  0.00  0.00    -0.082 C 
ATOM     10  C   UNL     1       6.492  -8.064   1.121  0.00  0.00    -0.010 C 
ATOM     11  C   UNL     1       7.246  -5.376  -1.932  0.00  0.00    +0.247 C 
ATOM     12  O   UNL     1       7.137  -4.168  -2.011  0.00  0.00    -0.270 OA
ATOM     13  H   UNL     1       5.759 -10.510   1.684  0.00  0.00    -0.086 HD
ATOM     14  H   UNL     1       6.768 -11.355   0.696  0.00  0.00    -0.086 HD
ENDROOT
BRANCH  11  15
ATOM     15  C   UNL     1       8.493  -6.036  -2.373  0.00  0.00    +0.037 A 
ATOM     16  C   UNL     1       8.459  -7.344  -2.861  0.00  0.00    +0.014 A 
ATOM     17  C   UNL     1       9.626  -7.954  -3.270  0.00  0.00    +0.016 A 
ATOM     18  C   UNL     1      10.829  -7.273  -3.197  0.00  0.00    +0.021 A 
ATOM     19  C   UNL     1      10.869  -5.976  -2.714  0.00  0.00    -0.036 A 
ATOM     20  C   UNL     1       9.708  -5.352  -2.308  0.00  0.00    +0.017 A 
ATOM     21  C   UNL     1      12.183  -5.242  -2.639  0.00  0.00    +0.045 C 
ATOM     22 BR   UNL     1      12.425  -8.118  -3.759  0.00  0.00    -0.050 Br
ENDBRANCH  11  15
BRANCH   1  24
ATOM     23  N   UNL     1       2.621  -7.097   1.606  0.00  0.00    -0.312 N 
ATOM     24  C   UNL     1       3.184  -6.858   0.405  0.00  0.00    +0.218 C 
ATOM     25  O   UNL     1       2.505  -6.890  -0.600  0.00  0.00    -0.275 OA
ATOM     26  H   UNL     1       3.164  -7.072   2.409  0.00  0.00    +0.149 HD
BRANCH  23  27
ATOM     27  C   UNL     1       1.190  -7.396   1.698  0.00  0.00    +0.148 C 
BRANCH  27  28
ATOM     28  C   UNL     1       0.810  -7.626   3.162  0.00  0.00    +0.187 C 
ATOM     29  C   UNL     1      -0.654  -8.060   3.247  0.00  0.00    +0.053 C 
BRANCH  28  30
ATOM     30  O   UNL     1       0.992  -6.414   3.897  0.00  0.00    -0.488 OA
BRANCH  30  35
ATOM     31  C   UNL     1       2.241  -6.903   9.367  0.00  0.00    +0.044 C 
ATOM     32  C   UNL     1       1.907  -6.772   7.904  0.00  0.00    -0.050 A 
ATOM     33  C   UNL     1       1.611  -7.900   7.160  0.00  0.00    +0.007 A 
ATOM     34  C   UNL     1       1.304  -7.782   5.818  0.00  0.00    +0.046 A 
ATOM     35  C   UNL     1       1.292  -6.532   5.217  0.00  0.00    +0.121 A 
ATOM     36  C   UNL     1       1.589  -5.402   5.966  0.00  0.00    +0.046 A 
ATOM     37  C   UNL     1       1.890  -5.525   7.309  0.00  0.00    +0.007 A 
ENDBRANCH  30  35
ENDBRANCH  28  30
ENDBRANCH  27  28
ENDBRANCH  23  27
ENDBRANCH   1  24
TORSDOF 6
