REMARK  Name = ZINC63465527
REMARK  11 active torsions:
REMARK  status: ('A' for Active; 'I' for Inactive)
REMARK    1  A    between atoms: C_1  and  C_2
REMARK    2  A    between atoms: C_2  and  C_4
REMARK    3  A    between atoms: C_2  and  N_18
REMARK    4  A    between atoms: N_6  and  N_7
REMARK    5  A    between atoms: C_8  and  C_10
REMARK    6  A    between atoms: C_15  and  O_16
REMARK    7  A    between atoms: C_19  and  O_21
REMARK    8  A    between atoms: O_21  and  C_22
REMARK    9  A    between atoms: C_22  and  C_23
REMARK   10  A    between atoms: C_22  and  C_24
REMARK   11  A    between atoms: C_22  and  C_25
REMARK                            x       y       z     vdW  Elec       q    Type
REMARK                         _______ _______ _______ _____ _____    ______ ____
ROOT
ATOM      1  C   UNL     1       0.707  -0.490  -1.238  0.00  0.00    +0.249 C 
ATOM      2  O   UNL     1       1.704  -1.174  -1.140  0.00  0.00    -0.272 OA
ATOM      3  N   UNL     1       0.231  -0.164  -2.456  0.00  0.00    -0.233 N 
ATOM      4  H   UNL     1      -0.566   0.383  -2.534  0.00  0.00    +0.173 HD
ENDROOT
BRANCH   3   5
ATOM      5  N   UNL     1       0.887  -0.616  -3.608  0.00  0.00    -0.230 N 
ATOM      6  C   UNL     1       0.410  -0.290  -4.826  0.00  0.00    +0.264 C 
ATOM      7  O   UNL     1      -0.589   0.396  -4.925  0.00  0.00    -0.269 OA
ATOM      8  H   UNL     1       1.684  -1.163  -3.530  0.00  0.00    +0.173 HD
BRANCH   6   9
ATOM      9  C   UNL     1       1.101  -0.766  -6.040  0.00  0.00    +0.081 A 
ATOM     10  C   UNL     1       2.246  -1.559  -5.932  0.00  0.00    +0.036 A 
ATOM     11  C   UNL     1       2.886  -2.001  -7.070  0.00  0.00    +0.042 A 
ATOM     12  C   UNL     1       2.399  -1.660  -8.323  0.00  0.00    +0.023 A 
ATOM     13  C   UNL     1       1.269  -0.877  -8.443  0.00  0.00    +0.047 A 
ATOM     14  C   UNL     1       0.609  -0.429  -7.308  0.00  0.00    +0.129 A 
ATOM     15 CL   UNL     1       4.309  -2.986  -6.934  0.00  0.00    -0.084 Cl
BRANCH  14  16
ATOM     16  O   UNL     1      -0.506   0.335  -7.426  0.00  0.00    -0.506 OA
ATOM     17  H   UNL     1      -0.329   1.285  -7.460  0.00  0.00    +0.292 HD
ENDBRANCH  14  16
ENDBRANCH   6   9
ENDBRANCH   3   5
BRANCH   1  19
ATOM     18  C   UNL     1      -0.019   1.526   0.010  0.00  0.00    +0.038 C 
ATOM     19  C   UNL     1       0.002  -0.004   0.002  0.00  0.00    +0.160 C 
BRANCH  19  20
ATOM     20  N   UNL     1       0.711  -0.489   1.189  0.00  0.00    -0.270 N 
ATOM     21  C   UNL     1       0.051  -0.633   2.355  0.00  0.00    +0.401 C 
ATOM     22  O   UNL     1      -1.131  -0.361   2.423  0.00  0.00    -0.226 OA
ATOM     23  H   UNL     1       1.654  -0.707   1.135  0.00  0.00    +0.153 HD
BRANCH  21  24
ATOM     24  O   UNL     1       0.702  -1.079   3.446  0.00  0.00    -0.445 OA
BRANCH  24  25
ATOM     25  C   UNL     1      -0.059  -1.208   4.649  0.00  0.00    +0.107 C 
ATOM     26  C   UNL     1      -1.206  -2.195   4.423  0.00  0.00    +0.055 C 
ATOM     27  C   UNL     1       0.844  -1.724   5.771  0.00  0.00    +0.055 C 
ATOM     28  C   UNL     1      -0.629   0.157   5.040  0.00  0.00    +0.055 C 
ENDBRANCH  24  25
ENDBRANCH  21  24
ENDBRANCH  19  20
ENDBRANCH   1  19
TORSDOF 7
