REMARK  Name = ZINC63627380
REMARK  5 active torsions:
REMARK  status: ('A' for Active; 'I' for Inactive)
REMARK    1  A    between atoms: C_1  and  C_2
REMARK    2  A    between atoms: C_7  and  S_8
REMARK    3  A    between atoms: S_8  and  N_11
REMARK    4  A    between atoms: N_11  and  C_12
REMARK    5  A    between atoms: C_15  and  C_18
REMARK                            x       y       z     vdW  Elec       q    Type
REMARK                         _______ _______ _______ _____ _____    ______ ____
ROOT
ATOM      1  C   UNL     1       1.215   2.188   2.135  0.00  0.00    +0.048 A 
ATOM      2  C   UNL     1       0.967   2.116   0.770  0.00  0.00    +0.025 A 
ATOM      3  C   UNL     1       1.005   3.263   0.001  0.00  0.00    +0.008 A 
ATOM      4  C   UNL     1       1.291   4.482   0.588  0.00  0.00    -0.021 A 
ATOM      5  C   UNL     1       1.539   4.557   1.946  0.00  0.00    +0.008 A 
ATOM      6  C   UNL     1       1.496   3.415   2.722  0.00  0.00    +0.025 A 
ENDROOT
BRANCH   4   7
ATOM      7  C   UNL     1       1.334   5.731  -0.254  0.00  0.00    +0.133 C 
ATOM      8  C   UNL     1       2.767   6.123  -0.533  0.00  0.00    +0.012 C 
ATOM      9  C   UNL     1       2.930   7.353   0.006  0.00  0.00    -0.002 A 
ATOM     10  C   UNL     1       4.078   8.266   0.071  0.00  0.00    +0.029 A 
ATOM     11  C   UNL     1       3.933   9.459   0.692  0.00  0.00    +0.042 A 
ATOM     12  C   UNL     1       2.716   9.844   1.274  0.00  0.00    +0.022 A 
ATOM     13  C   UNL     1       1.618   9.060   1.254  0.00  0.00    +0.027 A 
ATOM     14  C   UNL     1       1.657   7.784   0.628  0.00  0.00    +0.043 A 
ATOM     15  N   UNL     1       0.742   6.855   0.478  0.00  0.00    -0.374 N 
ATOM     16 CL   UNL     1       5.288  10.541   0.772  0.00  0.00    -0.084 Cl
ATOM     17  H   UNL     1      -0.172   6.904   0.799  0.00  0.00    +0.161 HD
ENDBRANCH   4   7
BRANCH   1  18
ATOM     18  N   UNL     1       1.176   1.031   2.915  0.00  0.00    -0.216 N 
ATOM     19  H   UNL     1       1.882   0.855   3.557  0.00  0.00    +0.174 HD
BRANCH  18  20
ATOM     20  S   UNL     1      -0.075  -0.041   2.746  0.00  0.00    +0.073 S 
ATOM     21  O   UNL     1      -1.270   0.728   2.744  0.00  0.00    -0.150 OA
ATOM     22  O   UNL     1       0.157  -1.087   3.679  0.00  0.00    -0.150 OA
BRANCH  20  29
ATOM     23  C   UNL     1       2.240  -1.772   1.857  0.00  0.00    +0.046 C 
ATOM     24  C   UNL     1       1.164  -1.536   0.828  0.00  0.00    -0.024 A 
ATOM     25  C   UNL     1       1.274  -2.103  -0.429  0.00  0.00    +0.008 A 
ATOM     26  C   UNL     1       0.288  -1.887  -1.373  0.00  0.00    +0.039 A 
ATOM     27  C   UNL     1      -0.809  -1.103  -1.060  0.00  0.00    +0.125 A 
ATOM     28  C   UNL     1      -0.918  -0.536   0.198  0.00  0.00    +0.067 A 
ATOM     29  C   UNL     1       0.067  -0.757   1.142  0.00  0.00    +0.114 A 
ATOM     30  F   UNL     1      -1.774  -0.891  -1.983  0.00  0.00    -0.205 F 
ENDBRANCH  20  29
ENDBRANCH  18  20
ENDBRANCH   1  18
TORSDOF 4
