REMARK  Name = ZINC09001606
REMARK  10 active torsions:
REMARK  status: ('A' for Active; 'I' for Inactive)
REMARK    1  A    between atoms: C_1  and  C_2
REMARK    2  A    between atoms: C_5  and  S_8
REMARK    3  A    between atoms: S_8  and  N_11
REMARK    4  A    between atoms: N_11  and  C_12
REMARK    5  A    between atoms: C_17  and  C_18
REMARK    6  A    between atoms: C_18  and  N_20
REMARK    7  A    between atoms: N_22  and  C_32
REMARK    8  A    between atoms: C_32  and  C_33
REMARK    9  A    between atoms: C_33  and  O_34
REMARK   10  A    between atoms: O_34  and  C_35
REMARK                            x       y       z     vdW  Elec       q    Type
REMARK                         _______ _______ _______ _____ _____    ______ ____
ROOT
ATOM      1  C   UNL     1      -6.666   1.447  -0.384  0.00  0.00    +0.060 A 
ATOM      2  C   UNL     1      -7.670   1.313   0.568  0.00  0.00    +0.025 A 
ATOM      3  C   UNL     1      -7.354   0.932   1.856  0.00  0.00    +0.002 A 
ATOM      4  C   UNL     1      -6.039   0.676   2.209  0.00  0.00    +0.001 A 
ATOM      5  C   UNL     1      -5.032   0.799   1.277  0.00  0.00    +0.015 A 
ATOM      6  C   UNL     1      -5.335   1.183  -0.030  0.00  0.00    +0.061 A 
ENDROOT
BRANCH   1   7
ATOM      7  N   UNL     1      -6.980   1.836  -1.681  0.00  0.00    -0.216 N 
ATOM      8  H   UNL     1      -6.488   1.467  -2.430  0.00  0.00    +0.174 HD
BRANCH   7   9
ATOM      9  S   UNL     1      -8.195   2.930  -1.945  0.00  0.00    +0.072 S 
ATOM     10  O   UNL     1      -8.182   3.223  -3.336  0.00  0.00    -0.150 OA
ATOM     11  O   UNL     1      -9.347   2.425  -1.284  0.00  0.00    -0.150 OA
BRANCH   9  16
ATOM     12  C   UNL     1      -6.664   8.023   0.904  0.00  0.00    +0.044 C 
ATOM     13  C   UNL     1      -7.046   6.751   0.193  0.00  0.00    -0.050 A 
ATOM     14  C   UNL     1      -6.661   6.551  -1.120  0.00  0.00    +0.005 A 
ATOM     15  C   UNL     1      -7.012   5.384  -1.773  0.00  0.00    +0.029 A 
ATOM     16  C   UNL     1      -7.747   4.417  -1.113  0.00  0.00    +0.109 A 
ATOM     17  C   UNL     1      -8.137   4.620   0.198  0.00  0.00    +0.029 A 
ATOM     18  C   UNL     1      -7.782   5.784   0.852  0.00  0.00    +0.005 A 
ENDBRANCH   9  16
ENDBRANCH   7   9
ENDBRANCH   1   7
BRANCH   6  19
ATOM     19  C   UNL     1      -4.259   1.317  -1.034  0.00  0.00    +0.271 C 
ATOM     20  O   UNL     1      -4.528   1.653  -2.175  0.00  0.00    -0.268 OA
BRANCH  19  21
ATOM     21  N   UNL     1      -2.990   1.070  -0.691  0.00  0.00    -0.152 NA
ATOM     22  C   UNL     1      -2.022   1.191  -1.594  0.00  0.00    +0.167 A 
ATOM     23  N   UNL     1      -0.684   0.986  -1.443  0.00  0.00    -0.317 N 
ATOM     24  C   UNL     1       0.174   1.159  -2.516  0.00  0.00    +0.093 A 
ATOM     25  C   UNL     1       1.571   0.986  -2.533  0.00  0.00    +0.151 A 
ATOM     26  C   UNL     1       2.295   1.198  -3.684  0.00  0.00    +0.078 A 
ATOM     27  C   UNL     1       1.675   1.587  -4.861  0.00  0.00    +0.127 A 
ATOM     28  C   UNL     1       0.301   1.765  -4.873  0.00  0.00    +0.055 A 
ATOM     29  C   UNL     1      -0.422   1.553  -3.722  0.00  0.00    +0.044 A 
ATOM     30  S   UNL     1      -2.147   1.665  -3.310  0.00  0.00    -0.052 S 
ATOM     31  F   UNL     1       2.400   1.791  -5.983  0.00  0.00    -0.205 F 
ATOM     32  F   UNL     1       2.210   0.608  -1.405  0.00  0.00    -0.203 F 
BRANCH  23  33
ATOM     33  C   UNL     1      -0.151   0.575  -0.141  0.00  0.00    +0.152 C 
BRANCH  33  34
ATOM     34  C   UNL     1      -0.946   1.257   0.974  0.00  0.00    +0.181 C 
BRANCH  34  35
ATOM     35  O   UNL     1      -0.343   0.965   2.236  0.00  0.00    -0.381 OA
ATOM     36  C   UNL     1      -1.012   1.557   3.351  0.00  0.00    +0.194 C 
ENDBRANCH  34  35
ENDBRANCH  33  34
ENDBRANCH  23  33
ENDBRANCH  19  21
ENDBRANCH   6  19
TORSDOF 8
