REMARK  Name = ZINC16495927
REMARK  14 active torsions:
REMARK  status: ('A' for Active; 'I' for Inactive)
REMARK    1  A    between atoms: C_1  and  C_2
REMARK    2  A    between atoms: C_2  and  C_4
REMARK    3  A    between atoms: C_2  and  C_31
REMARK    4  A    between atoms: C_4  and  C_5
REMARK    5  A    between atoms: C_14  and  C_18
REMARK    6  A    between atoms: N_20  and  C_21
REMARK    7  A    between atoms: C_21  and  C_22
REMARK    8  A    between atoms: C_22  and  C_23
REMARK    9  A    between atoms: C_28  and  O_29
REMARK   10  A    between atoms: O_29  and  C_30
REMARK   11  A    between atoms: C_31  and  C_32
REMARK   12  A    between atoms: C_32  and  C_33
REMARK   13  A    between atoms: C_32  and  C_34
REMARK   14  A    between atoms: C_32  and  C_35
REMARK                            x       y       z     vdW  Elec       q    Type
REMARK                         _______ _______ _______ _____ _____    ______ ____
ROOT
ATOM      1  C   UNL     1       1.582   0.014   2.006  0.00  0.00    +0.216 C 
ATOM      2  O   UNL     1       2.029   0.841   1.240  0.00  0.00    -0.276 OA
ATOM      3  N   UNL     1       2.334  -0.431   3.033  0.00  0.00    -0.301 N 
ATOM      4  C   UNL     1       1.808  -1.436   3.965  0.00  0.00    +0.110 C 
ATOM      5  C   UNL     1       1.932  -0.894   5.394  0.00  0.00    +0.052 C 
ATOM      6  C   UNL     1       3.369  -0.463   5.650  0.00  0.00    +0.069 C 
ATOM      7  C   UNL     1       3.810   0.615   4.671  0.00  0.00    +0.052 C 
ATOM      8  C   UNL     1       3.698   0.077   3.235  0.00  0.00    +0.110 C 
ATOM      9  N   UNL     1       4.283  -1.616   5.619  0.00  0.00    -0.291 NA
ATOM     10  C   UNL     1       4.891  -1.982   6.902  0.00  0.00    +0.151 C 
ATOM     11  C   UNL     1       5.089  -0.724   7.799  0.00  0.00    +0.099 C 
ATOM     12  S   UNL     1       3.525   0.167   7.370  0.00  0.00    -0.137 S 
ATOM     13  H   UNL     1       3.844  -2.415   5.186  0.00  0.00    +0.124 HD
ENDROOT
BRANCH  10  14
ATOM     14  C   UNL     1       6.230  -2.626   6.652  0.00  0.00    +0.231 C 
ATOM     15  O   UNL     1       6.633  -2.764   5.516  0.00  0.00    -0.274 OA
ATOM     16  N   UNL     1       6.979  -3.048   7.689  0.00  0.00    -0.314 N 
ATOM     17  H   UNL     1       6.657  -2.938   8.597  0.00  0.00    +0.149 HD
BRANCH  16  18
ATOM     18  C   UNL     1       8.281  -3.674   7.446  0.00  0.00    +0.109 C 
BRANCH  18  19
ATOM     19  C   UNL     1       8.921  -4.058   8.782  0.00  0.00    +0.057 C 
BRANCH  19  20
ATOM     20  C   UNL     1      10.260  -4.702   8.531  0.00  0.00    -0.004 A 
ATOM     21  C   UNL     1      10.362  -6.078   8.457  0.00  0.00    +0.007 A 
ATOM     22  C   UNL     1      11.591  -6.670   8.227  0.00  0.00    +0.000 A 
ATOM     23  C   UNL     1      12.720  -5.886   8.071  0.00  0.00    +0.004 A 
ATOM     24  C   UNL     1      12.622  -4.510   8.144  0.00  0.00    +0.046 A 
ATOM     25  C   UNL     1      11.390  -3.914   8.369  0.00  0.00    +0.123 A 
BRANCH  25  26
ATOM     26  O   UNL     1      11.290  -2.560   8.435  0.00  0.00    -0.495 OA
ATOM     27  C   UNL     1      12.495  -1.812   8.259  0.00  0.00    +0.277 C 
ENDBRANCH  25  26
ENDBRANCH  19  20
ENDBRANCH  18  19
ENDBRANCH  16  18
ENDBRANCH  10  14
BRANCH   1  28
ATOM     28  C   UNL     1       0.185  -0.516   1.812  0.00  0.00    +0.099 C 
BRANCH  28  30
ATOM     29  C   UNL     1      -0.614   1.645   0.845  0.00  0.00    +0.008 C 
ATOM     30  C   UNL     1      -0.446   0.147   0.585  0.00  0.00    -0.005 C 
BRANCH  30  31
ATOM     31  C   UNL     1      -1.815  -0.480   0.314  0.00  0.00    +0.010 C 
BRANCH  31  32
ATOM     32  C   UNL     1      -2.204  -0.242  -1.147  0.00  0.00    -0.037 C 
ATOM     33  C   UNL     1      -1.237  -0.997  -2.062  0.00  0.00    +0.010 C 
ATOM     34  C   UNL     1      -3.628  -0.748  -1.383  0.00  0.00    +0.010 C 
ATOM     35  C   UNL     1      -2.135   1.254  -1.455  0.00  0.00    +0.010 C 
ENDBRANCH  31  32
ENDBRANCH  30  31
ENDBRANCH  28  30
ENDBRANCH   1  28
TORSDOF 9
