REMARK  Name = ZINC39084017
REMARK  6 active torsions:
REMARK  status: ('A' for Active; 'I' for Inactive)
REMARK    1  A    between atoms: C_1  and  C_2
REMARK    2  A    between atoms: C_3  and  N_12
REMARK    3  A    between atoms: C_6  and  N_11
REMARK    4  A    between atoms: C_7  and  C_8
REMARK    5  A    between atoms: N_12  and  C_13
REMARK    6  A    between atoms: N_12  and  C_14
REMARK                            x       y       z     vdW  Elec       q    Type
REMARK                         _______ _______ _______ _____ _____    ______ ____
ROOT
ATOM      1  C   UNL     1      -0.032   1.502   0.019  0.00  0.00    +0.046 C 
ATOM      2  C   UNL     1      -0.004  -0.004   0.006  0.00  0.00    -0.014 A 
ATOM      3  C   UNL     1      -0.111  -0.689  -1.190  0.00  0.00    +0.033 A 
ATOM      4  C   UNL     1      -0.086  -2.081  -1.206  0.00  0.00    +0.025 A 
ATOM      5  C   UNL     1       0.044  -2.789  -0.030  0.00  0.00    +0.025 A 
ATOM      6  C   UNL     1       0.153  -2.118   1.181  0.00  0.00    +0.039 A 
ATOM      7  C   UNL     1       0.135  -0.713   1.204  0.00  0.00    +0.088 A 
ENDROOT
BRANCH   7   8
ATOM      8  C   UNL     1       0.255   0.007   2.481  0.00  0.00    +0.389 C 
ATOM      9  O   UNL     1      -0.740   0.216   3.161  0.00  0.00    -0.241 OA
ATOM     10  O   UNL     1       1.351   0.397   2.862  0.00  0.00    -0.241 OA
ENDBRANCH   7   8
BRANCH   6  11
ATOM     11  N   UNL     1       0.284  -2.833   2.366  0.00  0.00    -0.357 N 
ATOM     12  H   UNL     1       0.377  -3.798   2.342  0.00  0.00    +0.142 HD
ATOM     13  H   UNL     1       0.282  -2.367   3.217  0.00  0.00    +0.142 HD
ENDBRANCH   6  11
BRANCH   3  14
ATOM     14  N   UNL     1      -0.244   0.019  -2.390  0.00  0.00    -0.336 N 
ATOM     15  C   UNL     1      -1.576   0.366  -2.892  0.00  0.00    +0.129 C 
ATOM     16  C   UNL     1       0.948   0.414  -3.144  0.00  0.00    +0.129 C 
ENDBRANCH   3  14
TORSDOF 3
