REMARK  Name = ZINC34571508
REMARK  6 active torsions:
REMARK  status: ('A' for Active; 'I' for Inactive)
REMARK    1  A    between atoms: C_1  and  C_2
REMARK    2  A    between atoms: C_2  and  C_28
REMARK    3  A    between atoms: N_4  and  S_5
REMARK    4  A    between atoms: S_5  and  C_8
REMARK    5  A    between atoms: C_13  and  C_22
REMARK    6  A    between atoms: N_20  and  C_21
REMARK                            x       y       z     vdW  Elec       q    Type
REMARK                         _______ _______ _______ _____ _____    ______ ____
ROOT
ATOM      1  C   UNL     1       0.063   1.601  -0.198  0.00  0.00    +0.045 C 
ATOM      2  C   UNL     1      -0.005   0.079  -0.060  0.00  0.00    +0.117 C 
ATOM      3  C   UNL     1      -1.427  -0.344  -0.103  0.00  0.00    +0.157 C 
ATOM      4  N   UNL     1      -2.277   0.409  -0.737  0.00  0.00    -0.110 NA
ATOM      5  N   UNL     1      -1.873  -1.451   0.471  0.00  0.00    -0.339 N 
ATOM      6  C   UNL     1      -1.310  -2.341   1.199  0.00  0.00    +0.057 C 
ATOM      7  C   UNL     1       0.107  -2.629   1.391  0.00  0.00    +0.020 A 
ATOM      8  C   UNL     1       0.536  -3.950   1.575  0.00  0.00    +0.012 A 
ATOM      9  C   UNL     1       1.867  -4.229   1.778  0.00  0.00    +0.001 A 
ATOM     10  C   UNL     1       2.805  -3.209   1.808  0.00  0.00    +0.002 A 
ATOM     11  C   UNL     1       2.410  -1.899   1.621  0.00  0.00    +0.024 A 
ATOM     12  C   UNL     1       1.078  -1.596   1.402  0.00  0.00    +0.040 A 
ATOM     13  N   UNL     1       0.655  -0.309   1.168  0.00  0.00    -0.316 N 
ATOM     14  C   UNL     1       0.880   0.707   2.200  0.00  0.00    +0.130 C 
ATOM     15  H   UNL     1      -2.814  -1.621   0.308  0.00  0.00    +0.167 HD
ENDROOT
BRANCH   6  16
ATOM     16  C   UNL     1      -2.235  -3.207   1.959  0.00  0.00    -0.001 A 
ATOM     17  C   UNL     1      -1.863  -3.702   3.212  0.00  0.00    +0.010 A 
ATOM     18  C   UNL     1      -2.731  -4.510   3.916  0.00  0.00    +0.001 A 
ATOM     19  C   UNL     1      -3.968  -4.831   3.384  0.00  0.00    +0.000 A 
ATOM     20  C   UNL     1      -4.343  -4.344   2.144  0.00  0.00    +0.001 A 
ATOM     21  C   UNL     1      -3.487  -3.530   1.432  0.00  0.00    +0.010 A 
ENDBRANCH   6  16
BRANCH   2  22
ATOM     22  C   UNL     1       0.723  -0.547  -1.222  0.00  0.00    -0.017 A 
ATOM     23  C   UNL     1       0.017  -0.968  -2.334  0.00  0.00    +0.006 A 
ATOM     24  C   UNL     1       0.684  -1.542  -3.399  0.00  0.00    +0.000 A 
ATOM     25  C   UNL     1       2.058  -1.694  -3.354  0.00  0.00    +0.000 A 
ATOM     26  C   UNL     1       2.764  -1.272  -2.243  0.00  0.00    +0.000 A 
ATOM     27  C   UNL     1       2.097  -0.694  -1.179  0.00  0.00    +0.006 A 
ENDBRANCH   2  22
BRANCH   4  28
ATOM     28  S   UNL     1      -3.873  -0.024  -0.811  0.00  0.00    +0.169 S 
ATOM     29  O   UNL     1      -3.885  -1.242  -1.543  0.00  0.00    -0.143 OA
ATOM     30  O   UNL     1      -4.322   0.015   0.537  0.00  0.00    -0.143 OA
BRANCH  28  31
ATOM     31  C   UNL     1      -4.670   1.291  -1.773  0.00  0.00    +0.542 C 
ATOM     32  F   UNL     1      -4.091   1.354  -3.045  0.00  0.00    -0.149 F 
ATOM     33  F   UNL     1      -6.036   1.017  -1.895  0.00  0.00    -0.149 F 
ATOM     34  F   UNL     1      -4.496   2.516  -1.121  0.00  0.00    -0.149 F 
ENDBRANCH  28  31
ENDBRANCH   4  28
TORSDOF 4
