REMARK  Name = ZINC41049114
REMARK  7 active torsions:
REMARK  status: ('A' for Active; 'I' for Inactive)
REMARK    1  A    between atoms: C_1  and  C_2
REMARK    2  A    between atoms: C_3  and  S_8
REMARK    3  A    between atoms: S_8  and  C_9
REMARK    4  A    between atoms: C_9  and  C_11
REMARK    5  A    between atoms: C_9  and  C_14
REMARK    6  A    between atoms: C_11  and  C_12
REMARK    7  A    between atoms: C_11  and  C_13
REMARK                            x       y       z     vdW  Elec       q    Type
REMARK                         _______ _______ _______ _____ _____    ______ ____
ROOT
ATOM      1  C   UNL     1      -0.018   1.503   0.010  0.00  0.00    +0.067 C 
ATOM      2  C   UNL     1       0.002  -0.004   0.002  0.00  0.00    +0.061 A 
ATOM      3  C   UNL     1       0.005  -0.682  -1.178  0.00  0.00    +0.070 A 
ATOM      4  S   UNL     1       0.031  -2.370  -0.589  0.00  0.00    -0.046 S 
ATOM      5  C   UNL     1       0.035  -1.995   1.158  0.00  0.00    +0.157 A 
ATOM      6  N   UNL     1       0.022  -0.675   1.141  0.00  0.00    -0.229 NA
ATOM      7  N   UNL     1       0.052  -2.861   2.245  0.00  0.00    -0.337 N 
ATOM      8  H   UNL     1       0.065  -3.820   2.100  0.00  0.00    +0.144 HD
ATOM      9  H   UNL     1       0.052  -2.507   3.148  0.00  0.00    +0.144 HD
ENDROOT
BRANCH   3  10
ATOM     10  S   UNL     1      -0.012  -0.066  -2.829  0.00  0.00    -0.101 S 
BRANCH  10  11
ATOM     11  C   UNL     1       0.003  -1.562  -3.855  0.00  0.00    +0.167 C 
BRANCH  11  12
ATOM     12  C   UNL     1       0.116  -1.168  -5.329  0.00  0.00    +0.007 C 
ATOM     13  C   UNL     1       1.467  -0.494  -5.575  0.00  0.00    +0.009 C 
ATOM     14  C   UNL     1       0.004  -2.420  -6.202  0.00  0.00    +0.009 C 
ENDBRANCH  11  12
BRANCH  11  15
ATOM     15  C   UNL     1      -1.273  -2.334  -3.637  0.00  0.00    +0.369 C 
ATOM     16  O   UNL     1      -2.277  -1.756  -3.259  0.00  0.00    -0.245 OA
ATOM     17  O   UNL     1      -1.300  -3.536  -3.840  0.00  0.00    -0.245 OA
ENDBRANCH  11  15
ENDBRANCH  10  11
ENDBRANCH   3  10
TORSDOF 4
