REMARK  Name = ZINC04321636
REMARK  3 active torsions:
REMARK  status: ('A' for Active; 'I' for Inactive)
REMARK    1  A    between atoms: C_9  and  C_11
REMARK    2  A    between atoms: C_11  and  C_23
REMARK    3  A    between atoms: C_12  and  C_13
REMARK                            x       y       z     vdW  Elec       q    Type
REMARK                         _______ _______ _______ _____ _____    ______ ____
ROOT
ATOM      1  C   UNL     1      -2.533   5.226   0.158  0.00  0.00    +0.095 C 
ATOM      2  C   UNL     1      -2.515   3.865   0.048  0.00  0.00    +0.032 C 
ENDROOT
BRANCH   1  11
ATOM      3  C   UNL     1      -7.434   8.647   0.699  0.00  0.00    +0.002 A 
ATOM      4  C   UNL     1      -8.075   7.418   0.635  0.00  0.00    +0.002 A 
ATOM      5  C   UNL     1      -7.356   6.263   0.503  0.00  0.00    +0.030 A 
ATOM      6  C   UNL     1      -5.960   6.315   0.432  0.00  0.00    +0.089 A 
ATOM      7  C   UNL     1      -5.311   7.561   0.497  0.00  0.00    +0.066 A 
ATOM      8  C   UNL     1      -6.058   8.722   0.631  0.00  0.00    +0.028 A 
ATOM      9  N   UNL     1      -3.958   7.297   0.402  0.00  0.00    -0.337 N 
ATOM     10  H   UNL     1      -3.219   7.971   0.416  0.00  0.00    +0.167 HD
ATOM     11  C   UNL     1      -3.817   5.939   0.285  0.00  0.00    +0.150 A 
ATOM     12  N   UNL     1      -5.000   5.369   0.298  0.00  0.00    -0.227 NA
ENDBRANCH   1  11
BRANCH   2  13
ATOM     13  C   UNL     1      -1.239   3.145   0.070  0.00  0.00    -0.002 A 
ATOM     14  C   UNL     1      -0.174   3.624   0.846  0.00  0.00    +0.059 A 
ATOM     15  C   UNL     1       1.025   2.942   0.863  0.00  0.00    +0.167 A 
ATOM     16  C   UNL     1       1.177   1.776   0.110  0.00  0.00    +0.168 A 
ATOM     17  C   UNL     1       0.123   1.299  -0.659  0.00  0.00    +0.070 A 
ATOM     18  C   UNL     1      -1.077   1.977  -0.688  0.00  0.00    +0.052 A 
ATOM     19 CL   UNL     1      -2.388   1.380  -1.657  0.00  0.00    -0.083 Cl
ATOM     20  O   UNL     1       2.441   1.299   0.298  0.00  0.00    -0.453 OA
ATOM     21  C   UNL     1       2.926   1.951   1.487  0.00  0.00    +0.466 C 
ATOM     22  O   UNL     1       2.195   3.191   1.521  0.00  0.00    -0.453 OA
ENDBRANCH   2  13
BRANCH   1  23
ATOM     23  C   UNL     1      -1.304   5.961   0.150  0.00  0.00    +0.103 C 
ATOM     24  N   UNL     1      -0.329   6.545   0.144  0.00  0.00    -0.191 NA
ENDBRANCH   1  23
TORSDOF 3
