REMARK  Name = ZINC15204723
REMARK  8 active torsions:
REMARK  status: ('A' for Active; 'I' for Inactive)
REMARK    1  A    between atoms: C_1  and  C_2
REMARK    2  A    between atoms: C_2  and  C_3
REMARK    3  A    between atoms: C_14  and  C_25
REMARK    4  A    between atoms: C_14  and  C_26
REMARK    5  A    between atoms: C_16  and  C_18
REMARK    6  A    between atoms: C_16  and  O_24
REMARK    7  A    between atoms: C_20  and  C_22
REMARK    8  A    between atoms: C_20  and  C_23
REMARK                            x       y       z     vdW  Elec       q    Type
REMARK                         _______ _______ _______ _____ _____    ______ ____
ROOT
ATOM      1  C   UNL     1       2.870   4.355  -0.820  0.00  0.00    -0.033 A 
ATOM      2  C   UNL     1       3.252   3.041  -0.981  0.00  0.00    +0.004 A 
ATOM      3  C   UNL     1       2.314   2.023  -0.886  0.00  0.00    +0.004 A 
ATOM      4  C   UNL     1       0.989   2.309  -0.633  0.00  0.00    +0.047 A 
ATOM      5  C   UNL     1       0.585   3.626  -0.461  0.00  0.00    +0.143 A 
ATOM      6  C   UNL     1       1.533   4.657  -0.558  0.00  0.00    +0.063 A 
ATOM      7  C   UNL     1       1.091   6.051  -0.380  0.00  0.00    +0.146 A 
ATOM      8  C   UNL     1      -0.227   6.280  -0.124  0.00  0.00    +0.089 A 
ATOM      9  C   UNL     1      -1.116   5.193  -0.043  0.00  0.00    +0.345 A 
ATOM     10  O   UNL     1      -2.294   5.409   0.183  0.00  0.00    -0.245 OA
ATOM     11  O   UNL     1      -0.707   3.926  -0.208  0.00  0.00    -0.422 OA
ATOM     12  C   UNL     1      -0.757   7.676   0.078  0.00  0.00    +0.027 C 
ATOM     13  C   UNL     1       0.242   8.693  -0.480  0.00  0.00    +0.097 C 
ATOM     14  C   UNL     1       1.638   8.330   0.042  0.00  0.00    +0.240 C 
ATOM     15  O   UNL     1       1.993   7.049  -0.481  0.00  0.00    -0.457 OA
ATOM     16  C   UNL     1      -0.963   7.931   1.572  0.00  0.00    +0.021 C 
ENDROOT
BRANCH  14  17
ATOM     17  C   UNL     1       2.652   9.377  -0.424  0.00  0.00    +0.222 C 
ATOM     18  C   UNL     1       2.916   9.494  -1.927  0.00  0.00    +0.097 C 
ATOM     19  O   UNL     1       2.167  10.473  -1.203  0.00  0.00    -0.359 OA
ATOM     20  C   UNL     1       4.330   9.867  -2.375  0.00  0.00    +0.044 C 
ATOM     21  C   UNL     1       2.149   8.555  -2.860  0.00  0.00    +0.044 C 
ENDBRANCH  14  17
BRANCH   1  23
ATOM     22  C   UNL     1       4.290   5.920   0.478  0.00  0.00    +0.009 C 
ATOM     23  C   UNL     1       3.891   5.458  -0.925  0.00  0.00    +0.032 C 
ENDBRANCH   1  23
BRANCH  14  24
ATOM     24  O   UNL     1       1.621   8.278   1.470  0.00  0.00    -0.353 OA
ATOM     25  H   UNL     1       2.448   7.965   1.863  0.00  0.00    +0.214 HD
ENDBRANCH  14  24
BRANCH  12  26
ATOM     26  C   UNL     1      -2.074   7.821  -0.641  0.00  0.00    -0.023 C 
ATOM     27  C   UNL     1      -3.133   8.237   0.008  0.00  0.00    +0.005 C 
ENDBRANCH  12  26
TORSDOF 4
