REMARK  Name = ZINC25083377
REMARK  9 active torsions:
REMARK  status: ('A' for Active; 'I' for Inactive)
REMARK    1  A    between atoms: C_1  and  C_2
REMARK    2  A    between atoms: C_2  and  C_3
REMARK    3  A    between atoms: C_2  and  C_4
REMARK    4  A    between atoms: N_6  and  C_7
REMARK    5  A    between atoms: C_7  and  C_8
REMARK    6  A    between atoms: C_8  and  N_9
REMARK    7  A    between atoms: C_10  and  C_12
REMARK    8  A    between atoms: N_17  and  S_18
REMARK    9  A    between atoms: S_18  and  C_21
REMARK                            x       y       z     vdW  Elec       q    Type
REMARK                         _______ _______ _______ _____ _____    ______ ____
ROOT
ATOM      1  C   UNL     1       0.716  -1.966  -1.053  0.00  0.00    +0.165 C 
ATOM      2  C   UNL     1       1.527  -2.543   0.126  0.00  0.00    +0.031 C 
ATOM      3  C   UNL     1       2.006  -3.916  -0.424  0.00  0.00    +0.019 C 
ATOM      4  C   UNL     1       2.248  -3.588  -1.918  0.00  0.00    +0.110 C 
ATOM      5  N   UNL     1       1.175  -2.642  -2.275  0.00  0.00    -0.165 NA
ENDROOT
BRANCH   1   7
ATOM      6  N   UNL     1       0.187   0.380  -0.475  0.00  0.00    -0.312 N 
ATOM      7  C   UNL     1       0.958  -0.483  -1.165  0.00  0.00    +0.232 C 
ATOM      8  O   UNL     1       1.848  -0.067  -1.876  0.00  0.00    -0.274 OA
ATOM      9  H   UNL     1      -0.620   0.002   0.170  0.00  0.00    +0.149 HD
BRANCH   6  10
ATOM     10  C   UNL     1       0.423   1.821  -0.584  0.00  0.00    +0.123 C 
BRANCH  10  11
ATOM     11  C   UNL     1      -0.583   2.571   0.293  0.00  0.00    +0.123 C 
BRANCH  11  14
ATOM     12  C   UNL     1      -1.119   4.876   0.874  0.00  0.00    +0.216 C 
ATOM     13  O   UNL     1      -2.008   4.459   1.585  0.00  0.00    -0.276 OA
ATOM     14  N   UNL     1      -0.347   4.012   0.184  0.00  0.00    -0.314 N 
ATOM     15  H   UNL     1       0.460   4.390  -0.461  0.00  0.00    +0.149 HD
BRANCH  12  17
ATOM     16  C   UNL     1      -1.881   7.108   1.638  0.00  0.00    +0.017 C 
ATOM     17  C   UNL     1      -0.876   6.359   0.761  0.00  0.00    +0.069 C 
ATOM     18  C   UNL     1       0.546   6.680   1.228  0.00  0.00    +0.017 C 
ENDBRANCH  12  17
ENDBRANCH  11  14
ENDBRANCH  10  11
ENDBRANCH   6  10
ENDBRANCH   1   7
BRANCH   5  19
ATOM     19  S   UNL     1       0.583  -2.384  -3.800  0.00  0.00    +0.062 S 
ATOM     20  O   UNL     1      -0.104  -1.141  -3.765  0.00  0.00    -0.153 OA
ATOM     21  O   UNL     1       1.655  -2.637  -4.699  0.00  0.00    -0.153 OA
BRANCH  19  22
ATOM     22  C   UNL     1      -0.632  -3.623  -4.104  0.00  0.00    +0.106 A 
ATOM     23  C   UNL     1      -0.253  -4.857  -4.598  0.00  0.00    +0.029 A 
ATOM     24  C   UNL     1      -1.205  -5.831  -4.832  0.00  0.00    +0.017 A 
ATOM     25  C   UNL     1      -2.540  -5.567  -4.582  0.00  0.00    +0.018 A 
ATOM     26  C   UNL     1      -2.920  -4.330  -4.093  0.00  0.00    +0.017 A 
ATOM     27  C   UNL     1      -1.966  -3.359  -3.854  0.00  0.00    +0.029 A 
ATOM     28 BR   UNL     1      -3.845  -6.896  -4.908  0.00  0.00    -0.050 Br
ENDBRANCH  19  22
ENDBRANCH   5  19
TORSDOF 7
