REMARK  Name = ZINC16602041
REMARK  9 active torsions:
REMARK  status: ('A' for Active; 'I' for Inactive)
REMARK    1  A    between atoms: C_1  and  C_2
REMARK    2  A    between atoms: C_2  and  C_3
REMARK    3  A    between atoms: C_2  and  C_4
REMARK    4  A    between atoms: C_8  and  C_32
REMARK    5  A    between atoms: C_9  and  N_10
REMARK    6  A    between atoms: C_17  and  C_20
REMARK    7  A    between atoms: C_22  and  C_25
REMARK    8  A    between atoms: C_32  and  C_33
REMARK    9  A    between atoms: C_32  and  C_34
REMARK                            x       y       z     vdW  Elec       q    Type
REMARK                         _______ _______ _______ _____ _____    ______ ____
ROOT
ATOM      1  N   UNL     1       3.663   1.986   0.272  0.00  0.00    -0.269 N 
ATOM      2  C   UNL     1       3.678   3.334   0.263  0.00  0.00    +0.306 C 
ATOM      3  O   UNL     1       2.632   3.953   0.250  0.00  0.00    -0.252 OA
ATOM      4  N   UNL     1       4.853   3.995   0.270  0.00  0.00    -0.285 N 
ATOM      5  C   UNL     1       6.122   3.265   0.397  0.00  0.00    +0.109 C 
ATOM      6  C   UNL     1       7.040   3.667  -0.762  0.00  0.00    +0.020 C 
ATOM      7  C   UNL     1       7.189   5.189  -0.785  0.00  0.00    +0.016 C 
ATOM      8  C   UNL     1       5.820   5.835  -1.008  0.00  0.00    +0.095 C 
ATOM      9  C   UNL     1       4.889   5.458   0.143  0.00  0.00    +0.122 C 
ATOM     10  H   UNL     1       4.497   1.492   0.324  0.00  0.00    +0.156 HD
ENDROOT
BRANCH   1  16
ATOM     11  C   UNL     1       2.125   0.357   1.174  0.00  0.00    -0.023 A 
ATOM     12  C   UNL     1       0.923  -0.319   1.106  0.00  0.00    +0.006 A 
ATOM     13  C   UNL     1       0.039  -0.059   0.075  0.00  0.00    +0.001 A 
ATOM     14  C   UNL     1       0.355   0.879  -0.890  0.00  0.00    +0.006 A 
ATOM     15  C   UNL     1       1.556   1.559  -0.828  0.00  0.00    -0.023 A 
ATOM     16  C   UNL     1       2.446   1.299   0.206  0.00  0.00    +0.042 A 
BRANCH  11  18
ATOM     17  C   UNL     1       2.378   0.264   3.639  0.00  0.00    +0.012 C 
ATOM     18  C   UNL     1       3.088   0.072   2.298  0.00  0.00    +0.015 C 
ATOM     19  C   UNL     1       3.589  -1.369   2.188  0.00  0.00    +0.012 C 
ENDBRANCH  11  18
BRANCH  15  20
ATOM     20  C   UNL     1       1.900   2.580  -1.881  0.00  0.00    +0.015 C 
ATOM     21  C   UNL     1       2.121   1.876  -3.222  0.00  0.00    +0.012 C 
ATOM     22  C   UNL     1       0.752   3.582  -2.015  0.00  0.00    +0.012 C 
ENDBRANCH  15  20
ENDBRANCH   1  16
BRANCH   8  23
ATOM     23  C   UNL     1       5.973   7.333  -1.064  0.00  0.00    +0.232 A 
ATOM     24  N   UNL     1       5.663   8.110  -2.072  0.00  0.00    -0.191 NA
ATOM     25  C   UNL     1       5.967   9.365  -1.670  0.00  0.00    +0.202 A 
ATOM     26  N   UNL     1       6.447   9.276  -0.457  0.00  0.00    -0.056 NA
ATOM     27  O   UNL     1       6.457   8.118  -0.096  0.00  0.00    -0.337 OA
BRANCH  25  28
ATOM     28  C   UNL     1       5.794  10.609  -2.460  0.00  0.00    +0.023 A 
ATOM     29  C   UNL     1       5.272  10.550  -3.751  0.00  0.00    +0.013 A 
ATOM     30  C   UNL     1       5.109  11.711  -4.480  0.00  0.00    +0.016 A 
ATOM     31  C   UNL     1       5.473  12.930  -3.935  0.00  0.00    +0.018 A 
ATOM     32  C   UNL     1       5.996  12.993  -2.655  0.00  0.00    +0.016 A 
ATOM     33  C   UNL     1       6.159  11.839  -1.916  0.00  0.00    +0.013 A 
ATOM     34 BR   UNL     1       5.254  14.515  -4.943  0.00  0.00    -0.050 Br
ENDBRANCH  25  28
ENDBRANCH   8  23
TORSDOF 5
