REMARK  Name = ZINC02310973
REMARK  10 active torsions:
REMARK  status: ('A' for Active; 'I' for Inactive)
REMARK    1  A    between atoms: C_1  and  C_2
REMARK    2  A    between atoms: C_2  and  C_3
REMARK    3  A    between atoms: C_3  and  C_4
REMARK    4  A    between atoms: C_4  and  C_5
REMARK    5  A    between atoms: C_5  and  N_6
REMARK    6  A    between atoms: C_7  and  C_9
REMARK    7  A    between atoms: N_20  and  C_23
REMARK    8  A    between atoms: C_21  and  N_22
REMARK    9  A    between atoms: C_23  and  C_24
REMARK   10  A    between atoms: C_24  and  C_25
REMARK                            x       y       z     vdW  Elec       q    Type
REMARK                         _______ _______ _______ _____ _____    ______ ____
ROOT
ATOM      1  C   UNL     1       1.556  -2.055  -0.025  0.00  0.00    +0.103 A 
ATOM      2  C   UNL     1       1.157  -0.638  -0.013  0.00  0.00    +0.122 A 
ATOM      3  C   UNL     1       2.413   0.118  -0.021  0.00  0.00    +0.162 A 
ATOM      4  N   UNL     1       2.376   1.433  -0.013  0.00  0.00    -0.226 NA
ATOM      5  C   UNL     1       1.197   2.067   0.002  0.00  0.00    +0.092 A 
ATOM      6  C   UNL     1       1.149   3.474   0.010  0.00  0.00    +0.030 A 
ATOM      7  C   UNL     1      -0.053   4.110   0.025  0.00  0.00    +0.002 A 
ATOM      8  C   UNL     1      -1.246   3.389   0.033  0.00  0.00    +0.002 A 
ATOM      9  C   UNL     1      -1.240   2.029   0.031  0.00  0.00    +0.030 A 
ATOM     10  C   UNL     1      -0.016   1.334   0.009  0.00  0.00    +0.090 A 
ATOM     11  N   UNL     1       0.002  -0.004   0.002  0.00  0.00    -0.241 NA
ATOM     12  N   UNL     1       3.439  -0.805  -0.037  0.00  0.00    -0.312 N 
ATOM     13  C   UNL     1       2.946  -2.074  -0.039  0.00  0.00    +0.112 A 
ENDROOT
BRANCH   1  15
ATOM     14  N   UNL     1       0.267  -3.755   1.146  0.00  0.00    -0.311 N 
ATOM     15  C   UNL     1       0.666  -3.214  -0.022  0.00  0.00    +0.250 C 
ATOM     16  O   UNL     1       0.284  -3.691  -1.075  0.00  0.00    -0.270 OA
ATOM     17  H   UNL     1       0.571  -3.374   1.985  0.00  0.00    +0.149 HD
BRANCH  14  18
ATOM     18  C   UNL     1      -0.625  -4.917   1.149  0.00  0.00    +0.104 C 
BRANCH  18  19
ATOM     19  C   UNL     1      -0.921  -5.329   2.593  0.00  0.00    +0.019 C 
BRANCH  19  20
ATOM     20  C   UNL     1      -1.853  -6.542   2.596  0.00  0.00    +0.001 C 
BRANCH  20  22
ATOM     21  C   UNL     1      -3.081  -8.168   4.042  0.00  0.00    +0.004 C 
ATOM     22  C   UNL     1      -2.149  -6.954   4.039  0.00  0.00    -0.003 C 
ENDBRANCH  20  22
ENDBRANCH  19  20
ENDBRANCH  18  19
ENDBRANCH  14  18
ENDBRANCH   1  15
BRANCH  13  23
ATOM     23  N   UNL     1       3.713  -3.209  -0.054  0.00  0.00    -0.344 N 
ATOM     24  H   UNL     1       4.681  -3.142  -0.064  0.00  0.00    +0.144 HD
ATOM     25  H   UNL     1       3.288  -4.081  -0.054  0.00  0.00    +0.144 HD
ENDBRANCH  13  23
BRANCH  12  26
ATOM     26  C   UNL     1       4.864  -0.465  -0.050  0.00  0.00    +0.130 C 
BRANCH  26  27
ATOM     27  C   UNL     1       5.375  -0.354   1.388  0.00  0.00    +0.057 C 
BRANCH  27  28
ATOM     28  C   UNL     1       6.841  -0.005   1.374  0.00  0.00    -0.046 A 
ATOM     29  C   UNL     1       7.791  -1.009   1.365  0.00  0.00    +0.004 A 
ATOM     30  C   UNL     1       9.135  -0.688   1.347  0.00  0.00    +0.000 A 
ATOM     31  C   UNL     1       9.530   0.637   1.350  0.00  0.00    +0.000 A 
ATOM     32  C   UNL     1       8.580   1.641   1.365  0.00  0.00    +0.000 A 
ATOM     33  C   UNL     1       7.236   1.320   1.377  0.00  0.00    +0.004 A 
ENDBRANCH  27  28
ENDBRANCH  26  27
ENDBRANCH  12  26
TORSDOF 9
