REMARK  Name = ZINC09316633
REMARK  13 active torsions:
REMARK  status: ('A' for Active; 'I' for Inactive)
REMARK    1  A    between atoms: C_1  and  C_2
REMARK    2  A    between atoms: C_5  and  C_28
REMARK    3  A    between atoms: C_6  and  O_8
REMARK    4  A    between atoms: O_8  and  C_9
REMARK    5  A    between atoms: C_9  and  C_10
REMARK    6  A    between atoms: N_12  and  N_13
REMARK    7  A    between atoms: C_14  and  C_16
REMARK    8  A    between atoms: C_18  and  S_24
REMARK    9  A    between atoms: C_21  and  O_22
REMARK   10  A    between atoms: O_22  and  C_23
REMARK   11  A    between atoms: S_24  and  N_27
REMARK   12  A    between atoms: C_28  and  C_29
REMARK   13  A    between atoms: C_28  and  C_30
REMARK                            x       y       z     vdW  Elec       q    Type
REMARK                         _______ _______ _______ _____ _____    ______ ____
ROOT
ATOM      1  N   UNL     1       2.387   5.298   0.007  0.00  0.00    -0.230 N 
ATOM      2  C   UNL     1       2.416   3.951  -0.000  0.00  0.00    +0.264 C 
ATOM      3  O   UNL     1       3.482   3.366  -0.014  0.00  0.00    -0.269 OA
ATOM      4  H   UNL     1       1.537   5.765   0.018  0.00  0.00    +0.173 HD
ENDROOT
BRANCH   2   5
ATOM      5  C   UNL     1       1.154   3.186   0.008  0.00  0.00    +0.082 A 
ATOM      6  C   UNL     1      -0.072   3.854   0.023  0.00  0.00    +0.045 A 
ATOM      7  C   UNL     1      -1.247   3.134   0.031  0.00  0.00    +0.106 A 
ATOM      8  C   UNL     1      -1.218   1.749   0.017  0.00  0.00    +0.032 A 
ATOM      9  C   UNL     1      -0.013   1.076   0.008  0.00  0.00    +0.048 A 
ATOM     10  C   UNL     1       1.180   1.785   0.000  0.00  0.00    +0.132 A 
BRANCH   7  11
ATOM     11  S   UNL     1      -2.793   3.978   0.050  0.00  0.00    +0.056 S 
ATOM     12  O   UNL     1      -3.742   3.077   0.605  0.00  0.00    -0.153 OA
ATOM     13  O   UNL     1      -2.548   5.263   0.605  0.00  0.00    -0.153 OA
BRANCH  11  14
ATOM     14  N   UNL     1      -3.238   4.221  -1.527  0.00  0.00    -0.204 NA
ATOM     15  H   UNL     1      -2.666   3.909  -2.246  0.00  0.00    +0.144 HD
ATOM     16  H   UNL     1      -4.070   4.676  -1.732  0.00  0.00    +0.144 HD
ENDBRANCH  11  14
ENDBRANCH   7  11
BRANCH  10  17
ATOM     17  O   UNL     1       2.365   1.125  -0.015  0.00  0.00    -0.494 OA
ATOM     18  C   UNL     1       2.312  -0.303  -0.023  0.00  0.00    +0.277 C 
ENDBRANCH  10  17
ENDBRANCH   2   5
BRANCH   1  21
ATOM     19  C   UNL     1       3.556   7.372   0.007  0.00  0.00    +0.267 C 
ATOM     20  O   UNL     1       2.493   7.956   0.020  0.00  0.00    -0.271 OA
ATOM     21  N   UNL     1       3.585   6.025  -0.001  0.00  0.00    -0.231 N 
ATOM     22  H   UNL     1       4.435   5.558  -0.012  0.00  0.00    +0.173 HD
BRANCH  19  23
ATOM     23  C   UNL     1       4.845   8.153  -0.002  0.00  0.00    +0.326 C 
BRANCH  23  24
ATOM     24  O   UNL     1       4.554   9.552   0.009  0.00  0.00    -0.482 OA
BRANCH  24  30
ATOM     25  C   UNL     1       9.388  10.225  -0.035  0.00  0.00    +0.044 C 
ATOM     26  C   UNL     1       7.982  10.768  -0.019  0.00  0.00    -0.047 A 
ATOM     27  C   UNL     1       7.771  12.135  -0.010  0.00  0.00    +0.004 A 
ATOM     28  C   UNL     1       6.483  12.637   0.006  0.00  0.00    +0.008 A 
ATOM     29  C   UNL     1       5.404  11.774   0.012  0.00  0.00    -0.003 A 
ATOM     30  C   UNL     1       5.613  10.403   0.003  0.00  0.00    +0.125 A 
ATOM     31  C   UNL     1       6.907   9.902  -0.007  0.00  0.00    +0.049 A 
BRANCH  29  32
ATOM     32  C   UNL     1       4.000  12.322   0.028  0.00  0.00    +0.016 C 
ATOM     33  C   UNL     1       3.799  13.173   1.284  0.00  0.00    +0.012 C 
ATOM     34  C   UNL     1       3.775  13.186  -1.214  0.00  0.00    +0.012 C 
ENDBRANCH  29  32
ENDBRANCH  24  30
ENDBRANCH  23  24
ENDBRANCH  19  23
ENDBRANCH   1  21
TORSDOF 9
