REMARK  Name = ZINC44889916
REMARK  10 active torsions:
REMARK  status: ('A' for Active; 'I' for Inactive)
REMARK    1  A    between atoms: C_1  and  O_2
REMARK    2  A    between atoms: O_2  and  C_3
REMARK    3  A    between atoms: C_3  and  C_5
REMARK    4  A    between atoms: C_5  and  C_6
REMARK    5  A    between atoms: C_6  and  C_7
REMARK    6  A    between atoms: C_7  and  C_9
REMARK    7  A    between atoms: C_7  and  N_13
REMARK    8  A    between atoms: C_9  and  O_11
REMARK    9  A    between atoms: O_11  and  C_12
REMARK   10  A    between atoms: C_25  and  C_27
REMARK                            x       y       z     vdW  Elec       q    Type
REMARK                         _______ _______ _______ _____ _____    ______ ____
ROOT
ATOM      1  N   UNL     1       0.809  -6.579   1.626  0.00  0.00    -0.286 N 
ATOM      2  C   UNL     1      -0.178  -5.834   2.162  0.00  0.00    +0.304 C 
ATOM      3  O   UNL     1       0.068  -4.732   2.614  0.00  0.00    -0.253 OA
ATOM      4  N   UNL     1      -1.439  -6.311   2.197  0.00  0.00    -0.273 N 
ATOM      5  C   UNL     1      -2.548  -5.473   2.677  0.00  0.00    +0.116 C 
ATOM      6  C   UNL     1      -3.526  -5.226   1.521  0.00  0.00    +0.074 C 
ATOM      7  C   UNL     1      -3.769  -6.528   0.805  0.00  0.00    +0.040 A 
ATOM      8  C   UNL     1      -2.981  -7.620   0.900  0.00  0.00    +0.062 A 
ATOM      9  N   UNL     1      -3.501  -8.577   0.128  0.00  0.00    -0.348 N 
ATOM     10  C   UNL     1      -4.587  -8.123  -0.442  0.00  0.00    +0.171 A 
ATOM     11  N   UNL     1      -4.788  -6.846  -0.042  0.00  0.00    -0.349 N 
ATOM     12  H   UNL     1      -5.519  -6.267  -0.308  0.00  0.00    +0.166 HD
ATOM     13  C   UNL     1      -1.739  -7.683   1.750  0.00  0.00    +0.156 C 
ATOM     14  H   UNL     1       0.629  -7.487   1.337  0.00  0.00    +0.151 HD
ATOM     15  H   UNL     1      -3.133  -9.466   0.010  0.00  0.00    +0.167 HD
ENDROOT
BRANCH  13  16
ATOM     16  C   UNL     1      -1.986  -8.569   2.944  0.00  0.00    -0.020 A 
ATOM     17  C   UNL     1      -3.064  -8.325   3.774  0.00  0.00    +0.009 A 
ATOM     18  C   UNL     1      -3.292  -9.137   4.869  0.00  0.00    +0.040 A 
ATOM     19  C   UNL     1      -2.439 -10.195   5.136  0.00  0.00    +0.142 A 
ATOM     20  C   UNL     1      -1.358 -10.438   4.304  0.00  0.00    +0.076 A 
ATOM     21  C   UNL     1      -1.136  -9.627   3.206  0.00  0.00    +0.028 A 
ATOM     22 CL   UNL     1      -0.288 -11.764   4.636  0.00  0.00    -0.081 Cl
ATOM     23  F   UNL     1      -2.660 -10.989   6.207  0.00  0.00    -0.204 F 
ENDBRANCH  13  16
BRANCH   1  24
ATOM     24  C   UNL     1       2.154  -6.016   1.480  0.00  0.00    +0.184 C 
BRANCH  24  25
ATOM     25  C   UNL     1       2.236  -5.239   0.192  0.00  0.00    +0.327 C 
ATOM     26  O   UNL     1       1.271  -5.163  -0.531  0.00  0.00    -0.249 OA
BRANCH  25  27
ATOM     27  O   UNL     1       3.382  -4.632  -0.153  0.00  0.00    -0.467 OA
ATOM     28  C   UNL     1       3.389  -3.913  -1.388  0.00  0.00    +0.280 C 
ENDBRANCH  25  27
ENDBRANCH  24  25
BRANCH  24  29
ATOM     29  C   UNL     1       3.181  -7.150   1.459  0.00  0.00    +0.045 C 
BRANCH  29  30
ATOM     30  C   UNL     1       3.184  -7.860   2.814  0.00  0.00    +0.123 C 
BRANCH  30  31
ATOM     31  C   UNL     1       4.196  -8.977   2.793  0.00  0.00    +0.307 C 
ATOM     32  O   UNL     1       4.848  -9.183   1.797  0.00  0.00    -0.251 OA
BRANCH  31  34
ATOM     33  C   UNL     1       5.349 -10.782   3.792  0.00  0.00    +0.280 C 
ATOM     34  O   UNL     1       4.373  -9.742   3.882  0.00  0.00    -0.468 OA
ENDBRANCH  31  34
ENDBRANCH  30  31
ENDBRANCH  29  30
ENDBRANCH  24  29
ENDBRANCH   1  24
TORSDOF 8
