REMARK  Name = ZINC64185873
REMARK  5 active torsions:
REMARK  status: ('A' for Active; 'I' for Inactive)
REMARK    1  A    between atoms: C_7  and  C_10
REMARK    2  A    between atoms: C_10  and  C_12
REMARK    3  A    between atoms: C_10  and  C_30
REMARK    4  A    between atoms: C_12  and  N_13
REMARK    5  A    between atoms: C_19  and  C_22
REMARK                            x       y       z     vdW  Elec       q    Type
REMARK                         _______ _______ _______ _____ _____    ______ ____
ROOT
ATOM      1  N   UNL     1      -0.365  -4.832  -1.020  0.00  0.00    -0.299 N 
ATOM      2  C   UNL     1      -0.366  -5.664  -2.079  0.00  0.00    +0.302 C 
ATOM      3  O   UNL     1       0.268  -5.379  -3.077  0.00  0.00    -0.253 OA
ATOM      4  N   UNL     1      -1.069  -6.813  -2.033  0.00  0.00    -0.286 N 
ATOM      5  C   UNL     1      -0.992  -7.783  -3.134  0.00  0.00    +0.110 C 
ATOM      6  C   UNL     1      -2.412  -8.097  -3.616  0.00  0.00    +0.032 C 
ATOM      7  C   UNL     1      -3.258  -8.560  -2.428  0.00  0.00    +0.078 C 
ATOM      8  C   UNL     1      -3.337  -7.441  -1.388  0.00  0.00    +0.032 C 
ATOM      9  C   UNL     1      -1.923  -7.122  -0.878  0.00  0.00    +0.110 C 
ATOM     10  H   UNL     1      -0.927  -5.022  -0.253  0.00  0.00    +0.150 HD
ENDROOT
BRANCH   7  11
ATOM     11  C   UNL     1      -4.646  -8.902  -2.904  0.00  0.00    +0.219 C 
ATOM     12  O   UNL     1      -5.089  -8.382  -3.906  0.00  0.00    -0.275 OA
ATOM     13  N   UNL     1      -5.396  -9.787  -2.216  0.00  0.00    -0.297 N 
ATOM     14  C   UNL     1      -4.927 -10.344  -0.937  0.00  0.00    +0.136 C 
ATOM     15  C   UNL     1      -6.043 -10.178   0.100  0.00  0.00    +0.179 C 
ATOM     16  O   UNL     1      -7.257 -10.723  -0.423  0.00  0.00    -0.377 OA
ATOM     17  C   UNL     1      -7.736 -10.064  -1.597  0.00  0.00    +0.179 C 
ATOM     18  C   UNL     1      -6.709 -10.219  -2.719  0.00  0.00    +0.136 C 
ENDBRANCH   7  11
BRANCH   1  19
ATOM     19  C   UNL     1       0.485  -3.638  -1.026  0.00  0.00    +0.114 C 
BRANCH  19  20
ATOM     20  C   UNL     1       0.392  -2.939   0.331  0.00  0.00    +0.048 C 
BRANCH  20  27
ATOM     21  C   UNL     1      -2.645  -3.966   3.614  0.00  0.00    +0.001 A 
ATOM     22  C   UNL     1      -3.881  -3.324   3.457  0.00  0.00    +0.002 A 
ATOM     23  C   UNL     1      -4.142  -2.485   2.432  0.00  0.00    +0.026 A 
ATOM     24  C   UNL     1      -3.147  -2.216   1.452  0.00  0.00    +0.043 A 
ATOM     25  N   UNL     1      -3.156  -1.455   0.385  0.00  0.00    -0.380 N 
ATOM     26  C   UNL     1      -1.847  -1.552  -0.270  0.00  0.00    +0.145 C 
ATOM     27  C   UNL     1      -1.029  -2.502   0.576  0.00  0.00    -0.036 C 
ATOM     28  C   UNL     1      -1.832  -2.881   1.596  0.00  0.00    -0.001 A 
ATOM     29  C   UNL     1      -1.630  -3.779   2.739  0.00  0.00    +0.010 A 
ATOM     30  H   UNL     1      -3.903  -0.918   0.079  0.00  0.00    +0.160 HD
ENDBRANCH  20  27
BRANCH  20  31
ATOM     31  C   UNL     1       1.310  -1.715   0.338  0.00  0.00    +0.063 C 
ATOM     32  C   UNL     1       2.803  -2.122   0.219  0.00  0.00    +0.042 C 
ATOM     33  C   UNL     1       3.659  -1.258   1.088  0.00  0.00    -0.019 C 
ATOM     34  C   UNL     1       3.111  -0.564   2.067  0.00  0.00    +0.036 C 
ATOM     35  S   UNL     1       1.363  -0.919   1.999  0.00  0.00    -0.129 S 
ENDBRANCH  20  31
ENDBRANCH  19  20
ENDBRANCH   1  19
TORSDOF 5
