REMARK  Name = ZINC09443381
REMARK  8 active torsions:
REMARK  status: ('A' for Active; 'I' for Inactive)
REMARK    1  A    between atoms: C_12  and  C_20
REMARK    2  A    between atoms: C_13  and  N_17
REMARK    3  A    between atoms: C_20  and  O_22
REMARK    4  A    between atoms: O_22  and  C_23
REMARK    5  A    between atoms: C_23  and  C_24
REMARK    6  A    between atoms: N_26  and  C_27
REMARK    7  A    between atoms: C_32  and  O_33
REMARK    8  A    between atoms: O_33  and  C_34
REMARK                            x       y       z     vdW  Elec       q    Type
REMARK                         _______ _______ _______ _____ _____    ______ ____
ROOT
ATOM      1  C   UNL     1     -15.440  -3.829  -1.008  0.00  0.00    +0.001 A 
ATOM      2  C   UNL     1     -15.646  -2.461  -1.014  0.00  0.00    +0.001 A 
ATOM      3  C   UNL     1     -14.573  -1.590  -0.927  0.00  0.00    +0.012 A 
ATOM      4  C   UNL     1     -13.279  -2.092  -0.831  0.00  0.00    +0.033 A 
ATOM      5  C   UNL     1     -13.069  -3.483  -0.823  0.00  0.00    +0.033 A 
ATOM      6  C   UNL     1     -14.160  -4.344  -0.912  0.00  0.00    +0.012 A 
ATOM      7  C   UNL     1     -11.699  -4.024  -0.721  0.00  0.00    +0.195 C 
ATOM      8  O   UNL     1     -11.518  -5.226  -0.715  0.00  0.00    -0.287 OA
ATOM      9  C   UNL     1     -10.545  -3.101  -0.626  0.00  0.00    +0.035 A 
ATOM     10  C   UNL     1      -9.252  -3.607  -0.529  0.00  0.00    +0.013 A 
ATOM     11  C   UNL     1      -8.175  -2.746  -0.441  0.00  0.00    +0.018 A 
ATOM     12  C   UNL     1      -8.377  -1.365  -0.447  0.00  0.00    +0.090 A 
ATOM     13  C   UNL     1      -9.670  -0.847  -0.539  0.00  0.00    +0.152 A 
ATOM     14  C   UNL     1     -10.756  -1.710  -0.633  0.00  0.00    +0.064 A 
ATOM     15  C   UNL     1     -12.128  -1.170  -0.736  0.00  0.00    +0.197 C 
ATOM     16  O   UNL     1     -12.309   0.032  -0.742  0.00  0.00    -0.287 OA
ENDROOT
BRANCH  13  17
ATOM     17  N   UNL     1      -9.884   0.618  -0.539  0.00  0.00    +0.058 N 
ATOM     18  O   UNL     1      -9.894   1.232  -1.591  0.00  0.00    -0.126 OA
ATOM     19  O   UNL     1     -10.051   1.210   0.512  0.00  0.00    -0.126 OA
ENDBRANCH  13  17
BRANCH  12  20
ATOM     20  C   UNL     1      -7.220  -0.449  -0.351  0.00  0.00    +0.342 C 
ATOM     21  O   UNL     1      -7.394   0.753  -0.357  0.00  0.00    -0.245 OA
BRANCH  20  22
ATOM     22  O   UNL     1      -5.972  -0.948  -0.258  0.00  0.00    -0.452 OA
BRANCH  22  23
ATOM     23  C   UNL     1      -4.884   0.010  -0.167  0.00  0.00    +0.328 C 
BRANCH  23  24
ATOM     24  C   UNL     1      -3.573  -0.727  -0.069  0.00  0.00    +0.255 C 
ATOM     25  O   UNL     1      -3.557  -1.940  -0.076  0.00  0.00    -0.272 OA
ATOM     26  N   UNL     1      -2.418  -0.038   0.025  0.00  0.00    -0.280 N 
ATOM     27  H   UNL     1      -2.436   0.928   0.111  0.00  0.00    +0.155 HD
BRANCH  26  28
ATOM     28  C   UNL     1      -1.193  -0.718  -0.002  0.00  0.00    +0.076 A 
ATOM     29  C   UNL     1      -1.099  -1.958  -0.616  0.00  0.00    +0.027 A 
ATOM     30  C   UNL     1       0.111  -2.626  -0.642  0.00  0.00    +0.002 A 
ATOM     31  C   UNL     1       1.229  -2.061  -0.056  0.00  0.00    +0.004 A 
ATOM     32  C   UNL     1       1.143  -0.823   0.554  0.00  0.00    +0.048 A 
ATOM     33  C   UNL     1      -0.067  -0.149   0.589  0.00  0.00    +0.148 A 
BRANCH  33  34
ATOM     34  O   UNL     1      -0.153   1.066   1.192  0.00  0.00    -0.432 OA
BRANCH  34  35
ATOM     35  C   UNL     1       1.042   1.587   1.776  0.00  0.00    +0.541 C 
ATOM     36  F   UNL     1       1.500   0.708   2.764  0.00  0.00    -0.166 F 
ATOM     37  F   UNL     1       2.022   1.727   0.787  0.00  0.00    -0.166 F 
ENDBRANCH  34  35
ENDBRANCH  33  34
ENDBRANCH  26  28
ENDBRANCH  23  24
ENDBRANCH  22  23
ENDBRANCH  20  22
ENDBRANCH  12  20
TORSDOF 8
