REMARK  Name = ZINC36353581
REMARK  6 active torsions:
REMARK  status: ('A' for Active; 'I' for Inactive)
REMARK    1  A    between atoms: C_4  and  C_7
REMARK    2  A    between atoms: C_7  and  N_8
REMARK    3  A    between atoms: C_10  and  C_20
REMARK    4  A    between atoms: C_15  and  C_17
REMARK    5  A    between atoms: C_20  and  C_22
REMARK    6  A    between atoms: C_20  and  N_25
REMARK                            x       y       z     vdW  Elec       q    Type
REMARK                         _______ _______ _______ _____ _____    ______ ____
ROOT
ATOM      1  N   UNL     1       4.152  -0.952   1.338  0.00  0.00    -0.342 N 
ATOM      2  C   UNL     1       5.009  -0.151   2.042  0.00  0.00    +0.089 A 
ATOM      3  C   UNL     1       5.206  -0.657   3.269  0.00  0.00    -0.025 A 
ATOM      4  C   UNL     1       4.409  -1.885   3.357  0.00  0.00    +0.003 A 
ATOM      5  C   UNL     1       3.761  -2.017   2.112  0.00  0.00    +0.050 A 
ATOM      6  C   UNL     1       2.915  -3.102   1.887  0.00  0.00    +0.027 A 
ATOM      7  C   UNL     1       2.710  -4.028   2.866  0.00  0.00    +0.017 A 
ATOM      8  C   UNL     1       3.346  -3.905   4.111  0.00  0.00    +0.064 A 
ATOM      9  C   UNL     1       4.204  -2.834   4.353  0.00  0.00    +0.025 A 
ENDROOT
BRANCH   8  10
ATOM     10  C   UNL     1       3.113  -4.914   5.159  0.00  0.00    +0.387 C 
ATOM     11  O   UNL     1       2.366  -5.858   4.943  0.00  0.00    -0.241 OA
ATOM     12  O   UNL     1       3.667  -4.807   6.244  0.00  0.00    -0.241 OA
ENDBRANCH   8  10
BRANCH   1  13
ATOM     13  C   UNL     1       3.711  -0.707  -0.038  0.00  0.00    +0.157 C 
BRANCH  13  17
ATOM     14  C   UNL     1      -0.017   1.378   0.010  0.00  0.00    +0.000 A 
ATOM     15  C   UNL     1       1.171   2.086   0.002  0.00  0.00    +0.000 A 
ATOM     16  C   UNL     1       2.377   1.411  -0.013  0.00  0.00    +0.005 A 
ATOM     17  C   UNL     1       2.396   0.029  -0.020  0.00  0.00    -0.028 A 
ATOM     18  C   UNL     1       1.208  -0.679  -0.012  0.00  0.00    +0.005 A 
ATOM     19  C   UNL     1       0.002  -0.004   0.002  0.00  0.00    +0.000 A 
ENDBRANCH  13  17
ENDBRANCH   1  13
BRANCH   3  20
ATOM     20  C   UNL     1       6.080  -0.076   4.351  0.00  0.00    +0.080 C 
BRANCH  20  21
ATOM     21  N   UNL     1       7.053   0.847   3.750  0.00  0.00    +0.394 N 
ATOM     22  C   UNL     1       7.878   0.120   2.778  0.00  0.00    -0.058 C 
ATOM     23  C   UNL     1       8.815   1.104   2.069  0.00  0.00    +0.089 C 
ATOM     24  N   UNL     1       9.582   1.836   3.089  0.00  0.00    -0.303 N 
ATOM     25  C   UNL     1       8.841   2.460   4.197  0.00  0.00    +0.089 C 
ATOM     26  C   UNL     1       7.903   1.413   4.805  0.00  0.00    -0.058 C 
ATOM     27  C   UNL     1      10.960   1.935   3.010  0.00  0.00    +0.218 A 
ATOM     28  N   UNL     1      11.591   1.363   1.994  0.00  0.00    -0.223 NA
ATOM     29  C   UNL     1      12.908   1.439   1.889  0.00  0.00    +0.116 A 
ATOM     30  C   UNL     1      13.626   2.126   2.855  0.00  0.00    +0.039 A 
ATOM     31  C   UNL     1      12.933   2.711   3.903  0.00  0.00    +0.116 A 
ATOM     32  N   UNL     1      11.616   2.602   3.947  0.00  0.00    -0.223 NA
ATOM     33  H   UNL     1       6.561   1.593   3.280  0.00  0.00    -0.080 HD
ENDBRANCH  20  21
BRANCH  20  34
ATOM     34  C   UNL     1       5.224   0.671   5.341  0.00  0.00    +0.347 C 
ATOM     35  O   UNL     1       4.476   0.059   6.084  0.00  0.00    -0.248 OA
ATOM     36  O   UNL     1       5.279   1.888   5.399  0.00  0.00    -0.248 OA
ENDBRANCH  20  34
ENDBRANCH   3  20
TORSDOF 6
