REMARK  Name = ZINC12496991
REMARK  11 active torsions:
REMARK  status: ('A' for Active; 'I' for Inactive)
REMARK    1  A    between atoms: C_1  and  C_2
REMARK    2  A    between atoms: C_7  and  O_8
REMARK    3  A    between atoms: O_8  and  C_9
REMARK    4  A    between atoms: C_9  and  C_10
REMARK    5  A    between atoms: N_12  and  C_13
REMARK    6  A    between atoms: C_13  and  N_15
REMARK    7  A    between atoms: N_15  and  C_16
REMARK    8  A    between atoms: C_17  and  C_29
REMARK    9  A    between atoms: C_18  and  C_28
REMARK   10  A    between atoms: C_19  and  C_21
REMARK   11  A    between atoms: C_21  and  C_22
REMARK                            x       y       z     vdW  Elec       q    Type
REMARK                         _______ _______ _______ _____ _____    ______ ____
ROOT
ATOM      1  C   UNL     1      -5.471   7.714   0.070  0.00  0.00    +0.084 A 
ATOM      2  C   UNL     1      -5.869   9.046   0.079  0.00  0.00    +0.068 A 
ATOM      3  C   UNL     1      -7.290   9.298   0.087  0.00  0.00    -0.026 A 
ATOM      4  C   UNL     1      -8.104   8.227   0.084  0.00  0.00    -0.000 A 
ATOM      5  S   UNL     1      -6.973   6.852   0.065  0.00  0.00    -0.077 S 
ATOM      6  C   UNL     1      -7.839  10.701   0.096  0.00  0.00    +0.045 C 
ENDROOT
BRANCH   2   7
ATOM      7  C   UNL     1      -4.894  10.140   0.080  0.00  0.00    +0.244 C 
ATOM      8  O   UNL     1      -4.494  10.600  -0.973  0.00  0.00    -0.270 OA
ATOM      9  N   UNL     1      -4.441  10.637   1.248  0.00  0.00    -0.325 N 
ATOM     10  H   UNL     1      -4.759  10.271   2.088  0.00  0.00    +0.145 HD
ATOM     11  H   UNL     1      -3.795  11.362   1.249  0.00  0.00    +0.145 HD
ENDBRANCH   2   7
BRANCH   1  12
ATOM     12  N   UNL     1      -4.184   7.201   0.061  0.00  0.00    -0.291 N 
ATOM     13  H   UNL     1      -3.422   7.801   0.061  0.00  0.00    +0.154 HD
BRANCH  12  14
ATOM     14  C   UNL     1      -3.990   5.867   0.053  0.00  0.00    +0.141 C 
ATOM     15  S   UNL     1      -5.335   4.807   0.053  0.00  0.00    -0.018 S 
BRANCH  14  18
ATOM     16  C   UNL     1      -2.545   4.034   0.036  0.00  0.00    +0.256 C 
ATOM     17  O   UNL     1      -3.497   3.283   0.036  0.00  0.00    -0.272 OA
ATOM     18  N   UNL     1      -2.738   5.367   0.044  0.00  0.00    -0.265 N 
ATOM     19  H   UNL     1      -1.977   5.968   0.044  0.00  0.00    +0.157 HD
BRANCH  16  20
ATOM     20  C   UNL     1      -1.145   3.475   0.026  0.00  0.00    +0.325 C 
BRANCH  20  21
ATOM     21  O   UNL     1      -1.202   2.047   0.019  0.00  0.00    -0.483 OA
BRANCH  21  28
ATOM     22  C   UNL     1      -1.292  -0.776   0.010  0.00  0.00    +0.047 C 
ATOM     23  C   UNL     1       0.002  -0.004   0.002  0.00  0.00    -0.009 A 
ATOM     24  C   UNL     1       1.208  -0.677  -0.013  0.00  0.00    +0.007 A 
ATOM     25  C   UNL     1       2.396   0.030  -0.021  0.00  0.00    +0.000 A 
ATOM     26  C   UNL     1       2.380   1.413  -0.013  0.00  0.00    +0.004 A 
ATOM     27  C   UNL     1       1.177   2.091   0.002  0.00  0.00    +0.046 A 
ATOM     28  C   UNL     1      -0.017   1.383   0.010  0.00  0.00    +0.124 A 
ENDBRANCH  21  28
ENDBRANCH  20  21
ENDBRANCH  16  20
ENDBRANCH  14  18
ENDBRANCH  12  14
ENDBRANCH   1  12
BRANCH   4  29
ATOM     29  C   UNL     1      -9.611   8.198   0.091  0.00  0.00    +0.077 C 
BRANCH  29  30
ATOM     30  C   UNL     1     -10.119   8.196  -1.328  0.00  0.00    -0.043 A 
ATOM     31  C   UNL     1     -10.381   9.392  -1.970  0.00  0.00    +0.004 A 
ATOM     32  C   UNL     1     -10.843   9.390  -3.273  0.00  0.00    +0.000 A 
ATOM     33  C   UNL     1     -11.053   8.192  -3.930  0.00  0.00    +0.000 A 
ATOM     34  C   UNL     1     -10.796   6.996  -3.286  0.00  0.00    +0.000 A 
ATOM     35  C   UNL     1     -10.329   6.998  -1.985  0.00  0.00    +0.004 A 
ENDBRANCH  29  30
ENDBRANCH   4  29
TORSDOF 9
