REMARK  Name = ZINC38137449
REMARK  5 active torsions:
REMARK  status: ('A' for Active; 'I' for Inactive)
REMARK    1  A    between atoms: C_1  and  C_2
REMARK    2  A    between atoms: C_5  and  O_18
REMARK    3  A    between atoms: C_6  and  N_8
REMARK    4  A    between atoms: N_8  and  S_9
REMARK    5  A    between atoms: S_9  and  C_12
REMARK                            x       y       z     vdW  Elec       q    Type
REMARK                         _______ _______ _______ _____ _____    ______ ____
ROOT
ATOM      1  N   UNL     1       0.052  -2.794   2.398  0.00  0.00    -0.217 N 
ATOM      2  H   UNL     1       0.536  -3.632   2.461  0.00  0.00    +0.173 HD
ENDROOT
BRANCH   1   8
ATOM      3  C   UNL     1      -0.097   1.419  -0.131  0.00  0.00    +0.044 C 
ATOM      4  C   UNL     1      -0.113  -0.087  -0.086  0.00  0.00    -0.048 A 
ATOM      5  C   UNL     1      -0.216  -0.810  -1.260  0.00  0.00    +0.007 A 
ATOM      6  C   UNL     1      -0.231  -2.193  -1.226  0.00  0.00    +0.047 A 
ATOM      7  C   UNL     1      -0.142  -2.857  -0.013  0.00  0.00    +0.139 A 
ATOM      8  C   UNL     1      -0.038  -2.128   1.170  0.00  0.00    +0.089 A 
ATOM      9  C   UNL     1      -0.018  -0.742   1.127  0.00  0.00    +0.031 A 
BRANCH   7  10
ATOM     10  O   UNL     1      -0.157  -4.216   0.022  0.00  0.00    -0.505 OA
ATOM     11  H   UNL     1       0.719  -4.621  -0.039  0.00  0.00    +0.292 HD
ENDBRANCH   7  10
ENDBRANCH   1   8
BRANCH   1  12
ATOM     12  S   UNL     1      -0.668  -2.150   3.743  0.00  0.00    +0.046 S 
ATOM     13  O   UNL     1      -0.341  -3.049   4.794  0.00  0.00    -0.155 OA
ATOM     14  O   UNL     1      -0.225  -0.800   3.780  0.00  0.00    -0.155 OA
BRANCH  12  15
ATOM     15  C   UNL     1      -2.447  -2.215   3.396  0.00  0.00    +0.151 C 
ATOM     16  C   UNL     1      -2.735  -1.498   2.076  0.00  0.00    +0.028 C 
ATOM     17  C   UNL     1      -4.236  -1.552   1.783  0.00  0.00    +0.002 C 
ATOM     18  C   UNL     1      -5.002  -0.864   2.915  0.00  0.00    +0.000 C 
ATOM     19  C   UNL     1      -4.713  -1.581   4.236  0.00  0.00    +0.002 C 
ATOM     20  C   UNL     1      -3.213  -1.527   4.528  0.00  0.00    +0.028 C 
ENDBRANCH  12  15
ENDBRANCH   1  12
TORSDOF 4
