REMARK  Name = ZINC17015628
REMARK  10 active torsions:
REMARK  status: ('A' for Active; 'I' for Inactive)
REMARK    1  A    between atoms: C_1  and  N_2
REMARK    2  A    between atoms: N_2  and  C_3
REMARK    3  A    between atoms: C_3  and  C_4
REMARK    4  A    between atoms: C_4  and  C_5
REMARK    5  A    between atoms: C_9  and  O_24
REMARK    6  A    between atoms: C_10  and  C_11
REMARK    7  A    between atoms: N_18  and  C_21
REMARK    8  A    between atoms: C_21  and  C_22
REMARK    9  A    between atoms: O_24  and  C_25
REMARK   10  A    between atoms: C_29  and  C_31
REMARK                            x       y       z     vdW  Elec       q    Type
REMARK                         _______ _______ _______ _____ _____    ______ ____
ROOT
ATOM      1  C   UNL     1      -1.312  -1.941   2.915  0.00  0.00    -0.032 A 
ATOM      2  C   UNL     1      -1.333  -3.302   2.846  0.00  0.00    +0.054 A 
ATOM      3  C   UNL     1      -0.870  -4.073   3.911  0.00  0.00    +0.170 A 
ATOM      4  C   UNL     1      -0.378  -3.458   5.060  0.00  0.00    +0.208 A 
ATOM      5  C   UNL     1      -0.349  -2.074   5.146  0.00  0.00    +0.173 A 
ATOM      6  C   UNL     1      -0.815  -1.300   4.063  0.00  0.00    +0.025 A 
ATOM      7  O   UNL     1       0.008  -4.426   5.943  0.00  0.00    -0.449 OA
ATOM      8  C   UNL     1      -0.630  -5.634   5.488  0.00  0.00    +0.467 C 
ATOM      9  O   UNL     1      -0.791  -5.424   4.073  0.00  0.00    -0.452 OA
ENDROOT
BRANCH   6  10
ATOM     10  C   UNL     1      -0.787   0.112   4.134  0.00  0.00    +0.030 C 
ATOM     11  C   UNL     1      -1.490   0.771   5.134  0.00  0.00    +0.102 C 
ATOM     12  C   UNL     1      -1.377   2.224   5.322  0.00  0.00    +0.276 C 
ATOM     13  O   UNL     1      -0.580   2.964   4.523  0.00  0.00    -0.268 OA
ATOM     14  N   UNL     1      -2.074   2.790   6.293  0.00  0.00    -0.123 NA
ATOM     15  C   UNL     1      -2.868   2.086   7.096  0.00  0.00    +0.336 C 
ATOM     16  O   UNL     1      -3.478   2.680   7.968  0.00  0.00    -0.250 OA
ATOM     17  N   UNL     1      -3.033   0.759   6.999  0.00  0.00    -0.216 N 
ATOM     18  C   UNL     1      -2.390   0.044   6.050  0.00  0.00    +0.259 C 
ATOM     19  O   UNL     1      -2.543  -1.159   5.958  0.00  0.00    -0.269 OA
BRANCH  17  20
ATOM     20  C   UNL     1      -3.931   0.074   7.932  0.00  0.00    +0.145 C 
BRANCH  20  21
ATOM     21  C   UNL     1      -5.323   0.040   7.356  0.00  0.00    -0.015 C 
ATOM     22  C   UNL     1      -5.948  -1.103   7.222  0.00  0.00    +0.005 C 
ENDBRANCH  20  21
ENDBRANCH  17  20
ENDBRANCH   6  10
BRANCH   5  23
ATOM     23  O   UNL     1       0.129  -1.469   6.262  0.00  0.00    -0.491 OA
ATOM     24  C   UNL     1       1.526  -1.173   6.292  0.00  0.00    +0.277 C 
ENDBRANCH   5  23
BRANCH   1  25
ATOM     25  C   UNL     1      -1.817  -1.121   1.756  0.00  0.00    +0.055 C 
BRANCH  25  26
ATOM     26  C   UNL     1      -0.643  -0.736   0.854  0.00  0.00    +0.112 C 
BRANCH  26  28
ATOM     27  C   UNL     1      -1.209   1.520  -0.162  0.00  0.00    +0.132 C 
ATOM     28  N   UNL     1      -1.134   0.061  -0.273  0.00  0.00    -0.300 N 
ATOM     29  C   UNL     1      -1.517  -0.548  -1.413  0.00  0.00    +0.246 C 
ATOM     30  O   UNL     1      -1.555  -1.762  -1.470  0.00  0.00    -0.270 OA
BRANCH  29  31
ATOM     31  C   UNL     1      -1.891   0.260  -2.594  0.00  0.00    +0.037 A 
ATOM     32  C   UNL     1      -1.240   1.468  -2.851  0.00  0.00    +0.013 A 
ATOM     33  C   UNL     1      -1.593   2.216  -3.954  0.00  0.00    +0.001 A 
ATOM     34  C   UNL     1      -2.590   1.773  -4.805  0.00  0.00    +0.000 A 
ATOM     35  C   UNL     1      -3.239   0.577  -4.556  0.00  0.00    +0.001 A 
ATOM     36  C   UNL     1      -2.892  -0.185  -3.459  0.00  0.00    +0.013 A 
ENDBRANCH  29  31
ENDBRANCH  26  28
ENDBRANCH  25  26
ENDBRANCH   1  25
TORSDOF 8
