REMARK  Name = ZINC40018535
REMARK  7 active torsions:
REMARK  status: ('A' for Active; 'I' for Inactive)
REMARK    1  A    between atoms: C_1  and  C_2
REMARK    2  A    between atoms: C_7  and  N_8
REMARK    3  A    between atoms: C_9  and  S_23
REMARK    4  A    between atoms: C_13  and  C_14
REMARK    5  A    between atoms: S_23  and  C_24
REMARK    6  A    between atoms: C_24  and  C_25
REMARK    7  A    between atoms: C_32  and  C_34
REMARK                            x       y       z     vdW  Elec       q    Type
REMARK                         _______ _______ _______ _____ _____    ______ ____
ROOT
ATOM      1  N   UNL     1       0.354  -0.808   1.683  0.00  0.00    -0.254 N 
ATOM      2  C   UNL     1      -0.801  -0.214   2.376  0.00  0.00    +0.241 C 
ATOM      3  N   UNL     1      -0.203   0.604   3.444  0.00  0.00    -0.237 N 
ATOM      4  N   UNL     1       1.184   0.456   3.329  0.00  0.00    -0.169 NA
ATOM      5  C   UNL     1       1.496  -0.343   2.342  0.00  0.00    +0.151 C 
ATOM      6  H   UNL     1      -0.677   1.140   4.098  0.00  0.00    +0.171 HD
ENDROOT
BRANCH   5   7
ATOM      7  C   UNL     1       2.809  -0.687   1.987  0.00  0.00    +0.022 C 
ATOM      8  C   UNL     1       3.988  -0.264   2.603  0.00  0.00    +0.006 A 
ATOM      9  C   UNL     1       4.237   0.585   3.703  0.00  0.00    +0.010 A 
ATOM     10  C   UNL     1       5.515   0.824   4.092  0.00  0.00    +0.001 A 
ATOM     11  C   UNL     1       6.602   0.250   3.429  0.00  0.00    +0.002 A 
ATOM     12  C   UNL     1       6.436  -0.574   2.365  0.00  0.00    +0.026 A 
ATOM     13  C   UNL     1       5.129  -0.872   1.900  0.00  0.00    +0.043 A 
ATOM     14  N   UNL     1       4.709  -1.629   0.906  0.00  0.00    -0.380 N 
ATOM     15  C   UNL     1       3.244  -1.598   0.861  0.00  0.00    +0.152 C 
ATOM     16  H   UNL     1       5.279  -2.131   0.303  0.00  0.00    +0.160 HD
ENDBRANCH   5   7
BRANCH   1  23
ATOM     17  C   UNL     1       0.411   0.329  -0.924  0.00  0.00    +0.045 C 
ATOM     18  C   UNL     1       0.343  -1.161  -0.704  0.00  0.00    -0.029 A 
ATOM     19  C   UNL     1       0.312  -2.018  -1.786  0.00  0.00    +0.005 A 
ATOM     20  C   UNL     1       0.249  -3.385  -1.586  0.00  0.00    +0.000 A 
ATOM     21  C   UNL     1       0.217  -3.898  -0.301  0.00  0.00    +0.002 A 
ATOM     22  C   UNL     1       0.247  -3.046   0.785  0.00  0.00    +0.024 A 
ATOM     23  C   UNL     1       0.317  -1.673   0.587  0.00  0.00    +0.041 A 
ENDBRANCH   1  23
BRANCH   2  24
ATOM     24  S   UNL     1      -1.855  -1.512   3.081  0.00  0.00    -0.108 S 
BRANCH  24  25
ATOM     25  C   UNL     1      -0.760  -2.388   4.232  0.00  0.00    +0.168 C 
BRANCH  25  26
ATOM     26  C   UNL     1      -1.521  -3.507   4.895  0.00  0.00    +0.226 C 
ATOM     27  O   UNL     1      -2.687  -3.696   4.618  0.00  0.00    -0.275 OA
ATOM     28  N   UNL     1      -0.906  -4.299   5.796  0.00  0.00    -0.298 N 
ATOM     29  C   UNL     1       0.531  -4.151   6.065  0.00  0.00    +0.108 C 
ATOM     30  C   UNL     1       1.208  -5.514   5.889  0.00  0.00    +0.019 C 
ATOM     31  C   UNL     1       0.506  -6.546   6.774  0.00  0.00    +0.003 C 
ATOM     32  C   UNL     1      -0.958  -6.676   6.346  0.00  0.00    +0.022 C 
ATOM     33  C   UNL     1      -1.661  -5.323   6.531  0.00  0.00    +0.073 C 
ATOM     34  C   UNL     1      -3.086  -5.404   5.981  0.00  0.00    +0.028 C 
ENDBRANCH  25  26
ENDBRANCH  24  25
ENDBRANCH   2  24
TORSDOF 5
