REMARK  Name = ZINC31973843
REMARK  6 active torsions:
REMARK  status: ('A' for Active; 'I' for Inactive)
REMARK    1  A    between atoms: C_1  and  C_2
REMARK    2  A    between atoms: C_2  and  C_3
REMARK    3  A    between atoms: C_6  and  C_9
REMARK    4  A    between atoms: C_10  and  C_22
REMARK    5  A    between atoms: C_12  and  C_17
REMARK    6  A    between atoms: C_22  and  N_23
REMARK                            x       y       z     vdW  Elec       q    Type
REMARK                         _______ _______ _______ _____ _____    ______ ____
ROOT
ATOM      1  C   UNL     1      -2.649   2.295   4.886  0.00  0.00    +0.092 A 
ATOM      2  C   UNL     1      -2.035   3.039   5.838  0.00  0.00    +0.035 A 
ATOM      3  N   UNL     1      -3.024   3.590   6.644  0.00  0.00    -0.289 N 
ATOM      4  C   UNL     1      -3.106   4.416   7.753  0.00  0.00    +0.097 A 
ATOM      5  C   UNL     1      -4.310   4.733   8.274  0.00  0.00    +0.078 A 
ATOM      6  S   UNL     1      -5.426   3.855   7.192  0.00  0.00    -0.057 S 
ATOM      7  C   UNL     1      -4.205   3.128   6.124  0.00  0.00    +0.179 A 
ATOM      8  N   UNL     1      -3.980   2.368   5.092  0.00  0.00    -0.221 NA
ENDROOT
BRANCH   1  12
ATOM      9  C   UNL     1      -0.715   0.098   1.802  0.00  0.00    -0.048 A 
ATOM     10  C   UNL     1      -0.268   1.365   2.130  0.00  0.00    +0.004 A 
ATOM     11  C   UNL     1      -0.895   2.085   3.126  0.00  0.00    +0.010 A 
ATOM     12  C   UNL     1      -1.974   1.528   3.810  0.00  0.00    +0.002 A 
ATOM     13  C   UNL     1      -2.417   0.249   3.479  0.00  0.00    +0.010 A 
ATOM     14  C   UNL     1      -1.786  -0.459   2.477  0.00  0.00    +0.004 A 
BRANCH   9  16
ATOM     15  C   UNL     1      -0.703  -0.381  -0.631  0.00  0.00    +0.009 C 
ATOM     16  C   UNL     1      -0.029  -0.681   0.709  0.00  0.00    +0.032 C 
ENDBRANCH   9  16
ENDBRANCH   1  12
BRANCH   4  17
ATOM     17  C   UNL     1      -1.877   4.948   8.365  0.00  0.00    +0.152 A 
ATOM     18  C   UNL     1      -1.747   5.385   9.648  0.00  0.00    +0.051 A 
ATOM     19  C   UNL     1      -0.410   5.804   9.801  0.00  0.00    +0.042 A 
ATOM     20  C   UNL     1       0.204   5.605   8.618  0.00  0.00    +0.196 A 
ATOM     21  O   UNL     1      -0.684   5.082   7.754  0.00  0.00    -0.461 OA
ENDBRANCH   4  17
BRANCH   2  22
ATOM     22  C   UNL     1      -0.549   3.236   5.993  0.00  0.00    -0.029 C 
BRANCH  22  23
ATOM     23  N   UNL     1      -0.144   4.468   5.303  0.00  0.00    +0.382 N 
ATOM     24  H   UNL     1       0.941   4.612   5.417  0.00  0.00    -0.090 HD
ATOM     25  H   UNL     1      -0.675   5.325   5.743  0.00  0.00    -0.090 HD
ATOM     26  H   UNL     1      -0.394   4.390   4.235  0.00  0.00    -0.090 HD
ENDBRANCH  22  23
ENDBRANCH   2  22
TORSDOF 5
