REMARK  Name = ZINC39722838
REMARK  11 active torsions:
REMARK  status: ('A' for Active; 'I' for Inactive)
REMARK    1  A    between atoms: C_1  and  C_2
REMARK    2  A    between atoms: C_5  and  C_37
REMARK    3  A    between atoms: N_8  and  S_10
REMARK    4  A    between atoms: S_10  and  C_13
REMARK    5  A    between atoms: C_16  and  C_19
REMARK    6  A    between atoms: C_19  and  N_21
REMARK    7  A    between atoms: N_23  and  C_34
REMARK    8  A    between atoms: C_27  and  C_31
REMARK    9  A    between atoms: C_31  and  C_32
REMARK   10  A    between atoms: C_31  and  C_33
REMARK   11  A    between atoms: C_34  and  C_35
REMARK                            x       y       z     vdW  Elec       q    Type
REMARK                         _______ _______ _______ _____ _____    ______ ____
ROOT
ATOM      1  C   UNL     1       2.046   6.586   1.297  0.00  0.00    +0.269 C 
ATOM      2  O   UNL     1       2.864   7.205   0.639  0.00  0.00    -0.268 OA
ENDROOT
BRANCH   1   3
ATOM      3  N   UNL     1       0.964   7.209   1.776  0.00  0.00    -0.152 NA
ATOM      4  C   UNL     1       0.782   8.503   1.535  0.00  0.00    +0.167 A 
ATOM      5  N   UNL     1      -0.247   9.290   1.945  0.00  0.00    -0.317 N 
ATOM      6  C   UNL     1      -0.270  10.627   1.597  0.00  0.00    +0.058 A 
ATOM      7  C   UNL     1      -1.223  11.607   1.908  0.00  0.00    +0.027 A 
ATOM      8  C   UNL     1      -1.070  12.900   1.464  0.00  0.00    +0.006 A 
ATOM      9  C   UNL     1       0.025  13.270   0.700  0.00  0.00    -0.044 A 
ATOM     10  C   UNL     1       0.980  12.322   0.379  0.00  0.00    +0.021 A 
ATOM     11  C   UNL     1       0.828  11.030   0.823  0.00  0.00    +0.039 A 
ATOM     12  S   UNL     1       1.776   9.539   0.661  0.00  0.00    -0.052 S 
BRANCH   9  13
ATOM     13  C   UNL     1       0.173  14.692   0.223  0.00  0.00    +0.013 C 
ATOM     14  C   UNL     1      -1.026  15.064  -0.652  0.00  0.00    +0.012 C 
ATOM     15  C   UNL     1       0.235  15.631   1.429  0.00  0.00    +0.012 C 
ENDBRANCH   9  13
BRANCH   5  16
ATOM     16  C   UNL     1      -1.329   8.723   2.754  0.00  0.00    +0.151 C 
BRANCH  16  17
ATOM     17  C   UNL     1      -0.983   8.849   4.215  0.00  0.00    -0.013 C 
ATOM     18  C   UNL     1      -1.811   9.448   5.035  0.00  0.00    +0.005 C 
ENDBRANCH  16  17
ENDBRANCH   5  16
ENDBRANCH   1   3
BRANCH   1  22
ATOM     19  C   UNL     1       2.629   2.448   2.067  0.00  0.00    +0.106 A 
ATOM     20  C   UNL     1       3.560   3.147   1.320  0.00  0.00    +0.029 A 
ATOM     21  C   UNL     1       3.376   4.491   1.067  0.00  0.00    +0.015 A 
ATOM     22  C   UNL     1       2.249   5.144   1.565  0.00  0.00    +0.039 A 
ATOM     23  C   UNL     1       1.314   4.433   2.318  0.00  0.00    +0.015 A 
ATOM     24  C   UNL     1       1.506   3.088   2.560  0.00  0.00    +0.029 A 
BRANCH  19  25
ATOM     25  S   UNL     1       2.871   0.732   2.387  0.00  0.00    +0.061 S 
ATOM     26  O   UNL     1       2.133   0.430   3.563  0.00  0.00    -0.153 OA
ATOM     27  O   UNL     1       4.268   0.492   2.281  0.00  0.00    -0.153 OA
BRANCH  25  33
ATOM     28  C   UNL     1      -0.019   1.526   0.010  0.00  0.00    +0.009 C 
ATOM     29  C   UNL     1       0.002  -0.004   0.002  0.00  0.00    +0.002 C 
ATOM     30  C   UNL     1       0.720  -0.498  -1.256  0.00  0.00    +0.009 C 
ATOM     31  C   UNL     1       2.145   0.059  -1.285  0.00  0.00    +0.002 C 
ATOM     32  C   UNL     1       2.912  -0.448  -0.060  0.00  0.00    +0.112 C 
ATOM     33  N   UNL     1       2.153  -0.103   1.150  0.00  0.00    -0.176 NA
ATOM     34  C   UNL     1       0.744  -0.512   1.242  0.00  0.00    +0.112 C 
ATOM     35  C   UNL     1       2.850  -0.408  -2.559  0.00  0.00    +0.009 C 
ENDBRANCH  25  33
ENDBRANCH  19  25
ENDBRANCH   1  22
TORSDOF 7
