REMARK  Name = ZINC14076631
REMARK  12 active torsions:
REMARK  status: ('A' for Active; 'I' for Inactive)
REMARK    1  A    between atoms: C_1  and  C_2
REMARK    2  A    between atoms: C_3  and  C_31
REMARK    3  A    between atoms: N_4  and  C_26
REMARK    4  A    between atoms: C_5  and  N_9
REMARK    5  A    between atoms: C_6  and  C_7
REMARK    6  A    between atoms: C_10  and  C_12
REMARK    7  A    between atoms: C_12  and  N_60
REMARK    8  A    between atoms: C_13  and  N_60
REMARK    9  A    between atoms: C_14  and  C_16
REMARK   10  A    between atoms: C_14  and  C_17
REMARK   11  A    between atoms: C_14  and  N_60
REMARK   12  A    between atoms: C_21  and  N_23
REMARK                            x       y       z     vdW  Elec       q    Type
REMARK                         _______ _______ _______ _____ _____    ______ ____
ROOT
ATOM      1  N   UNL     1      -2.538   8.873  -1.975  0.00  0.00    -0.272 N 
ATOM      2  C   UNL     1      -1.946   7.704  -2.290  0.00  0.00    +0.202 C 
ATOM      3  O   UNL     1      -2.352   7.053  -3.230  0.00  0.00    -0.278 OA
ATOM      4  H   UNL     1      -2.198   9.405  -1.239  0.00  0.00    +0.156 HD
ENDROOT
BRANCH   1   9
ATOM      5  C   UNL     1      -7.086   9.227  -4.149  0.00  0.00    +0.047 C 
ATOM      6  C   UNL     1      -5.675   9.506  -3.700  0.00  0.00    -0.011 A 
ATOM      7  C   UNL     1      -4.935  10.585  -4.004  0.00  0.00    +0.022 A 
ATOM      8  N   UNL     1      -3.707  10.475  -3.408  0.00  0.00    -0.329 N 
ATOM      9  C   UNL     1      -3.631   9.316  -2.704  0.00  0.00    +0.123 A 
ATOM     10  C   UNL     1      -4.840   8.649  -2.849  0.00  0.00    +0.095 A 
ATOM     11  C   UNL     1      -5.386  11.737  -4.865  0.00  0.00    +0.064 C 
BRANCH   8  12
ATOM     12  C   UNL     1      -2.631  11.464  -3.514  0.00  0.00    +0.089 C 
ATOM     13  C   UNL     1      -1.371  10.810  -4.117  0.00  0.00    +0.025 C 
ATOM     14  C   UNL     1      -0.197  11.475  -3.353  0.00  0.00    +0.002 C 
ATOM     15  C   UNL     1      -0.754  11.604  -1.914  0.00  0.00    +0.002 C 
ATOM     16  C   UNL     1      -2.240  11.969  -2.114  0.00  0.00    +0.025 C 
ENDBRANCH   8  12
BRANCH  10  17
ATOM     17  C   UNL     1      -5.201   7.385  -2.282  0.00  0.00    +0.103 C 
ATOM     18  N   UNL     1      -5.487   6.382  -1.832  0.00  0.00    -0.191 NA
ENDBRANCH  10  17
ENDBRANCH   1   9
BRANCH   2  19
ATOM     19  C   UNL     1      -0.780   7.206  -1.476  0.00  0.00    +0.019 C 
BRANCH  19  21
ATOM     20  C   UNL     1       0.508   6.347  -3.338  0.00  0.00    -0.095 C 
ATOM     21  N   UNL     1      -0.240   5.987  -2.115  0.00  0.00    +0.388 N 
ATOM     22  H   UNL     1      -1.021   5.372  -2.371  0.00  0.00    -0.081 HD
BRANCH  21  23
ATOM     23  C   UNL     1       0.646   5.273  -1.173  0.00  0.00    -0.040 C 
ATOM     24  C   UNL     1      -0.170   4.848   0.050  0.00  0.00    -0.008 C 
BRANCH  23  25
ATOM     25  C   UNL     1       1.202   4.049  -1.855  0.00  0.00    -0.059 A 
ATOM     26  C   UNL     1       0.398   3.301  -2.695  0.00  0.00    +0.002 A 
ATOM     27  C   UNL     1       0.909   2.181  -3.324  0.00  0.00    +0.002 A 
ATOM     28  C   UNL     1       2.222   1.805  -3.107  0.00  0.00    +0.033 A 
ATOM     29  C   UNL     1       3.026   2.554  -2.268  0.00  0.00    +0.126 A 
ATOM     30  C   UNL     1       2.515   3.676  -1.641  0.00  0.00    +0.034 A 
BRANCH  29  31
ATOM     31  N   UNL     1       4.433   2.155  -2.040  0.00  0.00    +0.056 N 
ATOM     32  O   UNL     1       4.882   1.166  -2.591  0.00  0.00    -0.126 OA
ATOM     33  O   UNL     1       5.141   2.815  -1.301  0.00  0.00    -0.126 OA
ENDBRANCH  29  31
ENDBRANCH  23  25
ENDBRANCH  21  23
ENDBRANCH  19  21
ENDBRANCH   2  19
TORSDOF 8
