REMARK  Name = ZINC09130425
REMARK  5 active torsions:
REMARK  status: ('A' for Active; 'I' for Inactive)
REMARK    1  A    between atoms: C_3  and  C_9
REMARK    2  A    between atoms: C_10  and  C_11
REMARK    3  A    between atoms: N_13  and  C_14
REMARK    4  A    between atoms: C_14  and  C_15
REMARK    5  A    between atoms: C_23  and  C_24
REMARK                            x       y       z     vdW  Elec       q    Type
REMARK                         _______ _______ _______ _____ _____    ______ ____
ROOT
ATOM      1  C   UNL     1      -3.879   6.251   0.054  0.00  0.00    +0.181 C 
ENDROOT
BRANCH   1   2
ATOM      2  C   UNL     1      -3.619   7.736   0.061  0.00  0.00    +0.155 A 
ATOM      3  N   UNL     1      -3.491   8.504  -0.990  0.00  0.00    -0.132 NA
ATOM      4  N   UNL     1      -3.277   9.720  -0.631  0.00  0.00    -0.129 NA
ATOM      5  C   UNL     1      -3.257   9.793   0.690  0.00  0.00    +0.173 A 
ATOM      6  N   UNL     1      -3.481   8.523   1.162  0.00  0.00    -0.283 N 
ATOM      7  C   UNL     1      -3.522   8.281   2.504  0.00  0.00    +0.114 A 
ATOM      8  C   UNL     1      -3.346   9.287   3.388  0.00  0.00    +0.058 A 
ATOM      9  C   UNL     1      -3.118  10.599   2.934  0.00  0.00    +0.037 A 
ATOM     10  C   UNL     1      -3.067  10.852   1.599  0.00  0.00    +0.101 A 
ATOM     11 CL   UNL     1      -3.402   8.960   5.092  0.00  0.00    -0.082 Cl
BRANCH  10  12
ATOM     12  C   UNL     1      -2.825  12.252   1.098  0.00  0.00    +0.421 C 
ATOM     13  F   UNL     1      -2.668  13.117   2.186  0.00  0.00    -0.166 F 
ATOM     14  F   UNL     1      -1.666  12.274   0.315  0.00  0.00    -0.166 F 
ATOM     15  F   UNL     1      -3.916  12.666   0.326  0.00  0.00    -0.166 F 
ENDBRANCH  10  12
ENDBRANCH   1   2
BRANCH   1  18
ATOM     16  C   UNL     1      -2.588   4.185   0.037  0.00  0.00    +0.237 C 
ATOM     17  O   UNL     1      -3.635   3.565   0.039  0.00  0.00    -0.271 OA
ATOM     18  N   UNL     1      -2.602   5.532   0.044  0.00  0.00    -0.305 N 
ATOM     19  H   UNL     1      -1.768   6.026   0.043  0.00  0.00    +0.149 HD
BRANCH  16  21
ATOM     20  C   UNL     1      -1.298   2.118   0.020  0.00  0.00    +0.014 C 
ATOM     21  C   UNL     1      -1.313   3.467   0.027  0.00  0.00    +0.068 C 
BRANCH  20  24
ATOM     22  C   UNL     1       2.386   1.422  -0.013  0.00  0.00    +0.020 A 
ATOM     23  C   UNL     1       1.189   2.105   0.002  0.00  0.00    +0.011 A 
ATOM     24  C   UNL     1      -0.017   1.396   0.010  0.00  0.00    -0.006 A 
ATOM     25  C   UNL     1       0.002  -0.004   0.002  0.00  0.00    +0.049 A 
ATOM     26  C   UNL     1       1.208  -0.673  -0.013  0.00  0.00    +0.040 A 
ATOM     27  C   UNL     1       2.398   0.036  -0.021  0.00  0.00    +0.042 A 
ATOM     28 CL   UNL     1       3.911  -0.814  -0.040  0.00  0.00    -0.083 Cl
ATOM     29 CL   UNL     1      -1.488  -0.895   0.011  0.00  0.00    -0.083 Cl
ENDBRANCH  20  24
ENDBRANCH  16  21
ENDBRANCH   1  18
TORSDOF 5
