REMARK  Name = ZINC36303585
REMARK  13 active torsions:
REMARK  status: ('A' for Active; 'I' for Inactive)
REMARK    1  A    between atoms: C_1  and  C_2
REMARK    2  A    between atoms: C_3  and  C_21
REMARK    3  A    between atoms: C_4  and  O_13
REMARK    4  A    between atoms: N_5  and  C_7
REMARK    5  A    between atoms: O_13  and  C_14
REMARK    6  A    between atoms: C_21  and  N_22
REMARK    7  A    between atoms: N_22  and  C_23
REMARK    8  A    between atoms: N_22  and  C_27
REMARK    9  A    between atoms: C_23  and  C_24
REMARK   10  A    between atoms: C_27  and  C_28
REMARK   11  A    between atoms: C_28  and  C_30
REMARK   12  A    between atoms: C_28  and  O_37
REMARK   13  A    between atoms: C_30  and  C_31
REMARK                            x       y       z     vdW  Elec       q    Type
REMARK                         _______ _______ _______ _____ _____    ______ ____
ROOT
ATOM      1  C   UNL     1       1.387   1.083   0.650  0.00  0.00    +0.068 C 
ATOM      2  C   UNL     1       0.805  -0.301   0.518  0.00  0.00    +0.065 A 
ATOM      3  C   UNL     1       0.289  -0.863  -0.655  0.00  0.00    +0.021 A 
ATOM      4  C   UNL     1      -0.136  -2.120  -0.363  0.00  0.00    +0.225 A 
ATOM      5  N   UNL     1       0.107  -2.338   0.957  0.00  0.00    -0.200 N 
ATOM      6  N   UNL     1       0.701  -1.182   1.479  0.00  0.00    -0.168 NA
ENDROOT
BRANCH   5   7
ATOM      7  C   UNL     1      -0.181  -3.512   1.668  0.00  0.00    +0.069 A 
ATOM      8  C   UNL     1      -1.389  -4.168   1.467  0.00  0.00    +0.028 A 
ATOM      9  C   UNL     1      -1.669  -5.324   2.168  0.00  0.00    +0.002 A 
ATOM     10  C   UNL     1      -0.750  -5.829   3.069  0.00  0.00    +0.000 A 
ATOM     11  C   UNL     1       0.454  -5.178   3.271  0.00  0.00    +0.002 A 
ATOM     12  C   UNL     1       0.742  -4.024   2.569  0.00  0.00    +0.028 A 
ENDBRANCH   5   7
BRANCH   4  13
ATOM     13  O   UNL     1      -0.702  -2.998  -1.231  0.00  0.00    -0.436 OA
BRANCH  13  14
ATOM     14  C   UNL     1      -2.044  -2.925  -1.427  0.00  0.00    +0.149 A 
ATOM     15  C   UNL     1      -2.779  -1.907  -0.837  0.00  0.00    +0.048 A 
ATOM     16  C   UNL     1      -4.144  -1.835  -1.039  0.00  0.00    +0.004 A 
ATOM     17  C   UNL     1      -4.779  -2.777  -1.828  0.00  0.00    +0.002 A 
ATOM     18  C   UNL     1      -4.050  -3.793  -2.417  0.00  0.00    +0.024 A 
ATOM     19  C   UNL     1      -2.683  -3.867  -2.224  0.00  0.00    +0.083 A 
ATOM     20 CL   UNL     1      -1.766  -5.138  -2.970  0.00  0.00    -0.080 Cl
ENDBRANCH  13  14
ENDBRANCH   4  13
BRANCH   3  21
ATOM     21  C   UNL     1       0.218  -0.192  -2.002  0.00  0.00    -0.036 C 
BRANCH  21  22
ATOM     22  N   UNL     1       1.507  -0.341  -2.692  0.00  0.00    +0.384 N 
ATOM     23  H   UNL     1       2.243   0.035  -2.114  0.00  0.00    -0.081 HD
BRANCH  22  24
ATOM     24  C   UNL     1       1.466   0.386  -3.968  0.00  0.00    -0.075 C 
BRANCH  24  25
ATOM     25  C   UNL     1       1.256   1.878  -3.698  0.00  0.00    -0.028 C 
ATOM     26  C   UNL     1       2.411   2.825  -4.032  0.00  0.00    +0.002 C 
ATOM     27  C   UNL     1       1.158   2.807  -4.910  0.00  0.00    +0.002 C 
ENDBRANCH  24  25
ENDBRANCH  22  24
BRANCH  22  28
ATOM     28  C   UNL     1       1.764  -1.764  -2.948  0.00  0.00    -0.046 C 
BRANCH  28  29
ATOM     29  C   UNL     1       3.184  -1.937  -3.488  0.00  0.00    +0.102 C 
BRANCH  29  30
ATOM     30  O   UNL     1       3.268  -1.373  -4.798  0.00  0.00    -0.393 OA
ATOM     31  H   UNL     1       2.667  -1.777  -5.440  0.00  0.00    +0.210 HD
ENDBRANCH  29  30
BRANCH  29  32
ATOM     32  C   UNL     1       3.528  -3.427  -3.552  0.00  0.00    +0.064 C 
BRANCH  32  33
ATOM     33  C   UNL     1       4.968  -3.593  -3.966  0.00  0.00    -0.045 A 
ATOM     34  C   UNL     1       5.294  -3.692  -5.306  0.00  0.00    +0.004 A 
ATOM     35  C   UNL     1       6.614  -3.844  -5.687  0.00  0.00    +0.000 A 
ATOM     36  C   UNL     1       7.608  -3.897  -4.727  0.00  0.00    +0.000 A 
ATOM     37  C   UNL     1       7.282  -3.797  -3.388  0.00  0.00    +0.000 A 
ATOM     38  C   UNL     1       5.962  -3.641  -3.007  0.00  0.00    +0.004 A 
ENDBRANCH  32  33
ENDBRANCH  29  32
ENDBRANCH  28  29
ENDBRANCH  22  28
ENDBRANCH  21  22
ENDBRANCH   3  21
TORSDOF 12
