REMARK  Name = ZINC38575606
REMARK  9 active torsions:
REMARK  status: ('A' for Active; 'I' for Inactive)
REMARK    1  A    between atoms: C_1  and  C_2
REMARK    2  A    between atoms: C_2  and  O_3
REMARK    3  A    between atoms: O_3  and  C_4
REMARK    4  A    between atoms: C_4  and  C_6
REMARK    5  A    between atoms: C_10  and  N_11
REMARK    6  A    between atoms: C_12  and  C_14
REMARK    7  A    between atoms: C_14  and  S_15
REMARK    8  A    between atoms: S_15  and  C_16
REMARK    9  A    between atoms: C_22  and  C_25
REMARK                            x       y       z     vdW  Elec       q    Type
REMARK                         _______ _______ _______ _____ _____    ______ ____
ROOT
ATOM      1  N   UNL     1      -0.604  -2.455  -3.925  0.00  0.00    -0.279 N 
ATOM      2  C   UNL     1      -1.119  -2.783  -5.126  0.00  0.00    +0.228 C 
ATOM      3  O   UNL     1      -0.397  -3.225  -5.995  0.00  0.00    -0.275 OA
ATOM      4  H   UNL     1      -1.181  -2.102  -3.230  0.00  0.00    +0.155 HD
ENDROOT
BRANCH   1   9
ATOM      5  C   UNL     1       1.449  -2.344  -2.516  0.00  0.00    +0.091 A 
ATOM      6  C   UNL     1       2.876  -2.619  -2.515  0.00  0.00    -0.021 A 
ATOM      7  C   UNL     1       3.343  -3.117  -3.680  0.00  0.00    -0.004 A 
ATOM      8  S   UNL     1       1.922  -3.212  -4.730  0.00  0.00    -0.077 S 
ATOM      9  C   UNL     1       0.750  -2.624  -3.681  0.00  0.00    +0.086 A 
ATOM     10  C   UNL     1       4.757  -3.498  -3.993  0.00  0.00    +0.043 C 
ATOM     11  C   UNL     1       5.669  -2.887  -2.920  0.00  0.00    +0.005 C 
ATOM     12  C   UNL     1       5.082  -3.191  -1.538  0.00  0.00    +0.005 C 
ATOM     13  C   UNL     1       3.799  -2.383  -1.329  0.00  0.00    +0.037 C 
BRANCH   5  14
ATOM     14  C   UNL     1       0.776  -1.800  -1.335  0.00  0.00    +0.342 C 
ATOM     15  O   UNL     1       0.312  -2.552  -0.499  0.00  0.00    -0.245 OA
BRANCH  14  16
ATOM     16  O   UNL     1       0.671  -0.465  -1.174  0.00  0.00    -0.461 OA
BRANCH  16  18
ATOM     17  C   UNL     1      -0.019   1.526   0.010  0.00  0.00    +0.048 C 
ATOM     18  C   UNL     1       0.002  -0.004   0.002  0.00  0.00    +0.229 C 
ENDBRANCH  16  18
ENDBRANCH  14  16
ENDBRANCH   5  14
ENDBRANCH   1   9
BRANCH   2  19
ATOM     19  C   UNL     1      -2.591  -2.599  -5.391  0.00  0.00    +0.172 C 
BRANCH  19  20
ATOM     20  S   UNL     1      -2.971  -3.126  -7.085  0.00  0.00    -0.095 S 
BRANCH  20  21
ATOM     21  C   UNL     1      -4.705  -2.853  -7.236  0.00  0.00    +0.118 A 
ATOM     22  C   UNL     1      -5.356  -3.164  -8.446  0.00  0.00    +0.040 A 
ATOM     23  C   UNL     1      -6.694  -2.958  -8.574  0.00  0.00    +0.053 A 
ATOM     24  C   UNL     1      -7.413  -2.432  -7.485  0.00  0.00    +0.178 A 
ATOM     25  N   UNL     1      -8.690  -2.124  -7.296  0.00  0.00    -0.128 NA
ATOM     26  N   UNL     1      -8.851  -1.666  -6.104  0.00  0.00    -0.125 NA
ATOM     27  C   UNL     1      -7.696  -1.654  -5.464  0.00  0.00    +0.203 A 
ATOM     28  N   UNL     1      -6.752  -2.140  -6.321  0.00  0.00    -0.190 N 
ATOM     29  N   UNL     1      -5.378  -2.367  -6.218  0.00  0.00    -0.157 NA
BRANCH  27  30
ATOM     30  C   UNL     1      -7.468  -1.200  -4.077  0.00  0.00    +0.110 A 
ATOM     31  C   UNL     1      -8.542  -0.732  -3.317  0.00  0.00    +0.031 A 
ATOM     32  C   UNL     1      -8.312  -0.310  -2.020  0.00  0.00    +0.004 A 
ATOM     33  C   UNL     1      -7.017  -0.369  -1.522  0.00  0.00    +0.020 A 
ATOM     34  C   UNL     1      -6.000  -0.844  -2.330  0.00  0.00    +0.111 A 
ATOM     35  N   UNL     1      -6.245  -1.246  -3.561  0.00  0.00    -0.252 NA
ENDBRANCH  27  30
ENDBRANCH  20  21
ENDBRANCH  19  20
ENDBRANCH   2  19
TORSDOF 8
