REMARK  Name = ZINC12498381
REMARK  8 active torsions:
REMARK  status: ('A' for Active; 'I' for Inactive)
REMARK    1  A    between atoms: C_1  and  C_2
REMARK    2  A    between atoms: C_2  and  O_3
REMARK    3  A    between atoms: O_3  and  C_4
REMARK    4  A    between atoms: C_4  and  C_6
REMARK    5  A    between atoms: C_6  and  C_34
REMARK    6  A    between atoms: C_11  and  C_13
REMARK    7  A    between atoms: C_18  and  C_19
REMARK    8  A    between atoms: N_22  and  C_25
REMARK                            x       y       z     vdW  Elec       q    Type
REMARK                         _______ _______ _______ _____ _____    ______ ____
ROOT
ATOM      1  C   UNL     1       1.421   1.397  -0.004  0.00  0.00    +0.070 C 
ATOM      2  C   UNL     1      -0.013   1.086   0.008  0.00  0.00    +0.090 C 
ATOM      3  C   UNL     1      -0.481   1.447  -1.456  0.00  0.00    +0.078 C 
ATOM      4  C   UNL     1       0.641   0.695  -2.183  0.00  0.00    -0.026 C 
ATOM      5  C   UNL     1      -1.844   0.819  -1.344  0.00  0.00    +0.229 C 
ATOM      6  O   UNL     1      -2.464   0.260  -2.223  0.00  0.00    -0.275 OA
ATOM      7  N   UNL     1      -2.240   1.007  -0.051  0.00  0.00    -0.210 N 
ATOM      8  C   UNL     1      -1.211   1.351   0.766  0.00  0.00    +0.229 C 
ATOM      9  O   UNL     1      -1.291   1.782   1.897  0.00  0.00    -0.275 OA
ATOM     10  N   UNL     1       1.849   1.075  -1.397  0.00  0.00    +0.398 N 
ATOM     11  H   UNL     1       2.514   0.293  -1.383  0.00  0.00    -0.083 HD
ATOM     12  H   UNL     1       2.295   1.896  -1.821  0.00  0.00    -0.083 HD
ENDROOT
BRANCH   7  13
ATOM     13  C   UNL     1      -3.567   0.863   0.384  0.00  0.00    +0.048 A 
ATOM     14  C   UNL     1      -3.887   1.073   1.718  0.00  0.00    +0.028 A 
ATOM     15  C   UNL     1      -5.193   0.933   2.147  0.00  0.00    +0.051 A 
ATOM     16  C   UNL     1      -6.186   0.582   1.248  0.00  0.00    +0.166 A 
ATOM     17  C   UNL     1      -5.868   0.370  -0.092  0.00  0.00    +0.168 A 
ATOM     18  C   UNL     1      -4.560   0.517  -0.522  0.00  0.00    +0.073 A 
ATOM     19  O   UNL     1      -7.009   0.040  -0.764  0.00  0.00    -0.453 OA
ATOM     20  C   UNL     1      -8.092   0.450   0.091  0.00  0.00    +0.466 C 
ATOM     21  O   UNL     1      -7.527   0.384   1.414  0.00  0.00    -0.453 OA
ENDBRANCH   7  13
BRANCH   4  22
ATOM     22  C   UNL     1       0.414  -0.793  -2.127  0.00  0.00    -0.058 A 
ATOM     23  C   UNL     1       0.939  -1.534  -1.085  0.00  0.00    +0.002 A 
ATOM     24  C   UNL     1       0.728  -2.899  -1.031  0.00  0.00    +0.000 A 
ATOM     25  C   UNL     1      -0.002  -3.525  -2.024  0.00  0.00    +0.000 A 
ATOM     26  C   UNL     1      -0.524  -2.785  -3.069  0.00  0.00    +0.003 A 
ATOM     27  C   UNL     1      -0.315  -1.419  -3.120  0.00  0.00    -0.049 A 
ATOM     28  C   UNL     1      -0.884  -0.613  -4.260  0.00  0.00    +0.044 C 
ENDBRANCH   4  22
BRANCH   1  29
ATOM     29  C   UNL     1       2.155   0.538   0.993  0.00  0.00    -0.047 A 
ATOM     30  C   UNL     1       1.514   0.109   2.140  0.00  0.00    +0.003 A 
ATOM     31  C   UNL     1       2.185  -0.684   3.052  0.00  0.00    +0.000 A 
ATOM     32  C   UNL     1       3.502  -1.038   2.822  0.00  0.00    +0.000 A 
ATOM     33  C   UNL     1       4.145  -0.604   1.678  0.00  0.00    +0.000 A 
ATOM     34  C   UNL     1       3.471   0.184   0.763  0.00  0.00    +0.003 A 
ENDBRANCH   1  29
BRANCH   1  35
ATOM     35  C   UNL     1       1.645   2.857   0.295  0.00  0.00    +0.301 C 
ATOM     36  O   UNL     1       0.823   3.478   0.926  0.00  0.00    -0.252 OA
BRANCH  35  37
ATOM     37  O   UNL     1       2.759   3.468  -0.138  0.00  0.00    -0.466 OA
BRANCH  37  39
ATOM     38  C   UNL     1       4.229   5.394  -0.387  0.00  0.00    +0.048 C 
ATOM     39  C   UNL     1       2.909   4.875   0.187  0.00  0.00    +0.228 C 
ENDBRANCH  37  39
ENDBRANCH  35  37
ENDBRANCH   1  35
TORSDOF 6
