REMARK  Name = ZINC20432047
REMARK  6 active torsions:
REMARK  status: ('A' for Active; 'I' for Inactive)
REMARK    1  A    between atoms: C_1  and  O_2
REMARK    2  A    between atoms: O_2  and  C_3
REMARK    3  A    between atoms: C_6  and  N_9
REMARK    4  A    between atoms: N_18  and  C_29
REMARK    5  A    between atoms: C_20  and  C_21
REMARK    6  A    between atoms: C_32  and  N_35
REMARK                            x       y       z     vdW  Elec       q    Type
REMARK                         _______ _______ _______ _____ _____    ______ ____
ROOT
ATOM      1  N   UNL     1       3.218  -1.997  -4.245  0.00  0.00    -0.205 N 
ATOM      2  C   UNL     1       3.707  -1.523  -5.404  0.00  0.00    +0.257 C 
ATOM      3  O   UNL     1       3.816  -0.342  -5.683  0.00  0.00    -0.269 OA
ATOM      4  C   UNL     1       4.072  -2.576  -6.243  0.00  0.00    +0.069 C 
ATOM      5  H   UNL     1       4.950  -5.134  -7.884  0.00  0.00    +0.170 HD
ATOM      6  C   UNL     1       3.278  -3.765  -5.679  0.00  0.00    +0.217 C 
ATOM      7  C   UNL     1       3.046  -3.338  -4.260  0.00  0.00    +0.253 C 
ATOM      8  O   UNL     1       2.761  -4.049  -3.320  0.00  0.00    -0.272 OA
ATOM      9  N   UNL     1       4.271  -4.835  -5.864  0.00  0.00    -0.237 N 
ATOM     10  N   UNL     1       4.731  -4.508  -7.176  0.00  0.00    -0.262 N 
ATOM     11  C   UNL     1       4.807  -3.125  -7.246  0.00  0.00    +0.064 C 
ENDROOT
BRANCH  11  12
ATOM     12  C   UNL     1       5.571  -2.366  -8.255  0.00  0.00    +0.016 A 
ATOM     13  C   UNL     1       6.537  -1.440  -7.854  0.00  0.00    +0.012 A 
ATOM     14  C   UNL     1       7.247  -0.734  -8.801  0.00  0.00    +0.021 A 
ATOM     15  C   UNL     1       7.004  -0.940 -10.150  0.00  0.00    +0.042 A 
ATOM     16  C   UNL     1       6.048  -1.855 -10.556  0.00  0.00    +0.040 A 
ATOM     17  C   UNL     1       5.334  -2.573  -9.617  0.00  0.00    +0.051 A 
ATOM     18 CL   UNL     1       4.140  -3.726 -10.127  0.00  0.00    -0.083 Cl
ATOM     19 CL   UNL     1       7.903  -0.045 -11.336  0.00  0.00    -0.083 Cl
ENDBRANCH  11  12
BRANCH   1  23
ATOM     20  C   UNL     1       2.345   0.407  -0.949  0.00  0.00    +0.120 A 
ATOM     21  C   UNL     1       2.014  -0.941  -0.932  0.00  0.00    +0.047 A 
ATOM     22  C   UNL     1       2.303  -1.737  -2.023  0.00  0.00    +0.027 A 
ATOM     23  C   UNL     1       2.924  -1.189  -3.137  0.00  0.00    +0.044 A 
ATOM     24  C   UNL     1       3.255   0.159  -3.153  0.00  0.00    +0.027 A 
ATOM     25  C   UNL     1       2.961   0.956  -2.064  0.00  0.00    +0.047 A 
BRANCH  20  27
ATOM     26  C   UNL     1       1.425   0.559   1.238  0.00  0.00    +0.277 C 
ATOM     27  O   UNL     1       2.060   1.190   0.125  0.00  0.00    -0.495 OA
ENDBRANCH  20  27
ENDBRANCH   1  23
BRANCH   9  28
ATOM     28  C   UNL     1       4.652  -5.870  -5.007  0.00  0.00    +0.049 A 
ATOM     29  C   UNL     1       3.686  -6.642  -4.375  0.00  0.00    +0.027 A 
ATOM     30  C   UNL     1       4.066  -7.665  -3.528  0.00  0.00    +0.034 A 
ATOM     31  C   UNL     1       5.407  -7.920  -3.308  0.00  0.00    +0.126 A 
ATOM     32  C   UNL     1       6.372  -7.153  -3.936  0.00  0.00    +0.034 A 
ATOM     33  C   UNL     1       5.998  -6.133  -4.788  0.00  0.00    +0.027 A 
BRANCH  31  34
ATOM     34  N   UNL     1       5.811  -9.016  -2.399  0.00  0.00    +0.056 N 
ATOM     35  O   UNL     1       4.968  -9.687  -1.850  0.00  0.00    -0.126 OA
ATOM     36  O   UNL     1       6.983  -9.240  -2.206  0.00  0.00    -0.126 OA
ENDBRANCH  31  34
ENDBRANCH   9  28
TORSDOF 5
