REMARK  Name = ZINC08266153
REMARK  7 active torsions:
REMARK  status: ('A' for Active; 'I' for Inactive)
REMARK    1  A    between atoms: C_1  and  C_2
REMARK    2  A    between atoms: C_3  and  N_11
REMARK    3  A    between atoms: C_7  and  N_8
REMARK    4  A    between atoms: C_12  and  C_14
REMARK    5  A    between atoms: C_14  and  O_15
REMARK    6  A    between atoms: O_15  and  C_16
REMARK    7  A    between atoms: C_21  and  C_22
REMARK                            x       y       z     vdW  Elec       q    Type
REMARK                         _______ _______ _______ _____ _____    ______ ____
ROOT
ATOM      1  N   UNL     1      -0.666  -0.802   0.438  0.00  0.00    -0.282 N 
ATOM      2  C   UNL     1       0.596  -0.338   0.529  0.00  0.00    +0.255 C 
ATOM      3  O   UNL     1       1.532  -1.101   0.417  0.00  0.00    -0.272 OA
ATOM      4  H   UNL     1      -1.415  -0.207   0.601  0.00  0.00    +0.155 HD
ENDROOT
BRANCH   1   7
ATOM      5  C   UNL     1      -3.192  -1.933   1.100  0.00  0.00    +0.048 C 
ATOM      6  C   UNL     1      -2.116  -2.734   0.415  0.00  0.00    +0.001 A 
ATOM      7  C   UNL     1      -0.897  -2.142   0.110  0.00  0.00    +0.039 A 
ATOM      8  C   UNL     1       0.095  -2.885  -0.517  0.00  0.00    +0.024 A 
ATOM      9  C   UNL     1      -0.136  -4.209  -0.840  0.00  0.00    +0.004 A 
ATOM     10  C   UNL     1      -1.352  -4.793  -0.540  0.00  0.00    +0.033 A 
ATOM     11  C   UNL     1      -2.342  -4.056   0.084  0.00  0.00    +0.131 A 
BRANCH  11  12
ATOM     12  N   UNL     1      -3.643  -4.685   0.403  0.00  0.00    +0.057 N 
ATOM     13  O   UNL     1      -3.796  -5.883   0.243  0.00  0.00    -0.126 OA
ATOM     14  O   UNL     1      -4.561  -4.005   0.826  0.00  0.00    -0.126 OA
ENDBRANCH  11  12
ENDBRANCH   1   7
BRANCH   2  15
ATOM     15  C   UNL     1       0.844   1.129   0.768  0.00  0.00    +0.324 C 
BRANCH  15  16
ATOM     16  O   UNL     1       2.251   1.372   0.825  0.00  0.00    -0.482 OA
BRANCH  16  17
ATOM     17  C   UNL     1       2.648   2.654   1.036  0.00  0.00    +0.129 A 
ATOM     18  C   UNL     1       1.705   3.658   1.186  0.00  0.00    +0.046 A 
ATOM     19  C   UNL     1       2.110   4.962   1.401  0.00  0.00    +0.004 A 
ATOM     20  C   UNL     1       3.457   5.272   1.469  0.00  0.00    +0.001 A 
ATOM     21  C   UNL     1       4.406   4.282   1.321  0.00  0.00    +0.012 A 
ATOM     22  C   UNL     1       4.009   2.963   1.109  0.00  0.00    +0.024 A 
BRANCH  22  23
ATOM     23  C   UNL     1       5.026   1.894   0.956  0.00  0.00    -0.014 A 
ATOM     24  C   UNL     1       4.928   0.724   1.706  0.00  0.00    +0.008 A 
ATOM     25  C   UNL     1       5.874  -0.270   1.556  0.00  0.00    +0.001 A 
ATOM     26  C   UNL     1       6.924  -0.101   0.671  0.00  0.00    +0.000 A 
ATOM     27  C   UNL     1       7.028   1.061  -0.073  0.00  0.00    +0.001 A 
ATOM     28  C   UNL     1       6.085   2.059   0.065  0.00  0.00    +0.008 A 
ENDBRANCH  22  23
ENDBRANCH  16  17
ENDBRANCH  15  16
ENDBRANCH   2  15
TORSDOF 6
