REMARK  Name = ZINC09593160
REMARK  11 active torsions:
REMARK  status: ('A' for Active; 'I' for Inactive)
REMARK    1  A    between atoms: C_1  and  C_2
REMARK    2  A    between atoms: C_2  and  C_3
REMARK    3  A    between atoms: C_3  and  N_62
REMARK    4  A    between atoms: C_4  and  C_5
REMARK    5  A    between atoms: C_4  and  N_62
REMARK    6  A    between atoms: C_8  and  C_10
REMARK    7  A    between atoms: C_15  and  C_16
REMARK    8  A    between atoms: C_15  and  N_62
REMARK    9  A    between atoms: C_19  and  C_31
REMARK   10  A    between atoms: C_22  and  C_24
REMARK   11  A    between atoms: C_27  and  C_30
REMARK                            x       y       z     vdW  Elec       q    Type
REMARK                         _______ _______ _______ _____ _____    ______ ____
ROOT
ATOM      1  C   UNL     1      -1.077   3.494   0.144  0.00  0.00    +0.219 C 
ATOM      2  O   UNL     1      -1.737   2.788   0.877  0.00  0.00    -0.276 OA
ATOM      3  N   UNL     1      -0.886   4.793   0.451  0.00  0.00    -0.184 N 
ATOM      4  C   UNL     1      -1.423   5.480   1.635  0.00  0.00    +0.172 C 
ATOM      5  C   UNL     1      -0.901   6.923   1.484  0.00  0.00    +0.090 C 
ATOM      6  C   UNL     1      -0.114   6.891   0.194  0.00  0.00    +0.069 C 
ATOM      7  N   UNL     1      -0.152   5.705  -0.305  0.00  0.00    -0.181 NA
ENDROOT
BRANCH   6   8
ATOM      8  C   UNL     1       0.591   8.042  -0.402  0.00  0.00    -0.002 A 
ATOM      9  C   UNL     1       0.558   9.288   0.230  0.00  0.00    +0.010 A 
ATOM     10  C   UNL     1       1.223  10.359  -0.330  0.00  0.00    +0.004 A 
ATOM     11  C   UNL     1       1.913  10.204  -1.520  0.00  0.00    -0.050 A 
ATOM     12  C   UNL     1       1.944   8.975  -2.154  0.00  0.00    +0.004 A 
ATOM     13  C   UNL     1       1.288   7.894  -1.603  0.00  0.00    +0.010 A 
ATOM     14  C   UNL     1       2.632  11.380  -2.128  0.00  0.00    +0.044 C 
ENDBRANCH   6   8
BRANCH   4  15
ATOM     15  C   UNL     1      -0.890   4.856   2.899  0.00  0.00    +0.128 A 
ATOM     16  C   UNL     1      -1.585   4.659   4.033  0.00  0.00    +0.046 A 
ATOM     17  C   UNL     1      -0.702   4.050   4.954  0.00  0.00    +0.041 A 
ATOM     18  C   UNL     1       0.480   3.911   4.327  0.00  0.00    +0.195 A 
ATOM     19  O   UNL     1       0.359   4.395   3.081  0.00  0.00    -0.466 OA
ENDBRANCH   4  15
BRANCH   1  20
ATOM     20  C   UNL     1      -0.471   2.919  -1.111  0.00  0.00    +0.021 C 
BRANCH  20  21
ATOM     21  N   UNL     1      -0.936   1.525  -1.266  0.00  0.00    +0.391 N 
ATOM     22  H   UNL     1      -0.849   1.042  -0.365  0.00  0.00    -0.080 HD
BRANCH  21  23
ATOM     23  C   UNL     1      -0.105   0.825  -2.268  0.00  0.00    -0.078 C 
BRANCH  23  25
ATOM     24  C   UNL     1       2.104  -0.281  -2.644  0.00  0.00    +0.002 C 
ATOM     25  C   UNL     1       1.231   0.451  -1.623  0.00  0.00    -0.022 C 
ENDBRANCH  23  25
ENDBRANCH  21  23
BRANCH  21  26
ATOM     26  C   UNL     1      -2.353   1.509  -1.685  0.00  0.00    +0.021 C 
BRANCH  26  27
ATOM     27  C   UNL     1      -2.863   0.092  -1.623  0.00  0.00    +0.202 A 
ATOM     28  N   UNL     1      -3.400  -0.487  -0.587  0.00  0.00    -0.114 NA
ATOM     29  N   UNL     1      -3.722  -1.696  -0.888  0.00  0.00    -0.107 NA
ATOM     30  C   UNL     1      -3.391  -1.935  -2.138  0.00  0.00    +0.255 A 
ATOM     31  O   UNL     1      -2.840  -0.804  -2.627  0.00  0.00    -0.422 OA
BRANCH  30  32
ATOM     32  C   UNL     1      -3.584  -3.197  -2.866  0.00  0.00    +0.076 A 
ATOM     33  C   UNL     1      -4.139  -4.383  -2.423  0.00  0.00    +0.021 A 
ATOM     34  C   UNL     1      -4.212  -5.440  -3.300  0.00  0.00    +0.008 A 
ATOM     35  C   UNL     1      -3.740  -5.288  -4.565  0.00  0.00    +0.046 A 
ATOM     36  S   UNL     1      -3.170  -3.596  -4.557  0.00  0.00    -0.092 S 
ENDBRANCH  30  32
ENDBRANCH  26  27
ENDBRANCH  21  26
ENDBRANCH  20  21
ENDBRANCH   1  20
TORSDOF 9
