REMARK  Name = ZINC02506442
REMARK  11 active torsions:
REMARK  status: ('A' for Active; 'I' for Inactive)
REMARK    1  A    between atoms: C_1  and  C_2
REMARK    2  A    between atoms: C_5  and  C_8
REMARK    3  A    between atoms: C_8  and  O_10
REMARK    4  A    between atoms: O_10  and  C_11
REMARK    5  A    between atoms: C_14  and  C_19
REMARK    6  A    between atoms: C_16  and  O_17
REMARK    7  A    between atoms: O_17  and  C_18
REMARK    8  A    between atoms: N_20  and  N_21
REMARK    9  A    between atoms: C_22  and  C_24
REMARK   10  A    between atoms: C_24  and  O_25
REMARK   11  A    between atoms: O_25  and  C_26
REMARK                            x       y       z     vdW  Elec       q    Type
REMARK                         _______ _______ _______ _____ _____    ______ ____
ROOT
ATOM      1  C   UNL     1       1.172   2.091   0.001  0.00  0.00    +0.173 A 
ATOM      2  C   UNL     1       2.380   1.409   0.013  0.00  0.00    +0.051 A 
ATOM      3  C   UNL     1       2.398   0.031   0.004  0.00  0.00    +0.013 A 
ATOM      4  C   UNL     1       1.197  -0.683  -0.018  0.00  0.00    -0.002 A 
ATOM      5  C   UNL     1      -0.020   0.004  -0.030  0.00  0.00    +0.059 A 
ATOM      6  C   UNL     1      -0.030   1.386  -0.021  0.00  0.00    +0.163 A 
ENDROOT
BRANCH   6   7
ATOM      7  O   UNL     1      -1.212   2.058  -0.038  0.00  0.00    -0.491 OA
ATOM      8  C   UNL     1      -2.405   1.271  -0.066  0.00  0.00    +0.277 C 
ENDBRANCH   6   7
BRANCH   4   9
ATOM      9  C   UNL     1       1.213  -2.157  -0.028  0.00  0.00    +0.138 C 
ATOM     10  N   UNL     1       2.345  -2.793  -0.017  0.00  0.00    -0.188 NA
BRANCH  10  11
ATOM     11  N   UNL     1       2.360  -4.194  -0.026  0.00  0.00    -0.204 N 
ATOM     12  C   UNL     1       3.535  -4.855  -0.014  0.00  0.00    +0.270 C 
ATOM     13  O   UNL     1       4.579  -4.237   0.005  0.00  0.00    -0.270 OA
ATOM     14  H   UNL     1       1.526  -4.689  -0.041  0.00  0.00    +0.177 HD
BRANCH  12  15
ATOM     15  C   UNL     1       3.552  -6.362  -0.025  0.00  0.00    +0.326 C 
BRANCH  15  16
ATOM     16  O   UNL     1       4.905  -6.823  -0.009  0.00  0.00    -0.483 OA
BRANCH  16  17
ATOM     17  C   UNL     1       5.098  -8.168  -0.016  0.00  0.00    +0.121 A 
ATOM     18  C   UNL     1       4.008  -9.027  -0.031  0.00  0.00    +0.047 A 
ATOM     19  C   UNL     1       4.207 -10.394  -0.044  0.00  0.00    +0.019 A 
ATOM     20  C   UNL     1       5.491 -10.907  -0.030  0.00  0.00    +0.018 A 
ATOM     21  C   UNL     1       6.580 -10.053  -0.008  0.00  0.00    +0.019 A 
ATOM     22  C   UNL     1       6.385  -8.685  -0.001  0.00  0.00    +0.047 A 
ATOM     23 BR   UNL     1       5.760 -12.779  -0.041  0.00  0.00    -0.050 Br
ENDBRANCH  16  17
ENDBRANCH  15  16
ENDBRANCH  12  15
ENDBRANCH  10  11
ENDBRANCH   4   9
BRANCH   1  24
ATOM     24  O   UNL     1       1.160   3.450   0.009  0.00  0.00    -0.419 OA
BRANCH  24  25
ATOM     25  C   UNL     1       0.954   4.053   1.196  0.00  0.00    +0.345 C 
ATOM     26  O   UNL     1       0.887   3.388   2.211  0.00  0.00    -0.245 OA
BRANCH  25  31
ATOM     27  C   UNL     1       0.389   9.772   1.460  0.00  0.00    +0.044 C 
ATOM     28  C   UNL     1       0.537   8.274   1.391  0.00  0.00    -0.050 A 
ATOM     29  C   UNL     1       0.461   7.521   2.549  0.00  0.00    +0.004 A 
ATOM     30  C   UNL     1       0.595   6.149   2.493  0.00  0.00    +0.015 A 
ATOM     31  C   UNL     1       0.809   5.521   1.264  0.00  0.00    +0.059 A 
ATOM     32  C   UNL     1       0.890   6.288   0.100  0.00  0.00    +0.015 A 
ATOM     33  C   UNL     1       0.748   7.659   0.170  0.00  0.00    +0.004 A 
ENDBRANCH  25  31
ENDBRANCH  24  25
ENDBRANCH   1  24
TORSDOF 9
