REMARK  Name = ZINC12886357
REMARK  8 active torsions:
REMARK  status: ('A' for Active; 'I' for Inactive)
REMARK    1  A    between atoms: C_1  and  C_2
REMARK    2  A    between atoms: C_17  and  C_19
REMARK    3  A    between atoms: C_19  and  C_20
REMARK    4  A    between atoms: C_20  and  S_21
REMARK    5  A    between atoms: S_21  and  C_22
REMARK    6  A    between atoms: N_25  and  C_28
REMARK    7  A    between atoms: C_28  and  C_29
REMARK    8  A    between atoms: C_29  and  C_30
REMARK                            x       y       z     vdW  Elec       q    Type
REMARK                         _______ _______ _______ _____ _____    ______ ____
ROOT
ATOM      1  C   UNL     1       4.522   5.783   7.615  0.00  0.00    +0.044 C 
ATOM      2  C   UNL     1       4.452   4.278   7.575  0.00  0.00    -0.049 A 
ATOM      3  C   UNL     1       3.283   3.649   7.182  0.00  0.00    +0.008 A 
ATOM      4  C   UNL     1       3.219   2.274   7.146  0.00  0.00    -0.026 A 
ATOM      5  C   UNL     1       4.322   1.503   7.500  0.00  0.00    +0.054 A 
ATOM      6  C   UNL     1       5.495   2.144   7.895  0.00  0.00    +0.063 A 
ATOM      7  C   UNL     1       5.554   3.523   7.930  0.00  0.00    +0.025 A 
ATOM      8 CL   UNL     1       6.886   1.207   8.342  0.00  0.00    -0.082 Cl
ATOM      9  N   UNL     1       4.020   0.144   7.385  0.00  0.00    -0.285 N 
ATOM     10  C   UNL     1       2.756  -0.060   6.966  0.00  0.00    +0.211 C 
ATOM     11  O   UNL     1       2.220  -1.132   6.777  0.00  0.00    -0.277 OA
ATOM     12  C   UNL     1       2.138   1.298   6.777  0.00  0.00    +0.050 C 
ATOM     13  C   UNL     1       0.894   1.475   7.655  0.00  0.00    +0.088 C 
ATOM     14  C   UNL     1      -0.303   1.187   6.704  0.00  0.00    +0.073 C 
ATOM     15  C   UNL     1       0.347   0.845   5.346  0.00  0.00    -0.057 C 
ATOM     16  C   UNL     1      -0.919  -0.061   7.289  0.00  0.00    +0.224 C 
ATOM     17  O   UNL     1      -1.894  -0.632   6.848  0.00  0.00    -0.275 OA
ATOM     18  N   UNL     1      -0.224  -0.439   8.367  0.00  0.00    -0.241 N 
ATOM     19  C   UNL     1       0.815   0.351   8.663  0.00  0.00    +0.225 C 
ATOM     20  O   UNL     1       1.574   0.190   9.594  0.00  0.00    -0.275 OA
ATOM     21  H   UNL     1       4.646  -0.569   7.583  0.00  0.00    +0.155 HD
ATOM     22  N   UNL     1       1.667   1.477   5.415  0.00  0.00    +0.394 N 
ATOM     23  H   UNL     1       2.311   1.026   4.754  0.00  0.00    -0.083 HD
ATOM     24  H   UNL     1       1.593   2.477   5.192  0.00  0.00    -0.083 HD
ENDROOT
BRANCH  15  25
ATOM     25  C   UNL     1      -0.487   1.417   4.198  0.00  0.00    -0.004 C 
BRANCH  25  26
ATOM     26  C   UNL     1       0.127   0.993   2.862  0.00  0.00    +0.067 C 
BRANCH  26  27
ATOM     27  S   UNL     1      -0.862   1.671   1.500  0.00  0.00    -0.164 S 
ATOM     28  C   UNL     1      -0.013   1.086   0.008  0.00  0.00    +0.084 C 
ENDBRANCH  26  27
ENDBRANCH  25  26
ENDBRANCH  15  25
BRANCH  18  29
ATOM     29  C   UNL     1      -0.570  -1.622   9.159  0.00  0.00    +0.121 C 
BRANCH  29  30
ATOM     30  C   UNL     1      -1.544  -1.224  10.270  0.00  0.00    +0.054 C 
BRANCH  30  31
ATOM     31  C   UNL     1      -1.900  -2.441  11.085  0.00  0.00    -0.046 A 
ATOM     32  C   UNL     1      -2.990  -3.214  10.731  0.00  0.00    +0.004 A 
ATOM     33  C   UNL     1      -3.315  -4.332  11.476  0.00  0.00    +0.000 A 
ATOM     34  C   UNL     1      -2.555  -4.672  12.580  0.00  0.00    +0.000 A 
ATOM     35  C   UNL     1      -1.468  -3.896  12.937  0.00  0.00    +0.000 A 
ATOM     36  C   UNL     1      -1.141  -2.780  12.189  0.00  0.00    +0.004 A 
ENDBRANCH  30  31
ENDBRANCH  29  30
ENDBRANCH  18  29
TORSDOF 6
