REMARK  Name = ZINC54405141
REMARK  3 active torsions:
REMARK  status: ('A' for Active; 'I' for Inactive)
REMARK    1  A    between atoms: C_3  and  N_20
REMARK    2  A    between atoms: C_6  and  C_7
REMARK    3  A    between atoms: C_13  and  C_16
REMARK                            x       y       z     vdW  Elec       q    Type
REMARK                         _______ _______ _______ _____ _____    ______ ____
ROOT
ATOM      1  C   UNL     1      -1.264  -0.760   0.011  0.00  0.00    +0.247 C 
ATOM      2  O   UNL     1      -2.322  -0.173   0.131  0.00  0.00    -0.270 OA
ATOM      3  N   UNL     1      -1.248  -2.104  -0.099  0.00  0.00    -0.297 N 
ATOM      4  C   UNL     1       0.024  -2.838  -0.111  0.00  0.00    +0.108 C 
ATOM      5  C   UNL     1      -0.021  -3.922   0.971  0.00  0.00    +0.020 C 
ATOM      6  C   UNL     1      -1.256  -4.800   0.756  0.00  0.00    +0.016 C 
ATOM      7  C   UNL     1      -2.520  -3.945   0.875  0.00  0.00    +0.092 C 
ATOM      8  C   UNL     1      -2.502  -2.862  -0.202  0.00  0.00    +0.120 C 
ENDROOT
BRANCH   1  14
ATOM      9  C   UNL     1       1.010  -0.356  -0.917  0.00  0.00    +0.015 A 
ATOM     10  C   UNL     1       2.190   0.353  -0.941  0.00  0.00    +0.026 A 
ATOM     11  C   UNL     1       2.380   1.421  -0.070  0.00  0.00    +0.060 A 
ATOM     12  C   UNL     1       1.376   1.777   0.830  0.00  0.00    +0.145 A 
ATOM     13  C   UNL     1       0.193   1.071   0.858  0.00  0.00    +0.053 A 
ATOM     14  C   UNL     1       0.001  -0.003  -0.017  0.00  0.00    +0.040 A 
ATOM     15  F   UNL     1       1.564   2.815   1.674  0.00  0.00    -0.204 F 
BRANCH  11  16
ATOM     16  N   UNL     1       3.574   2.135  -0.097  0.00  0.00    -0.356 N 
ATOM     17  H   UNL     1       4.273   1.887  -0.722  0.00  0.00    +0.142 HD
ATOM     18  H   UNL     1       3.708   2.880   0.510  0.00  0.00    +0.142 HD
ENDBRANCH  11  16
ENDBRANCH   1  14
BRANCH   7  19
ATOM     19  C   UNL     1      -3.736  -4.816   0.696  0.00  0.00    +0.215 C 
ATOM     20  O   UNL     1      -3.606  -6.005   0.493  0.00  0.00    -0.276 OA
ATOM     21  N   UNL     1      -4.968  -4.275   0.762  0.00  0.00    -0.329 N 
ATOM     22  H   UNL     1      -5.073  -3.324   0.924  0.00  0.00    +0.145 HD
ATOM     23  H   UNL     1      -5.751  -4.836   0.646  0.00  0.00    +0.145 HD
ENDBRANCH   7  19
TORSDOF 3
