REMARK  Name = ZINC11996281
REMARK  9 active torsions:
REMARK  status: ('A' for Active; 'I' for Inactive)
REMARK    1  A    between atoms: C_1  and  C_2
REMARK    2  A    between atoms: C_5  and  C_7
REMARK    3  A    between atoms: N_9  and  C_10
REMARK    4  A    between atoms: N_9  and  C_20
REMARK    5  A    between atoms: C_10  and  C_11
REMARK    6  A    between atoms: C_20  and  C_21
REMARK    7  A    between atoms: C_29  and  N_30
REMARK    8  A    between atoms: N_30  and  C_31
REMARK    9  A    between atoms: N_30  and  C_32
REMARK                            x       y       z     vdW  Elec       q    Type
REMARK                         _______ _______ _______ _____ _____    ______ ____
ROOT
ATOM      1  C   UNL     1       6.269  -2.546   1.063  0.00  0.00    +0.254 C 
ATOM      2  O   UNL     1       5.572  -3.276   1.743  0.00  0.00    -0.269 OA
ATOM      3  N   UNL     1       6.055  -1.216   1.065  0.00  0.00    -0.288 N 
ENDROOT
BRANCH   1   8
ATOM      4  C   UNL     1      10.611  -3.706  -2.261  0.00  0.00    +0.051 C 
ATOM      5  C   UNL     1       9.415  -3.663  -1.345  0.00  0.00    -0.013 A 
ATOM      6  C   UNL     1       8.723  -4.703  -0.810  0.00  0.00    +0.011 A 
ATOM      7  C   UNL     1       7.653  -4.445   0.009  0.00  0.00    +0.021 A 
ATOM      8  C   UNL     1       7.342  -3.115   0.243  0.00  0.00    +0.074 A 
ATOM      9  S   UNL     1       8.585  -2.274  -0.723  0.00  0.00    -0.089 S 
ENDBRANCH   1   8
BRANCH   3  10
ATOM     10  C   UNL     1       5.063  -0.635   1.973  0.00  0.00    +0.143 C 
BRANCH  10  11
ATOM     11  C   UNL     1       3.719  -0.596   1.292  0.00  0.00    -0.026 A 
ATOM     12  C   UNL     1       2.856  -1.670   1.407  0.00  0.00    +0.009 A 
ATOM     13  C   UNL     1       1.623  -1.640   0.783  0.00  0.00    +0.050 A 
ATOM     14  C   UNL     1       1.249  -0.531   0.040  0.00  0.00    +0.166 A 
ATOM     15  C   UNL     1       2.118   0.551  -0.075  0.00  0.00    +0.167 A 
ATOM     16  C   UNL     1       3.352   0.513   0.553  0.00  0.00    +0.054 A 
ATOM     17  O   UNL     1       1.525   1.506  -0.849  0.00  0.00    -0.453 OA
ATOM     18  C   UNL     1       0.125   1.171  -0.867  0.00  0.00    +0.466 C 
ATOM     19  O   UNL     1       0.111  -0.254  -0.661  0.00  0.00    -0.453 OA
ENDBRANCH  10  11
ENDBRANCH   3  10
BRANCH   3  20
ATOM     20  C   UNL     1       6.813  -0.350   0.159  0.00  0.00    +0.147 C 
BRANCH  20  21
ATOM     21  C   UNL     1       8.112   0.047   0.813  0.00  0.00    +0.008 A 
ATOM     22  C   UNL     1       8.439  -0.451   2.038  0.00  0.00    +0.018 A 
ATOM     23  C   UNL     1       9.662  -0.055   2.616  0.00  0.00    -0.001 A 
ATOM     24  C   UNL     1      10.061  -0.531   3.875  0.00  0.00    +0.011 A 
ATOM     25  C   UNL     1      11.249  -0.126   4.403  0.00  0.00    +0.021 A 
ATOM     26  C   UNL     1      12.077   0.754   3.708  0.00  0.00    +0.043 A 
ATOM     27  C   UNL     1      11.720   1.234   2.483  0.00  0.00    +0.046 A 
ATOM     28  C   UNL     1      10.501   0.839   1.907  0.00  0.00    +0.049 A 
ATOM     29  C   UNL     1       8.988   0.925   0.160  0.00  0.00    +0.103 A 
ATOM     30 CL   UNL     1      13.585   1.246   4.413  0.00  0.00    -0.083 Cl
ATOM     31  N   UNL     1      10.173   1.344   0.669  0.00  0.00    -0.343 N 
ATOM     32  H   UNL     1      10.785   1.996   0.164  0.00  0.00    +0.167 HD
BRANCH  29  33
ATOM     33  N   UNL     1       8.644   1.419  -1.090  0.00  0.00    -0.322 N 
ATOM     34  C   UNL     1       8.434   2.872  -1.042  0.00  0.00    +0.130 C 
ATOM     35  C   UNL     1       9.657   1.066  -2.093  0.00  0.00    +0.130 C 
ENDBRANCH  29  33
ENDBRANCH  20  21
ENDBRANCH   3  20
TORSDOF 6
