REMARK  Name = ZINC45051454
REMARK  4 active torsions:
REMARK  status: ('A' for Active; 'I' for Inactive)
REMARK    1  A    between atoms: C_1  and  C_2
REMARK    2  A    between atoms: C_4  and  C_7
REMARK    3  A    between atoms: N_9  and  N_10
REMARK    4  A    between atoms: N_10  and  C_11
REMARK                            x       y       z     vdW  Elec       q    Type
REMARK                         _______ _______ _______ _____ _____    ______ ____
ROOT
ATOM      1  N   UNL     1      -1.727  -5.728  -0.022  0.00  0.00    -0.261 N 
ATOM      2  H   UNL     1      -2.693  -5.636  -0.006  0.00  0.00    +0.170 HD
ENDROOT
BRANCH   1   3
ATOM      3  C   UNL     1      -1.147  -6.995  -0.138  0.00  0.00    +0.081 A 
ATOM      4  C   UNL     1      -1.749  -7.967  -0.927  0.00  0.00    +0.066 A 
ATOM      5  C   UNL     1      -1.172  -9.218  -1.040  0.00  0.00    +0.042 A 
ATOM      6  C   UNL     1       0.003  -9.503  -0.367  0.00  0.00    +0.044 A 
ATOM      7  C   UNL     1       0.605  -8.537   0.420  0.00  0.00    +0.042 A 
ATOM      8  C   UNL     1       0.036  -7.282   0.532  0.00  0.00    +0.066 A 
ATOM      9 CL   UNL     1       0.796  -6.069   1.514  0.00  0.00    -0.081 Cl
ATOM     10 CL   UNL     1       0.724 -11.076  -0.511  0.00  0.00    -0.083 Cl
ATOM     11 CL   UNL     1      -3.224  -7.611  -1.770  0.00  0.00    -0.081 Cl
ENDBRANCH   1   3
BRANCH   1  14
ATOM     12  C   UNL     1      -1.468  -3.383   0.297  0.00  0.00    +0.282 C 
ATOM     13  O   UNL     1      -2.673  -3.280   0.420  0.00  0.00    -0.267 OA
ATOM     14  N   UNL     1      -0.914  -4.590   0.071  0.00  0.00    -0.231 N 
ATOM     15  H   UNL     1       0.047  -4.672  -0.027  0.00  0.00    +0.173 HD
BRANCH  12  19
ATOM     16  C   UNL     1       0.019   1.439   0.867  0.00  0.00    +0.089 C 
ATOM     17  C   UNL     1       0.030  -0.052   0.649  0.00  0.00    +0.135 A 
ATOM     18  C   UNL     1      -1.050  -0.854   0.628  0.00  0.00    +0.080 A 
ATOM     19  C   UNL     1      -0.608  -2.179   0.395  0.00  0.00    +0.169 A 
ATOM     20  N   UNL     1       0.698  -2.151   0.283  0.00  0.00    -0.073 NA
ATOM     21  O   UNL     1       1.118  -0.807   0.436  0.00  0.00    -0.359 OA
ENDBRANCH  12  19
ENDBRANCH   1  14
TORSDOF 3
