REMARK  Name = ZINC09279306
REMARK  12 active torsions:
REMARK  status: ('A' for Active; 'I' for Inactive)
REMARK    1  A    between atoms: C_1  and  C_2
REMARK    2  A    between atoms: N_10  and  C_11
REMARK    3  A    between atoms: C_11  and  C_13
REMARK    4  A    between atoms: C_16  and  S_19
REMARK    5  A    between atoms: S_19  and  N_22
REMARK    6  A    between atoms: N_22  and  C_23
REMARK    7  A    between atoms: N_22  and  C_24
REMARK    8  A    between atoms: C_24  and  C_25
REMARK    9  A    between atoms: N_31  and  C_32
REMARK   10  A    between atoms: C_32  and  C_33
REMARK   11  A    between atoms: C_33  and  O_34
REMARK   12  A    between atoms: O_34  and  C_35
REMARK                            x       y       z     vdW  Elec       q    Type
REMARK                         _______ _______ _______ _____ _____    ______ ____
ROOT
ATOM      1  C   UNL     1      -3.660   7.474  -0.245  0.00  0.00    +0.039 A 
ATOM      2  C   UNL     1      -5.042   7.280  -0.233  0.00  0.00    +0.015 A 
ATOM      3  C   UNL     1      -5.888   8.370  -0.213  0.00  0.00    +0.029 A 
ATOM      4  C   UNL     1      -5.369   9.653  -0.216  0.00  0.00    +0.106 A 
ATOM      5  C   UNL     1      -4.000   9.851  -0.233  0.00  0.00    +0.029 A 
ATOM      6  C   UNL     1      -3.143   8.769  -0.247  0.00  0.00    +0.015 A 
ENDROOT
BRANCH   4   7
ATOM      7  S   UNL     1      -6.456  11.039  -0.197  0.00  0.00    +0.061 S 
ATOM      8  O   UNL     1      -7.636  10.620   0.474  0.00  0.00    -0.153 OA
ATOM      9  O   UNL     1      -5.687  12.152   0.237  0.00  0.00    -0.153 OA
BRANCH   7  10
ATOM     10  N   UNL     1      -6.887  11.345  -1.766  0.00  0.00    -0.175 NA
ATOM     11  C   UNL     1      -8.003  10.616  -2.374  0.00  0.00    +0.132 C 
BRANCH  10  12
ATOM     12  C   UNL     1      -6.152  12.343  -2.546  0.00  0.00    +0.144 C 
BRANCH  12  13
ATOM     13  C   UNL     1      -6.867  13.667  -2.469  0.00  0.00    -0.032 A 
ATOM     14  C   UNL     1      -7.904  13.945  -3.340  0.00  0.00    +0.005 A 
ATOM     15  C   UNL     1      -8.564  15.158  -3.265  0.00  0.00    +0.000 A 
ATOM     16  C   UNL     1      -8.180  16.097  -2.327  0.00  0.00    +0.000 A 
ATOM     17  C   UNL     1      -7.139  15.822  -1.460  0.00  0.00    +0.000 A 
ATOM     18  C   UNL     1      -6.483  14.607  -1.530  0.00  0.00    +0.005 A 
ENDBRANCH  12  13
ENDBRANCH  10  12
ENDBRANCH   7  10
ENDBRANCH   4   7
BRANCH   1  19
ATOM     19  C   UNL     1      -2.746   6.308  -0.261  0.00  0.00    +0.269 C 
ATOM     20  O   UNL     1      -1.540   6.480  -0.276  0.00  0.00    -0.268 OA
BRANCH  19  30
ATOM     21  C   UNL     1       1.720  -0.831  -0.341  0.00  0.00    +0.044 C 
ATOM     22  C   UNL     1       0.515   0.074  -0.322  0.00  0.00    -0.049 A 
ATOM     23  C   UNL     1      -0.763  -0.461  -0.307  0.00  0.00    +0.005 A 
ATOM     24  C   UNL     1      -1.874   0.348  -0.295  0.00  0.00    +0.027 A 
ATOM     25  C   UNL     1      -1.744   1.746  -0.288  0.00  0.00    +0.058 A 
ATOM     26  C   UNL     1      -0.439   2.259  -0.303  0.00  0.00    +0.039 A 
ATOM     27  C   UNL     1       0.672   1.448  -0.320  0.00  0.00    +0.020 A 
ATOM     28  S   UNL     1      -0.691   4.016  -0.294  0.00  0.00    -0.052 S 
ATOM     29  C   UNL     1      -2.425   4.022  -0.272  0.00  0.00    +0.167 A 
ATOM     30  N   UNL     1      -3.245   5.068  -0.258  0.00  0.00    -0.152 NA
ATOM     31  N   UNL     1      -2.744   2.700  -0.272  0.00  0.00    -0.319 N 
BRANCH  31  32
ATOM     32  C   UNL     1      -4.149   2.287  -0.254  0.00  0.00    +0.152 C 
BRANCH  32  33
ATOM     33  C   UNL     1      -4.954   3.250   0.621  0.00  0.00    +0.181 C 
BRANCH  33  34
ATOM     34  O   UNL     1      -6.295   2.774   0.745  0.00  0.00    -0.381 OA
ATOM     35  C   UNL     1      -7.135   3.606   1.547  0.00  0.00    +0.194 C 
ENDBRANCH  33  34
ENDBRANCH  32  33
ENDBRANCH  31  32
ENDBRANCH  19  30
ENDBRANCH   1  19
TORSDOF 9
