REMARK  Name = ZINC00160646
REMARK  4 active torsions:
REMARK  status: ('A' for Active; 'I' for Inactive)
REMARK    1  A    between atoms: C_5  and  O_14
REMARK    2  A    between atoms: C_6  and  C_7
REMARK    3  A    between atoms: C_8  and  C_9
REMARK    4  A    between atoms: C_8  and  C_11
REMARK                            x       y       z     vdW  Elec       q    Type
REMARK                         _______ _______ _______ _____ _____    ______ ____
ROOT
ATOM      1  C   UNL     1      -2.567   0.528   0.290  0.00  0.00    +0.031 A 
ATOM      2  C   UNL     1      -3.849   0.065   0.490  0.00  0.00    +0.043 A 
ATOM      3  C   UNL     1      -4.078  -1.281   0.735  0.00  0.00    +0.043 A 
ATOM      4  C   UNL     1      -3.024  -2.174   0.780  0.00  0.00    +0.084 A 
ATOM      5  C   UNL     1      -1.726  -1.730   0.576  0.00  0.00    +0.142 A 
ATOM      6  C   UNL     1      -1.488  -0.366   0.333  0.00  0.00    +0.021 A 
ATOM      7 CL   UNL     1      -3.326  -3.856   1.087  0.00  0.00    -0.080 Cl
ATOM      8 CL   UNL     1      -5.185   1.172   0.436  0.00  0.00    -0.083 Cl
ENDROOT
BRANCH   6   9
ATOM      9  C   UNL     1      -0.122   0.117   0.122  0.00  0.00    +0.035 C 
ATOM     10  C   UNL     1       0.150   0.983  -0.916  0.00  0.00    +0.114 C 
BRANCH  10  11
ATOM     11  C   UNL     1      -0.869   1.240  -1.945  0.00  0.00    +0.252 C 
ATOM     12  O   UNL     1      -1.905   0.601  -1.949  0.00  0.00    -0.270 OA
ATOM     13  N   UNL     1      -0.656   2.184  -2.883  0.00  0.00    -0.325 N 
ATOM     14  H   UNL     1       0.169   2.693  -2.880  0.00  0.00    +0.145 HD
ATOM     15  H   UNL     1      -1.328   2.353  -3.562  0.00  0.00    +0.145 HD
ENDBRANCH  10  11
BRANCH  10  16
ATOM     16  C   UNL     1       1.426   1.628  -0.995  0.00  0.00    +0.104 C 
ATOM     17  N   UNL     1       2.438   2.139  -1.057  0.00  0.00    -0.191 NA
ENDBRANCH  10  16
ENDBRANCH   6   9
BRANCH   5  18
ATOM     18  O   UNL     1      -0.692  -2.607   0.615  0.00  0.00    -0.505 OA
ATOM     19  H   UNL     1      -0.306  -2.722   1.494  0.00  0.00    +0.292 HD
ENDBRANCH   5  18
TORSDOF 4
