REMARK  Name = ZINC63746639
REMARK  6 active torsions:
REMARK  status: ('A' for Active; 'I' for Inactive)
REMARK    1  A    between atoms: C_1  and  C_2
REMARK    2  A    between atoms: C_5  and  N_9
REMARK    3  A    between atoms: N_12  and  C_13
REMARK    4  A    between atoms: C_15  and  C_37
REMARK    5  A    between atoms: C_18  and  C_31
REMARK    6  A    between atoms: C_19  and  C_23
REMARK                            x       y       z     vdW  Elec       q    Type
REMARK                         _______ _______ _______ _____ _____    ______ ____
ROOT
ATOM      1  C   UNL     1       0.512  -6.851   1.536  0.00  0.00    +0.059 A 
ATOM      2  C   UNL     1       0.525  -5.946   2.551  0.00  0.00    +0.028 A 
ATOM      3  C   UNL     1       0.446  -6.339   3.890  0.00  0.00    -0.048 A 
ATOM      4  C   UNL     1       0.351  -7.637   4.261  0.00  0.00    +0.013 A 
ATOM      5  C   UNL     1       0.329  -8.661   3.283  0.00  0.00    +0.006 A 
ATOM      6  C   UNL     1       0.242 -10.039   3.370  0.00  0.00    -0.000 C 
ATOM      7  C   UNL     1       0.271 -10.543   1.944  0.00  0.00    +0.198 C 
ATOM      8  N   UNL     1       0.378  -9.350   1.097  0.00  0.00    -0.368 N 
ATOM      9  C   UNL     1       0.405  -8.283   1.858  0.00  0.00    +0.065 A 
ATOM     10  C   UNL     1       0.467  -5.278   4.961  0.00  0.00    +0.044 C 
ATOM     11  H   UNL     1       0.419  -9.351   0.128  0.00  0.00    +0.161 HD
ENDROOT
BRANCH   7  12
ATOM     12  C   UNL     1      -0.999 -11.290   1.632  0.00  0.00    +0.243 C 
ATOM     13  O   UNL     1      -1.950 -10.701   1.164  0.00  0.00    -0.273 OA
ATOM     14  N   UNL     1      -1.078 -12.614   1.872  0.00  0.00    -0.295 N 
ATOM     15  C   UNL     1       0.014 -13.327   2.554  0.00  0.00    +0.136 C 
ATOM     16  C   UNL     1      -0.586 -14.142   3.706  0.00  0.00    +0.179 C 
ATOM     17  O   UNL     1      -1.655 -14.948   3.204  0.00  0.00    -0.377 OA
ATOM     18  C   UNL     1      -2.748 -14.202   2.665  0.00  0.00    +0.179 C 
ATOM     19  C   UNL     1      -2.261 -13.389   1.465  0.00  0.00    +0.136 C 
ENDBRANCH   7  12
BRANCH   1  23
ATOM     20  N   UNL     1       0.016  -4.902  -1.464  0.00  0.00    -0.269 N 
ATOM     21  C   UNL     1       0.023  -5.264  -0.166  0.00  0.00    +0.308 C 
ATOM     22  O   UNL     1      -0.485  -4.541   0.670  0.00  0.00    -0.252 OA
ATOM     23  N   UNL     1       0.592  -6.427   0.206  0.00  0.00    -0.267 N 
ATOM     24  H   UNL     1       0.363  -5.507  -2.138  0.00  0.00    +0.156 HD
ATOM     25  H   UNL     1       1.058  -6.971  -0.448  0.00  0.00    +0.156 HD
BRANCH  20  30
ATOM     26  C   UNL     1      -2.038   0.166  -2.982  0.00  0.00    +0.047 C 
ATOM     27  C   UNL     1      -1.493  -1.180  -2.579  0.00  0.00    -0.015 A 
ATOM     28  C   UNL     1      -0.926  -1.349  -1.330  0.00  0.00    +0.008 A 
ATOM     29  C   UNL     1      -0.425  -2.582  -0.957  0.00  0.00    +0.024 A 
ATOM     30  C   UNL     1      -0.491  -3.653  -1.839  0.00  0.00    +0.038 A 
ATOM     31  C   UNL     1      -1.061  -3.482  -3.094  0.00  0.00    +0.062 A 
ATOM     32  C   UNL     1      -1.565  -2.247  -3.460  0.00  0.00    +0.128 A 
ATOM     33  F   UNL     1      -2.124  -2.080  -4.678  0.00  0.00    -0.205 F 
ENDBRANCH  20  30
ENDBRANCH   1  23
BRANCH   6  34
ATOM     34  C   UNL     1       0.143 -10.843   4.590  0.00  0.00    -0.019 A 
ATOM     35  C   UNL     1       1.207 -11.671   4.977  0.00  0.00    +0.008 A 
ATOM     36  C   UNL     1       1.105 -12.424   6.127  0.00  0.00    +0.001 A 
ATOM     37  C   UNL     1      -0.043 -12.364   6.899  0.00  0.00    +0.000 A 
ATOM     38  C   UNL     1      -1.098 -11.550   6.525  0.00  0.00    +0.001 A 
ATOM     39  C   UNL     1      -1.012 -10.786   5.382  0.00  0.00    +0.008 A 
ENDBRANCH   6  34
TORSDOF 4
