REMARK  Name = ZINC39678228
REMARK  9 active torsions:
REMARK  status: ('A' for Active; 'I' for Inactive)
REMARK    1  A    between atoms: C_1  and  O_2
REMARK    2  A    between atoms: O_2  and  C_3
REMARK    3  A    between atoms: C_5  and  C_11
REMARK    4  A    between atoms: C_7  and  O_9
REMARK    5  A    between atoms: O_9  and  C_10
REMARK    6  A    between atoms: C_15  and  C_24
REMARK    7  A    between atoms: N_26  and  C_27
REMARK    8  A    between atoms: C_27  and  C_28
REMARK    9  A    between atoms: C_33  and  N_34
REMARK                            x       y       z     vdW  Elec       q    Type
REMARK                         _______ _______ _______ _____ _____    ______ ____
ROOT
ATOM      1  C   UNL     1       1.451  -4.586   2.101  0.00  0.00    +0.247 C 
ATOM      2  O   UNL     1       0.750  -5.306   1.417  0.00  0.00    -0.270 OA
ATOM      3  N   UNL     1       2.091  -5.092   3.174  0.00  0.00    -0.296 N 
ATOM      4  C   UNL     1       2.875  -4.356   4.194  0.00  0.00    +0.121 C 
ATOM      5  C   UNL     1       2.518  -5.043   5.531  0.00  0.00    +0.100 C 
ATOM      6  C   UNL     1       2.057  -6.456   5.136  0.00  0.00    -0.004 C 
ATOM      7  C   UNL     1       2.163  -6.508   3.605  0.00  0.00    +0.115 C 
ATOM      8  C   UNL     1       0.611  -6.679   5.566  0.00  0.00    -0.010 C 
ATOM      9  C   UNL     1       0.193  -8.110   5.214  0.00  0.00    -0.082 C 
ATOM     10  N   UNL     1       1.080  -9.062   5.894  0.00  0.00    +0.379 N 
ATOM     11  C   UNL     1       2.455  -8.902   5.405  0.00  0.00    -0.082 C 
ATOM     12  C   UNL     1       2.968  -7.505   5.765  0.00  0.00    -0.010 C 
ATOM     13  H   UNL     1       1.056  -8.891   6.888  0.00  0.00    -0.086 HD
ATOM     14  H   UNL     1       0.766 -10.003   5.709  0.00  0.00    -0.086 HD
ENDROOT
BRANCH   1  17
ATOM     15  C   UNL     1       2.842  -1.098   1.894  0.00  0.00    +0.124 A 
ATOM     16  C   UNL     1       2.704  -2.438   2.219  0.00  0.00    +0.059 A 
ATOM     17  C   UNL     1       1.602  -3.156   1.756  0.00  0.00    +0.044 A 
ATOM     18  C   UNL     1       0.643  -2.522   0.966  0.00  0.00    +0.059 A 
ATOM     19  C   UNL     1       0.789  -1.183   0.644  0.00  0.00    +0.124 A 
ATOM     20  C   UNL     1       1.883  -0.470   1.112  0.00  0.00    +0.091 A 
BRANCH  15  22
ATOM     21  C   UNL     1       3.992   0.981   1.976  0.00  0.00    +0.277 C 
ATOM     22  O   UNL     1       3.916  -0.397   2.345  0.00  0.00    -0.495 OA
ENDBRANCH  15  22
BRANCH  19  23
ATOM     23  O   UNL     1      -0.145  -0.564  -0.126  0.00  0.00    -0.495 OA
ATOM     24  C   UNL     1       0.068   0.819  -0.418  0.00  0.00    +0.277 C 
ENDBRANCH  19  23
ENDBRANCH   1  17
BRANCH   5  25
ATOM     25  C   UNL     1       3.731  -5.115   6.423  0.00  0.00    +0.218 C 
ATOM     26  O   UNL     1       4.811  -5.407   5.956  0.00  0.00    -0.275 OA
ATOM     27  N   UNL     1       3.614  -4.854   7.741  0.00  0.00    -0.311 N 
ATOM     28  H   UNL     1       2.750  -4.620   8.114  0.00  0.00    +0.149 HD
BRANCH  27  29
ATOM     29  C   UNL     1       4.792  -4.924   8.608  0.00  0.00    +0.141 C 
BRANCH  29  30
ATOM     30  C   UNL     1       4.395  -4.592  10.023  0.00  0.00    -0.009 A 
ATOM     31  C   UNL     1       4.623  -3.325  10.526  0.00  0.00    +0.007 A 
ATOM     32  C   UNL     1       4.259  -3.020  11.825  0.00  0.00    +0.000 A 
ATOM     33  C   UNL     1       3.665  -3.980  12.624  0.00  0.00    +0.002 A 
ATOM     34  C   UNL     1       3.433  -5.247  12.127  0.00  0.00    +0.023 A 
ATOM     35  C   UNL     1       3.793  -5.556  10.821  0.00  0.00    +0.034 A 
BRANCH  35  36
ATOM     36  N   UNL     1       3.556  -6.836  10.314  0.00  0.00    -0.330 N 
ATOM     37  C   UNL     1       4.564  -7.896  10.455  0.00  0.00    +0.105 C 
ATOM     38  C   UNL     1       3.908  -9.116  11.109  0.00  0.00    +0.019 C 
ATOM     39  C   UNL     1       2.676  -9.524  10.298  0.00  0.00    +0.003 C 
ATOM     40  C   UNL     1       1.664  -8.376  10.293  0.00  0.00    +0.019 C 
ATOM     41  C   UNL     1       2.291  -7.149   9.635  0.00  0.00    +0.105 C 
ENDBRANCH  35  36
ENDBRANCH  29  30
ENDBRANCH  27  29
ENDBRANCH   5  25
TORSDOF 7
