REMARK  Name = ZINC08214796
REMARK  17 active torsions:
REMARK  status: ('A' for Active; 'I' for Inactive)
REMARK    1  A    between atoms: C_1  and  C_2
REMARK    2  A    between atoms: C_2  and  C_3
REMARK    3  A    between atoms: C_2  and  C_4
REMARK    4  A    between atoms: C_4  and  C_5
REMARK    5  A    between atoms: C_5  and  O_7
REMARK    6  A    between atoms: O_7  and  C_8
REMARK    7  A    between atoms: C_10  and  C_53
REMARK    8  A    between atoms: C_12  and  C_49
REMARK    9  A    between atoms: C_14  and  C_47
REMARK   10  A    between atoms: C_17  and  O_19
REMARK   11  A    between atoms: O_19  and  C_20
REMARK   12  A    between atoms: C_23  and  C_45
REMARK   13  A    between atoms: C_37  and  C_39
REMARK   14  A    between atoms: C_42  and  O_44
REMARK   15  A    between atoms: C_47  and  O_48
REMARK   16  A    between atoms: C_49  and  S_50
REMARK   17  A    between atoms: C_53  and  S_54
REMARK                            x       y       z     vdW  Elec       q    Type
REMARK                         _______ _______ _______ _____ _____    ______ ____
ROOT
ATOM      1  C   UNL     1      -2.449  -4.958  -4.026  0.00  0.00    +0.237 C 
ATOM      2  C   UNL     1      -3.533  -6.020  -3.822  0.00  0.00    +0.065 C 
ATOM      3  C   UNL     1      -4.663  -5.780  -4.828  0.00  0.00    +0.052 C 
ATOM      4  C   UNL     1      -5.202  -4.359  -4.649  0.00  0.00    +0.152 C 
ATOM      5  O   UNL     1      -4.136  -3.422  -4.822  0.00  0.00    -0.342 OA
ATOM      6  C   UNL     1      -3.073  -3.568  -3.878  0.00  0.00    +0.292 C 
ENDROOT
BRANCH   1   7
ATOM      7  O   UNL     1      -1.406  -5.130  -3.030  0.00  0.00    -0.456 OA
BRANCH   7   8
ATOM      8  C   UNL     1      -0.164  -4.759  -3.378  0.00  0.00    +0.308 C 
ATOM      9  O   UNL     1       0.045  -4.306  -4.479  0.00  0.00    -0.251 OA
BRANCH   8  10
ATOM     10  C   UNL     1       0.970  -4.908  -2.397  0.00  0.00    +0.123 C 
BRANCH  10  12
ATOM     11  C   UNL     1       2.165  -2.915  -3.313  0.00  0.00    +0.008 C 
ATOM     12  C   UNL     1       2.268  -4.416  -3.039  0.00  0.00    -0.007 C 
ATOM     13  C   UNL     1       3.439  -4.682  -2.090  0.00  0.00    +0.008 C 
ENDBRANCH  10  12
ENDBRANCH   8  10
ENDBRANCH   7   8
ENDBRANCH   1   7
BRANCH   6  14
ATOM     14  O   UNL     1      -2.079  -2.571  -4.122  0.00  0.00    -0.345 OA
BRANCH  14  15
ATOM     15  C   UNL     1      -2.496  -1.236  -3.790  0.00  0.00    +0.123 C 
ATOM     16  C   UNL     1      -3.144  -0.606  -5.018  0.00  0.00    +0.046 C 
ATOM     17  C   UNL     1      -3.478   0.865  -4.804  0.00  0.00    +0.108 C 
ATOM     18  C   UNL     1      -2.326   1.632  -4.200  0.00  0.00    +0.009 C 
ATOM     19  C   UNL     1      -2.679   3.093  -3.928  0.00  0.00    +0.005 C 
ATOM     20  C   UNL     1      -1.363   3.861  -3.736  0.00  0.00    +0.010 C 
ATOM     21  C   UNL     1      -0.605   3.287  -2.556  0.00  0.00    +0.004 C 
ATOM     22  C   UNL     1      -1.247   3.753  -1.232  0.00  0.00    +0.018 C 
ATOM     23  C   UNL     1      -0.090   3.453  -0.239  0.00  0.00    +0.018 C 
ATOM     24  C   UNL     1      -0.056   1.929  -0.074  0.00  0.00    +0.008 C 
ATOM     25  C   UNL     1       0.286   1.239  -1.383  0.00  0.00    +0.005 C 
ATOM     26  C   UNL     1      -0.435   1.782  -2.603  0.00  0.00    +0.004 C 
ATOM     27  C   UNL     1      -1.686   0.994  -2.973  0.00  0.00    -0.023 C 
ATOM     28  C   UNL     1      -1.269  -0.437  -3.356  0.00  0.00    +0.039 C 
ATOM     29  C   UNL     1      -2.638   0.915  -1.784  0.00  0.00    +0.012 C 
ATOM     30  C   UNL     1       1.157   3.898  -0.986  0.00  0.00    -0.045 C 
ATOM     31  C   UNL     1       2.311   4.218  -0.453  0.00  0.00    +0.010 C 
ATOM     32  C   UNL     1       0.814   3.903  -2.465  0.00  0.00    +0.147 C 
BRANCH  17  33
ATOM     33  C   UNL     1      -4.772   1.021  -4.061  0.00  0.00    +0.359 C 
ATOM     34  O   UNL     1      -4.822   1.714  -3.073  0.00  0.00    -0.246 OA
ATOM     35  O   UNL     1      -5.875   0.390  -4.495  0.00  0.00    -0.246 OA
ENDBRANCH  17  33
BRANCH  32  36
ATOM     36  O   UNL     1       0.794   5.237  -2.971  0.00  0.00    -0.387 OA
ATOM     37  H   UNL     1       1.653   5.681  -2.943  0.00  0.00    +0.210 HD
ENDBRANCH  32  36
ENDBRANCH  14  15
ENDBRANCH   6  14
BRANCH   4  38
ATOM     38  C   UNL     1      -6.290  -4.091  -5.691  0.00  0.00    +0.187 C 
BRANCH  38  39
ATOM     39  O   UNL     1      -6.888  -2.818  -5.438  0.00  0.00    -0.392 OA
ATOM     40  H   UNL     1      -7.589  -2.582  -6.062  0.00  0.00    +0.210 HD
ENDBRANCH  38  39
ENDBRANCH   4  38
BRANCH   3  41
ATOM     41  C   UNL     1      -4.125  -5.948  -6.250  0.00  0.00    +0.207 C 
BRANCH  41  42
ATOM     42  S   UNL     1      -3.630  -7.674  -6.510  0.00  0.00    +0.110 S 
ATOM     43  O   UNL     1      -2.426  -7.949  -5.807  0.00  0.00    -0.145 OA
ATOM     44  O   UNL     1      -4.756  -8.531  -6.380  0.00  0.00    -0.145 OA
ATOM     45  O   UNL     1      -3.248  -7.755  -7.981  0.00  0.00    -0.048 OA
ENDBRANCH  41  42
ENDBRANCH   3  41
BRANCH   2  46
ATOM     46  C   UNL     1      -4.084  -5.922  -2.398  0.00  0.00    +0.208 C 
BRANCH  46  47
ATOM     47  S   UNL     1      -5.231  -7.295  -2.098  0.00  0.00    +0.110 S 
ATOM     48  O   UNL     1      -6.436  -7.095  -2.825  0.00  0.00    -0.145 OA
ATOM     49  O   UNL     1      -4.540  -8.535  -2.169  0.00  0.00    -0.145 OA
ATOM     50  O   UNL     1      -5.633  -7.157  -0.636  0.00  0.00    -0.048 OA
ENDBRANCH  46  47
ENDBRANCH   2  46
TORSDOF 14
