REMARK  Name = ZINC63386097
REMARK  12 active torsions:
REMARK  status: ('A' for Active; 'I' for Inactive)
REMARK    1  A    between atoms: C_1  and  C_2
REMARK    2  A    between atoms: C_7  and  O_12
REMARK    3  A    between atoms: C_9  and  O_10
REMARK    4  A    between atoms: O_10  and  C_11
REMARK    5  A    between atoms: O_12  and  C_13
REMARK    6  A    between atoms: C_17  and  C_19
REMARK    7  A    between atoms: C_19  and  C_20
REMARK    8  A    between atoms: N_22  and  C_23
REMARK    9  A    between atoms: C_23  and  C_24
REMARK   10  A    between atoms: C_24  and  C_25
REMARK   11  A    between atoms: C_29  and  O_34
REMARK   12  A    between atoms: O_34  and  C_35
REMARK                            x       y       z     vdW  Elec       q    Type
REMARK                         _______ _______ _______ _____ _____    ______ ____
ROOT
ATOM      1  C   UNL     1       1.952  -2.439   2.228  0.00  0.00    +0.214 C 
ATOM      2  O   UNL     1       2.227  -1.662   3.117  0.00  0.00    -0.276 OA
ATOM      3  N   UNL     1       2.396  -3.711   2.283  0.00  0.00    -0.315 N 
ATOM      4  H   UNL     1       2.176  -4.333   1.572  0.00  0.00    +0.149 HD
ENDROOT
BRANCH   1   5
ATOM      5  C   UNL     1       1.115  -1.984   1.060  0.00  0.00    +0.111 C 
BRANCH   5  17
ATOM      6  C   UNL     1      -0.019   1.526   0.010  0.00  0.00    +0.013 C 
ATOM      7  C   UNL     1       0.002  -0.004   0.002  0.00  0.00    +0.037 C 
ATOM      8  C   UNL     1      -1.413  -0.524   0.009  0.00  0.00    +0.040 A 
ATOM      9  C   UNL     1      -2.021  -0.972   1.168  0.00  0.00    +0.142 A 
ATOM     10  C   UNL     1      -3.332  -1.433   1.129  0.00  0.00    +0.092 A 
ATOM     11  C   UNL     1      -4.031  -1.453  -0.067  0.00  0.00    +0.127 A 
ATOM     12  C   UNL     1      -3.420  -1.011  -1.230  0.00  0.00    +0.091 A 
ATOM     13  C   UNL     1      -2.116  -0.547  -1.192  0.00  0.00    +0.130 A 
ATOM     14  O   UNL     1      -1.367  -0.988   2.361  0.00  0.00    -0.425 OA
ATOM     15  C   UNL     1      -0.179  -0.354   2.429  0.00  0.00    +0.317 C 
ATOM     16  O   UNL     1       0.131   0.307   3.392  0.00  0.00    -0.250 OA
ATOM     17  C   UNL     1       0.747  -0.510   1.241  0.00  0.00    +0.114 C 
BRANCH  13  18
ATOM     18  O   UNL     1      -1.519  -0.113  -2.333  0.00  0.00    -0.495 OA
ATOM     19  C   UNL     1      -2.296  -0.164  -3.531  0.00  0.00    +0.277 C 
ENDBRANCH  13  18
BRANCH  11  20
ATOM     20  O   UNL     1      -5.312  -1.906  -0.099  0.00  0.00    -0.495 OA
ATOM     21  C   UNL     1      -5.971  -1.898  -1.367  0.00  0.00    +0.277 C 
ENDBRANCH  11  20
ENDBRANCH   5  17
ENDBRANCH   1   5
BRANCH   3  22
ATOM     22  C   UNL     1       3.210  -4.154   3.418  0.00  0.00    +0.108 C 
BRANCH  22  23
ATOM     23  C   UNL     1       3.578  -5.627   3.237  0.00  0.00    +0.052 C 
BRANCH  23  24
ATOM     24  C   UNL     1       4.415  -6.083   4.404  0.00  0.00    -0.040 C 
ATOM     25  C   UNL     1       3.980  -6.707   5.520  0.00  0.00    -0.001 A 
ATOM     26  C   UNL     1       2.646  -7.133   5.964  0.00  0.00    +0.013 A 
ATOM     27  C   UNL     1       2.517  -7.750   7.158  0.00  0.00    +0.046 A 
ATOM     28  C   UNL     1       3.628  -7.994   7.987  0.00  0.00    +0.122 A 
ATOM     29  C   UNL     1       4.890  -7.629   7.643  0.00  0.00    +0.071 A 
ATOM     30  C   UNL     1       5.134  -6.975   6.409  0.00  0.00    +0.046 A 
ATOM     31  N   UNL     1       6.242  -6.532   5.860  0.00  0.00    -0.380 N 
ATOM     32  C   UNL     1       5.913  -5.939   4.559  0.00  0.00    +0.144 C 
ATOM     33  H   UNL     1       7.129  -6.590   6.248  0.00  0.00    +0.160 HD
BRANCH  28  34
ATOM     34  O   UNL     1       3.432  -8.617   9.175  0.00  0.00    -0.495 OA
ATOM     35  C   UNL     1       2.089  -8.984   9.501  0.00  0.00    +0.277 C 
ENDBRANCH  28  34
ENDBRANCH  23  24
ENDBRANCH  22  23
ENDBRANCH   3  22
TORSDOF 8
