REMARK  Name = ZINC39325111
REMARK  10 active torsions:
REMARK  status: ('A' for Active; 'I' for Inactive)
REMARK    1  A    between atoms: C_1  and  C_2
REMARK    2  A    between atoms: C_6  and  C_8
REMARK    3  A    between atoms: C_8  and  C_9
REMARK    4  A    between atoms: C_9  and  N_10
REMARK    5  A    between atoms: N_10  and  C_11
REMARK    6  A    between atoms: N_10  and  S_26
REMARK    7  A    between atoms: C_11  and  C_12
REMARK    8  A    between atoms: C_16  and  C_25
REMARK    9  A    between atoms: C_18  and  C_24
REMARK   10  A    between atoms: S_26  and  C_29
REMARK                            x       y       z     vdW  Elec       q    Type
REMARK                         _______ _______ _______ _____ _____    ______ ____
ROOT
ATOM      1  N   UNL     1       1.526  -3.828   4.295  0.00  0.00    -0.175 NA
ENDROOT
BRANCH   1   2
ATOM      2  S   UNL     1       1.214  -3.048   5.722  0.00  0.00    +0.061 S 
ATOM      3  O   UNL     1       1.456  -3.988   6.760  0.00  0.00    -0.153 OA
ATOM      4  O   UNL     1       1.883  -1.796   5.656  0.00  0.00    -0.153 OA
BRANCH   2   5
ATOM      5  C   UNL     1      -0.512  -2.694   5.756  0.00  0.00    +0.106 A 
ATOM      6  C   UNL     1      -0.984  -1.504   5.233  0.00  0.00    +0.031 A 
ATOM      7  C   UNL     1      -2.337  -1.226   5.259  0.00  0.00    +0.040 A 
ATOM      8  C   UNL     1      -3.221  -2.140   5.808  0.00  0.00    +0.124 A 
ATOM      9  C   UNL     1      -2.747  -3.331   6.331  0.00  0.00    +0.040 A 
ATOM     10  C   UNL     1      -1.394  -3.609   6.300  0.00  0.00    +0.031 A 
ATOM     11  F   UNL     1      -4.544  -1.869   5.834  0.00  0.00    -0.205 F 
ENDBRANCH   2   5
ENDBRANCH   1   2
BRANCH   1  12
ATOM     12  C   UNL     1       2.011  -3.071   3.138  0.00  0.00    +0.114 C 
BRANCH  12  13
ATOM     13  C   UNL     1       0.831  -2.704   2.236  0.00  0.00    +0.052 C 
BRANCH  13  19
ATOM     14  C   UNL     1       1.959   1.669   0.081  0.00  0.00    +0.044 C 
ATOM     15  C   UNL     1       1.870   0.166   0.015  0.00  0.00    -0.050 A 
ATOM     16  C   UNL     1       2.246  -0.499  -1.138  0.00  0.00    +0.003 A 
ATOM     17  C   UNL     1       2.163  -1.878  -1.198  0.00  0.00    +0.001 A 
ATOM     18  C   UNL     1       1.705  -2.591  -0.106  0.00  0.00    +0.004 A 
ATOM     19  C   UNL     1       1.330  -1.927   1.046  0.00  0.00    -0.046 A 
ATOM     20  C   UNL     1       1.417  -0.548   1.108  0.00  0.00    +0.007 A 
ENDBRANCH  13  19
ENDBRANCH  12  13
ENDBRANCH   1  12
BRANCH   1  21
ATOM     21  C   UNL     1       1.316  -5.274   4.189  0.00  0.00    +0.126 C 
BRANCH  21  22
ATOM     22  C   UNL     1       2.669  -5.977   4.056  0.00  0.00    +0.114 C 
ATOM     23  C   UNL     1       3.505  -5.609   5.267  0.00  0.00    -0.003 C 
ATOM     24  C   UNL     1       3.958  -6.632   6.046  0.00  0.00    -0.004 A 
ATOM     25  C   UNL     1       4.772  -6.367   7.233  0.00  0.00    -0.042 A 
ATOM     26  C   UNL     1       5.202  -7.416   7.980  0.00  0.00    +0.007 A 
ATOM     27  C   UNL     1       4.884  -8.730   7.637  0.00  0.00    -0.048 A 
ATOM     28  C   UNL     1       4.132  -9.043   6.549  0.00  0.00    +0.027 A 
ATOM     29  C   UNL     1       3.637  -8.029   5.708  0.00  0.00    +0.041 A 
ATOM     30  N   UNL     1       2.901  -8.347   4.644  0.00  0.00    -0.284 N 
ATOM     31  C   UNL     1       2.406  -7.446   3.813  0.00  0.00    +0.225 C 
ATOM     32  O   UNL     1       1.741  -7.797   2.857  0.00  0.00    -0.275 OA
ATOM     33  C   UNL     1       5.393  -9.849   8.509  0.00  0.00    +0.044 C 
ATOM     34  C   UNL     1       5.127  -4.954   7.620  0.00  0.00    +0.044 C 
ATOM     35  H   UNL     1       2.721  -9.284   4.470  0.00  0.00    +0.155 HD
ENDBRANCH  21  22
ENDBRANCH   1  21
TORSDOF 7
