REMARK  Name = ZINC14958711
REMARK  9 active torsions:
REMARK  status: ('A' for Active; 'I' for Inactive)
REMARK    1  A    between atoms: C_4  and  O_28
REMARK    2  A    between atoms: C_5  and  C_7
REMARK    3  A    between atoms: C_7  and  N_8
REMARK    4  A    between atoms: C_9  and  C_15
REMARK    5  A    between atoms: C_15  and  C_16
REMARK    6  A    between atoms: C_16  and  N_53
REMARK    7  A    between atoms: C_17  and  C_18
REMARK    8  A    between atoms: C_17  and  N_53
REMARK    9  A    between atoms: O_28  and  C_29
REMARK                            x       y       z     vdW  Elec       q    Type
REMARK                         _______ _______ _______ _____ _____    ______ ____
ROOT
ATOM      1  N   UNL     1      -5.067   4.516  -2.442  0.00  0.00    -0.294 N 
ATOM      2  C   UNL     1      -4.990   3.060  -2.605  0.00  0.00    +0.075 C 
ATOM      3  C   UNL     1      -5.710   2.756  -3.938  0.00  0.00    +0.031 C 
ATOM      4  C   UNL     1      -5.545   4.094  -4.697  0.00  0.00    +0.098 C 
ATOM      5  C   UNL     1      -5.372   5.123  -3.602  0.00  0.00    +0.216 C 
ATOM      6  O   UNL     1      -5.491   6.321  -3.749  0.00  0.00    -0.276 OA
ENDROOT
BRANCH   1   7
ATOM      7  C   UNL     1      -4.841   5.219  -1.176  0.00  0.00    +0.146 C 
BRANCH   7  12
ATOM      8  C   UNL     1      -7.968   6.963   0.020  0.00  0.00    +0.001 A 
ATOM      9  C   UNL     1      -8.592   5.958   0.736  0.00  0.00    +0.004 A 
ATOM     10  C   UNL     1      -8.004   4.712   0.836  0.00  0.00    +0.046 A 
ATOM     11  C   UNL     1      -6.787   4.470   0.216  0.00  0.00    +0.135 A 
ATOM     12  C   UNL     1      -6.163   5.479  -0.502  0.00  0.00    +0.012 A 
ATOM     13  C   UNL     1      -6.753   6.725  -0.594  0.00  0.00    +0.009 A 
BRANCH  11  14
ATOM     14  O   UNL     1      -6.207   3.244   0.311  0.00  0.00    -0.405 OA
BRANCH  14  15
ATOM     15  C   UNL     1      -6.906   2.253   1.067  0.00  0.00    +0.575 C 
ATOM     16  F   UNL     1      -8.162   2.030   0.493  0.00  0.00    -0.133 F 
ATOM     17  F   UNL     1      -6.173   1.061   1.062  0.00  0.00    -0.133 F 
ATOM     18  F   UNL     1      -7.066   2.697   2.384  0.00  0.00    -0.133 F 
ENDBRANCH  14  15
ENDBRANCH  11  14
ENDBRANCH   7  12
ENDBRANCH   1   7
BRANCH   2  19
ATOM     19  C   UNL     1      -3.529   2.612  -2.678  0.00  0.00    +0.003 C 
BRANCH  19  20
ATOM     20  C   UNL     1      -2.846   2.877  -1.335  0.00  0.00    -0.080 C 
BRANCH  20  21
ATOM     21  N   UNL     1      -1.479   2.325  -1.371  0.00  0.00    +0.382 N 
ATOM     22  H   UNL     1      -0.925   2.837  -2.068  0.00  0.00    -0.085 HD
ATOM     23  H   UNL     1      -1.521   1.333  -1.629  0.00  0.00    -0.085 HD
BRANCH  21  24
ATOM     24  C   UNL     1      -0.839   2.458  -0.049  0.00  0.00    -0.045 C 
BRANCH  24  25
ATOM     25  C   UNL     1       0.505   1.777  -0.080  0.00  0.00    -0.042 A 
ATOM     26  C   UNL     1       1.661   2.533  -0.143  0.00  0.00    +0.052 A 
ATOM     27  C   UNL     1       2.897   1.909  -0.178  0.00  0.00    +0.167 A 
ATOM     28  C   UNL     1       2.973   0.518  -0.149  0.00  0.00    +0.168 A 
ATOM     29  C   UNL     1       1.811  -0.234  -0.086  0.00  0.00    +0.069 A 
ATOM     30  C   UNL     1       0.580   0.396  -0.051  0.00  0.00    +0.046 A 
ATOM     31 CL   UNL     1      -0.875  -0.549   0.029  0.00  0.00    -0.083 Cl
ATOM     32  O   UNL     1       4.287   0.152  -0.194  0.00  0.00    -0.453 OA
ATOM     33  C   UNL     1       5.028   1.334   0.162  0.00  0.00    +0.466 C 
ATOM     34  O   UNL     1       4.164   2.413  -0.241  0.00  0.00    -0.453 OA
ENDBRANCH  24  25
ENDBRANCH  21  24
ENDBRANCH  20  21
ENDBRANCH  19  20
ENDBRANCH   2  19
TORSDOF 9
