REMARK  Name = ZINC20356611
REMARK  4 active torsions:
REMARK  status: ('A' for Active; 'I' for Inactive)
REMARK    1  A    between atoms: C_10  and  C_11
REMARK    2  A    between atoms: C_11  and  O_12
REMARK    3  A    between atoms: O_12  and  C_13
REMARK    4  A    between atoms: C_16  and  C_19
REMARK                            x       y       z     vdW  Elec       q    Type
REMARK                         _______ _______ _______ _____ _____    ______ ____
ROOT
ATOM      1  C   UNL     1      11.325   1.446   0.065  0.00  0.00    +0.024 C 
ATOM      2  C   UNL     1      11.454   2.745   0.502  0.00  0.00    +0.081 C 
ATOM      3  C   UNL     1      10.307   3.493   1.090  0.00  0.00    +0.153 C 
ATOM      4  N   UNL     1       9.365   2.924   1.796  0.00  0.00    -0.283 NA
ATOM      5  N   UNL     1      10.337   4.875   0.810  0.00  0.00    -0.150 N 
ATOM      6  C   UNL     1      11.557   5.436   0.510  0.00  0.00    +0.182 C 
ATOM      7  N   UNL     1      12.704   4.821   0.356  0.00  0.00    -0.152 NA
ATOM      8  C   UNL     1      12.744   3.474   0.418  0.00  0.00    +0.273 C 
ATOM      9  O   UNL     1      13.806   2.873   0.403  0.00  0.00    -0.268 OA
ATOM     10  S   UNL     1      11.154   7.158   0.374  0.00  0.00    -0.018 S 
ATOM     11  C   UNL     1       9.390   7.007   0.621  0.00  0.00    +0.182 C 
ATOM     12  N   UNL     1       9.248   5.721   0.820  0.00  0.00    -0.149 NA
ATOM     13  N   UNL     1       8.422   7.997   0.607  0.00  0.00    -0.304 N 
ATOM     14  C   UNL     1       7.005   7.675   0.840  0.00  0.00    +0.135 C 
ATOM     15  C   UNL     1       6.466   8.620   1.920  0.00  0.00    +0.179 C 
ATOM     16  O   UNL     1       6.758   9.970   1.552  0.00  0.00    -0.377 OA
ATOM     17  C   UNL     1       8.154  10.264   1.461  0.00  0.00    +0.179 C 
ATOM     18  C   UNL     1       8.780   9.404   0.363  0.00  0.00    +0.135 C 
ATOM     19  H   UNL     1       8.640   3.458   2.157  0.00  0.00    +0.188 HD
ENDROOT
BRANCH   1  23
ATOM     20  C   UNL     1       7.505  -0.354  -0.123  0.00  0.00    +0.121 A 
ATOM     21  C   UNL     1       7.641   1.010  -0.362  0.00  0.00    +0.046 A 
ATOM     22  C   UNL     1       8.873   1.597  -0.303  0.00  0.00    +0.011 A 
ATOM     23  C   UNL     1      10.002   0.822   0.000  0.00  0.00    -0.024 A 
ATOM     24  C   UNL     1       9.858  -0.552   0.240  0.00  0.00    +0.011 A 
ATOM     25  C   UNL     1       8.620  -1.127   0.183  0.00  0.00    +0.046 A 
BRANCH  20  26
ATOM     26  O   UNL     1       6.278  -0.931  -0.183  0.00  0.00    -0.487 OA
BRANCH  26  27
ATOM     27  C   UNL     1       5.176  -0.081  -0.502  0.00  0.00    +0.265 C 
BRANCH  27  37
ATOM     28  C   UNL     1       0.230   0.901  -1.385  0.00  0.00    +0.001 A 
ATOM     29  C   UNL     1       1.394   1.668  -1.369  0.00  0.00    +0.001 A 
ATOM     30  C   UNL     1       2.601   1.103  -1.091  0.00  0.00    +0.009 A 
ATOM     31  C   UNL     1       2.678  -0.273  -0.816  0.00  0.00    -0.011 A 
ATOM     32  C   UNL     1       1.494  -1.052  -0.831  0.00  0.00    -0.018 A 
ATOM     33  C   UNL     1       0.266  -0.433  -1.123  0.00  0.00    +0.008 A 
ATOM     34  C   UNL     1       1.571  -2.428  -0.555  0.00  0.00    +0.008 A 
ATOM     35  C   UNL     1       2.777  -2.992  -0.276  0.00  0.00    +0.001 A 
ATOM     36  C   UNL     1       3.941  -2.226  -0.260  0.00  0.00    +0.007 A 
ATOM     37  C   UNL     1       3.905  -0.891  -0.524  0.00  0.00    -0.003 A 
ENDBRANCH  27  37
ENDBRANCH  26  27
ENDBRANCH  20  26
ENDBRANCH   1  23
TORSDOF 4
