REMARK  Name = ZINC09380120
REMARK  8 active torsions:
REMARK  status: ('A' for Active; 'I' for Inactive)
REMARK    1  A    between atoms: C_4  and  C_7
REMARK    2  A    between atoms: C_7  and  C_8
REMARK    3  A    between atoms: C_13  and  C_14
REMARK    4  A    between atoms: C_13  and  N_69
REMARK    5  A    between atoms: C_14  and  C_15
REMARK    6  A    between atoms: C_18  and  C_29
REMARK    7  A    between atoms: C_21  and  C_23
REMARK    8  A    between atoms: C_33  and  N_35
REMARK                            x       y       z     vdW  Elec       q    Type
REMARK                         _______ _______ _______ _____ _____    ______ ____
ROOT
ATOM      1  C   UNL     1      -0.961   3.745   4.966  0.00  0.00    +0.234 C 
ATOM      2  O   UNL     1      -2.019   4.337   4.962  0.00  0.00    -0.274 OA
ATOM      3  N   UNL     1      -0.297   3.559   6.125  0.00  0.00    -0.185 N 
ATOM      4  C   UNL     1      -0.743   4.019   7.450  0.00  0.00    +0.137 C 
ATOM      5  C   UNL     1       0.379   3.542   8.394  0.00  0.00    +0.087 C 
ATOM      6  C   UNL     1       1.358   2.847   7.474  0.00  0.00    +0.069 C 
ATOM      7  N   UNL     1       0.919   2.893   6.264  0.00  0.00    -0.181 NA
ENDROOT
BRANCH   6   8
ATOM      8  C   UNL     1       2.618   2.209   7.899  0.00  0.00    -0.002 A 
ATOM      9  C   UNL     1       2.992   2.220   9.244  0.00  0.00    +0.010 A 
ATOM     10  C   UNL     1       4.170   1.618   9.635  0.00  0.00    +0.001 A 
ATOM     11  C   UNL     1       4.985   1.012   8.695  0.00  0.00    +0.000 A 
ATOM     12  C   UNL     1       4.623   1.000   7.360  0.00  0.00    +0.001 A 
ATOM     13  C   UNL     1       3.446   1.595   6.956  0.00  0.00    +0.010 A 
ENDBRANCH   6   8
BRANCH   4  14
ATOM     14  C   UNL     1      -0.856   5.521   7.478  0.00  0.00    -0.023 A 
ATOM     15  C   UNL     1       0.079   6.298   6.819  0.00  0.00    +0.005 A 
ATOM     16  C   UNL     1      -0.025   7.676   6.846  0.00  0.00    +0.003 A 
ATOM     17  C   UNL     1      -1.065   8.278   7.531  0.00  0.00    +0.033 A 
ATOM     18  C   UNL     1      -2.000   7.501   8.189  0.00  0.00    +0.127 A 
ATOM     19  C   UNL     1      -1.898   6.123   8.159  0.00  0.00    +0.038 A 
BRANCH  18  20
ATOM     20  N   UNL     1      -3.112   8.146   8.924  0.00  0.00    +0.056 N 
ATOM     21  O   UNL     1      -3.203   9.360   8.947  0.00  0.00    -0.126 OA
ATOM     22  O   UNL     1      -3.936   7.461   9.504  0.00  0.00    -0.126 OA
ENDBRANCH  18  20
ENDBRANCH   4  14
BRANCH   1  23
ATOM     23  C   UNL     1      -0.387   3.218   3.676  0.00  0.00    +0.079 C 
BRANCH  23  24
ATOM     24  C   UNL     1      -1.329   3.562   2.521  0.00  0.00    -0.070 C 
BRANCH  24  30
ATOM     25  C   UNL     1      -0.755   1.594  -1.231  0.00  0.00    -0.010 C 
ATOM     26  C   UNL     1      -0.013   1.086   0.008  0.00  0.00    -0.015 C 
ATOM     27  C   UNL     1      -0.731   1.580   1.266  0.00  0.00    -0.079 C 
ATOM     28  C   UNL     1      -1.519   3.558   0.108  0.00  0.00    -0.079 C 
ATOM     29  C   UNL     1      -0.823   3.123  -1.184  0.00  0.00    -0.015 C 
ATOM     30  N   UNL     1      -0.742   3.058   1.262  0.00  0.00    +0.380 N 
ATOM     31  H   UNL     1       0.224   3.399   1.186  0.00  0.00    -0.082 HD
BRANCH  25  32
ATOM     32  C   UNL     1      -0.008   1.153  -2.491  0.00  0.00    +0.038 C 
BRANCH  32  36
ATOM     33  C   UNL     1      -2.258   2.268  -5.946  0.00  0.00    +0.000 A 
ATOM     34  C   UNL     1      -1.325   3.141  -5.418  0.00  0.00    +0.000 A 
ATOM     35  C   UNL     1      -0.597   2.780  -4.300  0.00  0.00    +0.003 A 
ATOM     36  C   UNL     1      -0.802   1.546  -3.710  0.00  0.00    -0.047 A 
ATOM     37  C   UNL     1      -1.732   0.672  -4.241  0.00  0.00    +0.003 A 
ATOM     38  C   UNL     1      -2.463   1.035  -5.357  0.00  0.00    +0.000 A 
ENDBRANCH  32  36
ENDBRANCH  25  32
ENDBRANCH  24  30
ENDBRANCH  23  24
ENDBRANCH   1  23
TORSDOF 8
