REMARK  Name = ZINC09648806
REMARK  6 active torsions:
REMARK  status: ('A' for Active; 'I' for Inactive)
REMARK    1  A    between atoms: C_1  and  C_2
REMARK    2  A    between atoms: C_2  and  C_3
REMARK    3  A    between atoms: C_3  and  N_52
REMARK    4  A    between atoms: C_12  and  C_14
REMARK    5  A    between atoms: N_19  and  S_20
REMARK    6  A    between atoms: S_20  and  C_23
REMARK                            x       y       z     vdW  Elec       q    Type
REMARK                         _______ _______ _______ _____ _____    ______ ____
ROOT
ATOM      1  C   UNL     1       0.618  -2.611   0.432  0.00  0.00    -0.072 C 
ATOM      2  C   UNL     1       1.791  -1.738  -0.022  0.00  0.00    +0.038 C 
ATOM      3  C   UNL     1       1.333  -0.284  -0.012  0.00  0.00    +0.050 A 
ATOM      4  C   UNL     1       0.002  -0.004   0.002  0.00  0.00    -0.002 A 
ATOM      5  S   UNL     1      -0.022   1.766   0.012  0.00  0.00    -0.059 S 
ATOM      6  C   UNL     1       1.701   2.002  -0.003  0.00  0.00    +0.165 A 
ATOM      7  N   UNL     1       2.150   0.763  -0.014  0.00  0.00    -0.229 NA
ATOM      8  N   UNL     1       2.420   3.192  -0.005  0.00  0.00    -0.263 N 
ATOM      9  C   UNL     1       3.767   3.166  -0.018  0.00  0.00    +0.238 C 
ATOM     10  O   UNL     1       4.353   2.103  -0.028  0.00  0.00    -0.274 OA
ATOM     11  C   UNL     1      -1.123  -0.981   0.005  0.00  0.00    -0.034 C 
ATOM     12  H   UNL     1       1.951   4.042   0.004  0.00  0.00    +0.157 HD
ATOM     13  N   UNL     1      -0.574  -2.304  -0.385  0.00  0.00    +0.383 N 
ATOM     14  H   UNL     1      -0.303  -2.274  -1.375  0.00  0.00    -0.081 HD
ENDROOT
BRANCH   9  15
ATOM     15  C   UNL     1       4.546   4.455  -0.019  0.00  0.00    +0.166 C 
ATOM     16  C   UNL     1       4.250   5.249   1.271  0.00  0.00    +0.031 C 
ATOM     17  C   UNL     1       5.444   4.876   2.190  0.00  0.00    +0.019 C 
ATOM     18  C   UNL     1       6.601   4.765   1.167  0.00  0.00    +0.110 C 
ATOM     19  N   UNL     1       5.988   4.169  -0.034  0.00  0.00    -0.164 NA
BRANCH  19  20
ATOM     20  S   UNL     1       6.791   3.317  -1.206  0.00  0.00    +0.068 S 
ATOM     21  O   UNL     1       7.968   2.801  -0.599  0.00  0.00    -0.152 OA
ATOM     22  O   UNL     1       5.827   2.481  -1.832  0.00  0.00    -0.152 OA
BRANCH  20  23
ATOM     23  C   UNL     1       7.318   4.476  -2.423  0.00  0.00    +0.143 A 
ATOM     24  C   UNL     1       8.476   5.178  -2.489  0.00  0.00    +0.036 A 
ATOM     25  C   UNL     1       8.679   6.038  -3.551  0.00  0.00    +0.010 A 
ATOM     26  C   UNL     1       7.710   6.164  -4.490  0.00  0.00    +0.047 A 
ATOM     27  S   UNL     1       6.463   5.038  -3.886  0.00  0.00    -0.077 S 
ENDBRANCH  20  23
ENDBRANCH  19  20
ENDBRANCH   9  15
BRANCH  13  28
ATOM     28  C   UNL     1      -1.600  -3.352  -0.199  0.00  0.00    -0.079 C 
BRANCH  28  30
ATOM     29  C   UNL     1      -3.012  -4.588   1.451  0.00  0.00    +0.002 C 
ATOM     30  C   UNL     1      -1.952  -3.498   1.283  0.00  0.00    -0.022 C 
ENDBRANCH  28  30
ENDBRANCH  13  28
TORSDOF 5
