REMARK  Name = ZINC39576087
REMARK  6 active torsions:
REMARK  status: ('A' for Active; 'I' for Inactive)
REMARK    1  A    between atoms: C_6  and  C_7
REMARK    2  A    between atoms: N_8  and  N_9
REMARK    3  A    between atoms: C_10  and  C_12
REMARK    4  A    between atoms: C_12  and  O_13
REMARK    5  A    between atoms: O_13  and  C_14
REMARK    6  A    between atoms: C_15  and  C_22
REMARK                            x       y       z     vdW  Elec       q    Type
REMARK                         _______ _______ _______ _____ _____    ______ ____
ROOT
ATOM      1  C   UNL     1       1.315  -4.808  -0.338  0.00  0.00    +0.326 C 
ENDROOT
BRANCH   1   3
ATOM      2  N   UNL     1      -0.023  -2.740  -0.111  0.00  0.00    -0.204 N 
ATOM      3  C   UNL     1       0.001  -4.071  -0.321  0.00  0.00    +0.270 C 
ATOM      4  O   UNL     1      -1.036  -4.676  -0.496  0.00  0.00    -0.270 OA
ATOM      5  H   UNL     1       0.806  -2.256   0.029  0.00  0.00    +0.177 HD
BRANCH   2   7
ATOM      6  C   UNL     1      -1.262  -0.760  -0.018  0.00  0.00    +0.138 C 
ATOM      7  N   UNL     1      -1.245  -2.055  -0.095  0.00  0.00    -0.188 NA
BRANCH   6  13
ATOM      8  C   UNL     1       0.867  -0.582  -1.295  0.00  0.00    +0.011 A 
ATOM      9  C   UNL     1       1.945   0.155  -1.738  0.00  0.00    +0.020 A 
ATOM     10  C   UNL     1       2.064   1.491  -1.392  0.00  0.00    +0.041 A 
ATOM     11  C   UNL     1       1.103   2.095  -0.599  0.00  0.00    +0.020 A 
ATOM     12  C   UNL     1       0.020   1.370  -0.149  0.00  0.00    +0.011 A 
ATOM     13  C   UNL     1      -0.106   0.022  -0.495  0.00  0.00    -0.005 A 
ATOM     14 CL   UNL     1       3.425   2.411  -1.953  0.00  0.00    -0.084 Cl
ENDBRANCH   6  13
ENDBRANCH   2   7
ENDBRANCH   1   3
BRANCH   1  15
ATOM     15  O   UNL     1       1.079  -6.197  -0.577  0.00  0.00    -0.481 OA
BRANCH  15  16
ATOM     16  C   UNL     1       2.168  -7.008  -0.623  0.00  0.00    +0.150 A 
ATOM     17  C   UNL     1       2.826  -7.233  -1.839  0.00  0.00    +0.064 A 
ATOM     18  C   UNL     1       3.943  -8.068  -1.875  0.00  0.00    +0.035 A 
ATOM     19  C   UNL     1       4.394  -8.667  -0.716  0.00  0.00    +0.043 A 
ATOM     20  C   UNL     1       3.741  -8.441   0.485  0.00  0.00    +0.043 A 
ATOM     21  C   UNL     1       2.636  -7.611   0.534  0.00  0.00    +0.085 A 
ATOM     22 CL   UNL     1       1.830  -7.330   2.045  0.00  0.00    -0.080 Cl
ATOM     23 CL   UNL     1       5.784  -9.706  -0.763  0.00  0.00    -0.083 Cl
BRANCH  17  24
ATOM     24  C   UNL     1       2.338  -6.590  -3.076  0.00  0.00    +0.171 A 
ATOM     25  C   UNL     1       3.093  -5.894  -3.970  0.00  0.00    +0.072 A 
ATOM     26  C   UNL     1       2.248  -5.452  -4.998  0.00  0.00    +0.157 A 
ATOM     27  N   UNL     1       1.038  -5.863  -4.739  0.00  0.00    -0.086 NA
ATOM     28  O   UNL     1       1.070  -6.593  -3.526  0.00  0.00    -0.355 OA
ENDBRANCH  17  24
ENDBRANCH  15  16
ENDBRANCH   1  15
TORSDOF 6
