REMARK  Name = ZINC39609551
REMARK  10 active torsions:
REMARK  status: ('A' for Active; 'I' for Inactive)
REMARK    1  A    between atoms: C_1  and  C_2
REMARK    2  A    between atoms: C_2  and  O_3
REMARK    3  A    between atoms: O_3  and  C_4
REMARK    4  A    between atoms: C_8  and  C_10
REMARK    5  A    between atoms: C_10  and  C_11
REMARK    6  A    between atoms: C_11  and  N_12
REMARK    7  A    between atoms: C_13  and  C_15
REMARK    8  A    between atoms: C_26  and  C_28
REMARK    9  A    between atoms: C_33  and  O_34
REMARK   10  A    between atoms: O_34  and  C_35
REMARK                            x       y       z     vdW  Elec       q    Type
REMARK                         _______ _______ _______ _____ _____    ______ ____
ROOT
ATOM      1  C   UNL     1      -7.610  -5.919   2.856  0.00  0.00    +0.100 C 
ATOM      2  C   UNL     1      -7.805  -7.191   2.001  0.00  0.00    +0.121 C 
ATOM      3  N   UNL     1      -7.781  -8.306   2.977  0.00  0.00    -0.296 N 
ATOM      4  C   UNL     1      -8.526  -7.786   4.149  0.00  0.00    +0.115 C 
ATOM      5  C   UNL     1      -8.087  -6.313   4.264  0.00  0.00    -0.004 C 
ATOM      6  C   UNL     1      -6.944  -6.180   5.266  0.00  0.00    -0.010 C 
ATOM      7  C   UNL     1      -7.457  -6.522   6.667  0.00  0.00    -0.082 C 
ATOM      8  N   UNL     1      -8.554  -5.614   7.024  0.00  0.00    +0.379 N 
ATOM      9  C   UNL     1      -9.686  -5.814   6.111  0.00  0.00    -0.082 C 
ATOM     10  C   UNL     1      -9.267  -5.442   4.686  0.00  0.00    -0.010 C 
ATOM     11  C   UNL     1      -7.210  -9.518   2.833  0.00  0.00    +0.252 C 
ATOM     12  O   UNL     1      -7.357 -10.366   3.692  0.00  0.00    -0.270 OA
ATOM     13  H   UNL     1      -8.850  -5.801   7.970  0.00  0.00    -0.086 HD
ATOM     14  H   UNL     1      -8.234  -4.659   6.956  0.00  0.00    -0.086 HD
ENDROOT
BRANCH  11  15
ATOM     15  C   UNL     1      -6.408  -9.818   1.631  0.00  0.00    +0.099 A 
ATOM     16  C   UNL     1      -6.758  -9.277   0.388  0.00  0.00    +0.020 A 
ATOM     17  C   UNL     1      -5.973  -9.588  -0.708  0.00  0.00    +0.021 A 
ATOM     18  C   UNL     1      -4.876 -10.415  -0.546  0.00  0.00    +0.114 A 
ATOM     19  N   UNL     1      -4.564 -10.914   0.634  0.00  0.00    -0.220 NA
ATOM     20  C   UNL     1      -5.278 -10.644   1.715  0.00  0.00    +0.233 A 
BRANCH  20  21
ATOM     21  O   UNL     1      -4.918 -11.174   2.908  0.00  0.00    -0.437 OA
BRANCH  21  22
ATOM     22  C   UNL     1      -3.877 -12.047   2.931  0.00  0.00    +0.130 A 
ATOM     23  C   UNL     1      -4.116 -13.411   3.027  0.00  0.00    +0.046 A 
ATOM     24  C   UNL     1      -3.056 -14.296   3.050  0.00  0.00    +0.004 A 
ATOM     25  C   UNL     1      -1.758 -13.826   2.976  0.00  0.00    +0.000 A 
ATOM     26  C   UNL     1      -1.518 -12.467   2.880  0.00  0.00    +0.004 A 
ATOM     27  C   UNL     1      -2.574 -11.578   2.852  0.00  0.00    +0.046 A 
ENDBRANCH  21  22
ENDBRANCH  20  21
ENDBRANCH  11  15
BRANCH   1  29
ATOM     28  N   UNL     1      -5.812  -4.231   3.044  0.00  0.00    -0.315 N 
ATOM     29  C   UNL     1      -6.156  -5.525   2.886  0.00  0.00    +0.218 C 
ATOM     30  O   UNL     1      -5.296  -6.371   2.767  0.00  0.00    -0.275 OA
ATOM     31  H   UNL     1      -6.500  -3.554   3.139  0.00  0.00    +0.149 HD
BRANCH  28  32
ATOM     32  C   UNL     1      -4.398  -3.848   3.073  0.00  0.00    +0.109 C 
BRANCH  32  33
ATOM     33  C   UNL     1      -4.284  -2.334   3.262  0.00  0.00    +0.054 C 
BRANCH  33  38
ATOM     34  C   UNL     1      -0.809  -1.545   4.519  0.00  0.00    +0.121 A 
ATOM     35  C   UNL     1      -0.159  -1.214   3.339  0.00  0.00    +0.045 A 
ATOM     36  C   UNL     1      -0.846  -1.246   2.141  0.00  0.00    +0.004 A 
ATOM     37  C   UNL     1      -2.180  -1.609   2.117  0.00  0.00    +0.004 A 
ATOM     38  C   UNL     1      -2.830  -1.940   3.292  0.00  0.00    -0.042 A 
ATOM     39  C   UNL     1      -2.146  -1.914   4.492  0.00  0.00    +0.049 A 
BRANCH  34  40
ATOM     40  O   UNL     1      -0.136  -1.514   5.699  0.00  0.00    -0.492 OA
BRANCH  40  42
ATOM     41  C   UNL     1       1.825  -1.150   7.065  0.00  0.00    +0.048 C 
ATOM     42  C   UNL     1       1.239  -1.125   5.652  0.00  0.00    +0.225 C 
ENDBRANCH  40  42
ENDBRANCH  34  40
ENDBRANCH  33  38
ENDBRANCH  32  33
ENDBRANCH  28  32
ENDBRANCH   1  29
TORSDOF 9
