REMARK  Name = ZINC03167610
REMARK  7 active torsions:
REMARK  status: ('A' for Active; 'I' for Inactive)
REMARK    1  A    between atoms: C_4  and  C_7
REMARK    2  A    between atoms: P_9  and  N_20
REMARK    3  A    between atoms: C_12  and  C_14
REMARK    4  A    between atoms: N_20  and  C_21
REMARK    5  A    between atoms: C_21  and  C_22
REMARK    6  A    between atoms: C_22  and  C_24
REMARK    7  A    between atoms: C_22  and  N_63
REMARK                            x       y       z     vdW  Elec       q    Type
REMARK                         _______ _______ _______ _____ _____    ______ ____
ROOT
ATOM      1  C   UNL     1       4.380   0.889  -2.941  0.00  0.00    +0.140 C 
ATOM      2  C   UNL     1       5.328   0.590  -2.046  0.00  0.00    +0.106 C 
ATOM      3  P   UNL     1       5.008   1.135  -0.330  0.00  0.00    +0.199 P 
ATOM      4  O   UNL     1       6.199   1.820   0.220  0.00  0.00    -0.295 OA
ATOM      5  C   UNL     1       3.603   2.298  -0.443  0.00  0.00    +0.106 C 
ATOM      6  C   UNL     1       2.945   2.306  -1.612  0.00  0.00    +0.140 C 
ATOM      7  O   UNL     1       3.244   1.528  -2.655  0.00  0.00    -0.454 OA
ENDROOT
BRANCH   1  11
ATOM      8  C   UNL     1       5.031  -0.281  -6.974  0.00  0.00    +0.000 A 
ATOM      9  C   UNL     1       3.868   0.385  -6.629  0.00  0.00    +0.001 A 
ATOM     10  C   UNL     1       3.651   0.768  -5.321  0.00  0.00    +0.011 A 
ATOM     11  C   UNL     1       4.607   0.481  -4.346  0.00  0.00    +0.017 A 
ATOM     12  C   UNL     1       5.779  -0.185  -4.702  0.00  0.00    +0.011 A 
ATOM     13  C   UNL     1       5.982  -0.568  -6.012  0.00  0.00    +0.001 A 
ENDBRANCH   1  11
BRANCH   6  14
ATOM     14  C   UNL     1       1.809   3.244  -1.755  0.00  0.00    +0.017 A 
ATOM     15  C   UNL     1       1.450   4.076  -0.695  0.00  0.00    +0.011 A 
ATOM     16  C   UNL     1       0.394   4.953  -0.837  0.00  0.00    +0.001 A 
ATOM     17  C   UNL     1      -0.316   5.000  -2.023  0.00  0.00    +0.000 A 
ATOM     18  C   UNL     1       0.032   4.173  -3.077  0.00  0.00    +0.001 A 
ATOM     19  C   UNL     1       1.090   3.297  -2.949  0.00  0.00    +0.011 A 
ENDBRANCH   6  14
BRANCH   3  20
ATOM     20  N   UNL     1       4.598  -0.183   0.633  0.00  0.00    -0.262 NA
ATOM     21  H   UNL     1       5.306  -0.901   0.584  0.00  0.00    +0.130 HD
BRANCH  20  22
ATOM     22  C   UNL     1       4.366   0.233   2.023  0.00  0.00    +0.078 C 
BRANCH  22  23
ATOM     23  C   UNL     1       3.115  -0.465   2.562  0.00  0.00    -0.023 C 
BRANCH  23  24
ATOM     24  C   UNL     1       2.932  -0.114   4.016  0.00  0.00    -0.060 A 
ATOM     25  C   UNL     1       2.535   1.161   4.374  0.00  0.00    +0.005 A 
ATOM     26  C   UNL     1       2.361   1.481   5.707  0.00  0.00    +0.038 A 
ATOM     27  C   UNL     1       2.595   0.529   6.684  0.00  0.00    +0.123 A 
ATOM     28  C   UNL     1       2.998  -0.746   6.324  0.00  0.00    +0.038 A 
ATOM     29  C   UNL     1       3.165  -1.067   4.990  0.00  0.00    +0.005 A 
ATOM     30  F   UNL     1       2.431   0.843   7.988  0.00  0.00    -0.205 F 
ENDBRANCH  23  24
BRANCH  23  36
ATOM     31  C   UNL     1       1.921  -0.630   0.461  0.00  0.00    -0.049 C 
ATOM     32  C   UNL     1       0.716  -0.096  -0.319  0.00  0.00    +0.141 C 
ATOM     33  O   UNL     1      -0.480  -0.367   0.417  0.00  0.00    -0.383 OA
ATOM     34  C   UNL     1      -0.495   0.211   1.725  0.00  0.00    +0.141 C 
ATOM     35  C   UNL     1       0.698  -0.320   2.525  0.00  0.00    -0.049 C 
ATOM     36  N   UNL     1       1.941   0.005   1.795  0.00  0.00    +0.388 N 
ATOM     37  H   UNL     1       2.004   1.024   1.679  0.00  0.00    -0.081 HD
ENDBRANCH  23  36
ENDBRANCH  22  23
ENDBRANCH  20  22
ENDBRANCH   3  20
TORSDOF 7
