REMARK  Name = ZINC36058566
REMARK  11 active torsions:
REMARK  status: ('A' for Active; 'I' for Inactive)
REMARK    1  A    between atoms: C_1  and  C_2
REMARK    2  A    between atoms: C_2  and  C_3
REMARK    3  A    between atoms: C_4  and  C_33
REMARK    4  A    between atoms: C_5  and  C_26
REMARK    5  A    between atoms: C_8  and  C_13
REMARK    6  A    between atoms: C_14  and  N_16
REMARK    7  A    between atoms: N_16  and  C_17
REMARK    8  A    between atoms: C_17  and  C_19
REMARK    9  A    between atoms: C_17  and  C_20
REMARK   10  A    between atoms: C_33  and  O_35
REMARK   11  A    between atoms: O_35  and  C_36
REMARK                            x       y       z     vdW  Elec       q    Type
REMARK                         _______ _______ _______ _____ _____    ______ ____
ROOT
ATOM      1  C   UNL     1       1.022  -0.974   1.385  0.00  0.00    +0.056 C 
ATOM      2  C   UNL     1       0.199  -1.111   2.486  0.00  0.00    +0.083 C 
ATOM      3  C   UNL     1       0.852  -1.326   3.832  0.00  0.00    +0.152 C 
ATOM      4  N   UNL     1       2.339  -1.372   3.864  0.00  0.00    -0.267 N 
ATOM      5  C   UNL     1       3.141  -1.556   4.972  0.00  0.00    +0.048 C 
ATOM      6  C   UNL     1       4.479  -1.567   4.783  0.00  0.00    +0.072 C 
ATOM      7  S   UNL     1       4.604  -1.313   3.023  0.00  0.00    -0.060 S 
ATOM      8  C   UNL     1       2.968  -1.214   2.661  0.00  0.00    +0.166 C 
ATOM      9  N   UNL     1       2.337  -1.035   1.519  0.00  0.00    -0.229 NA
ENDROOT
BRANCH   3  10
ATOM     10  C   UNL     1       0.337  -2.625   4.396  0.00  0.00    +0.013 A 
ATOM     11  C   UNL     1       1.031  -3.799   4.175  0.00  0.00    +0.008 A 
ATOM     12  C   UNL     1       0.559  -4.990   4.692  0.00  0.00    +0.001 A 
ATOM     13  C   UNL     1      -0.609  -5.009   5.432  0.00  0.00    +0.003 A 
ATOM     14  C   UNL     1      -1.305  -3.836   5.655  0.00  0.00    +0.039 A 
ATOM     15  C   UNL     1      -0.830  -2.641   5.142  0.00  0.00    +0.129 A 
ATOM     16  F   UNL     1      -1.507  -1.493   5.364  0.00  0.00    -0.205 F 
ENDBRANCH   3  10
BRANCH   5  17
ATOM     17  C   UNL     1       2.561  -1.735   6.311  0.00  0.00    +0.091 C 
ATOM     18  C   UNL     1       3.354  -2.055   7.351  0.00  0.00    +0.239 C 
ATOM     19  O   UNL     1       4.699  -2.100   7.190  0.00  0.00    -0.271 OA
BRANCH  18  20
ATOM     20  N   UNL     1       2.795  -2.337   8.587  0.00  0.00    -0.305 N 
ATOM     21  H   UNL     1       1.832  -2.304   8.702  0.00  0.00    +0.150 HD
BRANCH  20  22
ATOM     22  C   UNL     1       3.658  -2.684   9.719  0.00  0.00    +0.100 C 
ATOM     23  C   UNL     1       3.969  -4.182   9.681  0.00  0.00    +0.033 C 
BRANCH  22  24
ATOM     24  C   UNL     1       2.953  -2.350  11.008  0.00  0.00    -0.027 A 
ATOM     25  C   UNL     1       1.601  -2.604  11.144  0.00  0.00    +0.005 A 
ATOM     26  C   UNL     1       0.955  -2.297  12.326  0.00  0.00    +0.000 A 
ATOM     27  C   UNL     1       1.661  -1.736  13.374  0.00  0.00    +0.000 A 
ATOM     28  C   UNL     1       3.013  -1.482  13.239  0.00  0.00    +0.000 A 
ATOM     29  C   UNL     1       3.660  -1.793  12.057  0.00  0.00    +0.005 A 
ENDBRANCH  22  24
ENDBRANCH  20  22
ENDBRANCH  18  20
ENDBRANCH   5  17
BRANCH   1  31
ATOM     30  C   UNL     1       0.288   0.742  -0.248  0.00  0.00    +0.010 C 
ATOM     31  C   UNL     1       0.418  -0.758   0.021  0.00  0.00    +0.053 C 
ENDBRANCH   1  31
BRANCH   2  32
ATOM     32  C   UNL     1      -1.194  -1.053   2.358  0.00  0.00    +0.339 C 
ATOM     33  O   UNL     1      -1.787  -0.020   2.615  0.00  0.00    -0.245 OA
BRANCH  32  34
ATOM     34  O   UNL     1      -1.881  -2.143   1.951  0.00  0.00    -0.465 OA
ATOM     35  C   UNL     1      -3.300  -2.013   1.844  0.00  0.00    +0.280 C 
ENDBRANCH  32  34
ENDBRANCH   2  32
TORSDOF 8
