REMARK  Name = ZINC12508871
REMARK  5 active torsions:
REMARK  status: ('A' for Active; 'I' for Inactive)
REMARK    1  A    between atoms: C_1  and  C_2
REMARK    2  A    between atoms: C_2  and  C_4
REMARK    3  A    between atoms: C_2  and  N_14
REMARK    4  A    between atoms: C_15  and  C_17
REMARK    5  A    between atoms: C_17  and  N_18
REMARK                            x       y       z     vdW  Elec       q    Type
REMARK                         _______ _______ _______ _____ _____    ______ ____
ROOT
ATOM      1  N   UNL     1      -2.711  -1.883  -1.649  0.00  0.00    -0.311 N 
ATOM      2  C   UNL     1      -1.623  -1.125  -1.409  0.00  0.00    +0.231 C 
ATOM      3  O   UNL     1      -0.986  -0.668  -2.335  0.00  0.00    -0.274 OA
ATOM      4  H   UNL     1      -3.221  -2.248  -0.909  0.00  0.00    +0.149 HD
ENDROOT
BRANCH   1   6
ATOM      5  C   UNL     1      -2.348  -3.360  -3.565  0.00  0.00    +0.028 C 
ATOM      6  C   UNL     1      -3.124  -2.156  -3.028  0.00  0.00    +0.076 C 
BRANCH   6   7
ATOM      7  C   UNL     1      -4.623  -2.460  -3.060  0.00  0.00    -0.010 C 
ATOM      8  C   UNL     1      -5.400  -1.256  -2.524  0.00  0.00    +0.012 C 
ATOM      9  C   UNL     1      -6.899  -1.561  -2.556  0.00  0.00    -0.010 C 
ATOM     10  C   UNL     1      -7.331  -1.845  -3.996  0.00  0.00    +0.007 C 
ATOM     11  C   UNL     1      -6.554  -3.049  -4.533  0.00  0.00    -0.010 C 
ATOM     12  C   UNL     1      -5.055  -2.745  -4.500  0.00  0.00    +0.012 C 
ATOM     13  C   UNL     1      -6.845  -4.273  -3.662  0.00  0.00    +0.007 C 
ATOM     14  C   UNL     1      -6.413  -3.989  -2.222  0.00  0.00    -0.010 C 
ATOM     15  C   UNL     1      -7.190  -2.785  -1.685  0.00  0.00    +0.007 C 
ATOM     16  C   UNL     1      -4.914  -3.684  -2.189  0.00  0.00    +0.012 C 
ENDBRANCH   6   7
ENDBRANCH   1   6
BRANCH   2  17
ATOM     17  C   UNL     1      -1.198  -0.844   0.009  0.00  0.00    +0.213 C 
BRANCH  17  18
ATOM     18  N   UNL     1       0.002  -0.004   0.002  0.00  0.00    -0.215 N 
ATOM     19  C   UNL     1      -0.016   1.346   0.009  0.00  0.00    +0.247 C 
ATOM     20  O   UNL     1      -0.990   2.069   0.018  0.00  0.00    -0.273 OA
ATOM     21  C   UNL     1       1.432   1.764  -0.002  0.00  0.00    +0.113 C 
ATOM     22  C   UNL     1       1.776   2.597   1.240  0.00  0.00    +0.035 C 
ATOM     23  C   UNL     1       2.812   3.628   0.724  0.00  0.00    +0.003 C 
ATOM     24  C   UNL     1       2.288   3.964  -0.695  0.00  0.00    +0.003 C 
ATOM     25  C   UNL     1       1.755   2.617  -1.231  0.00  0.00    +0.035 C 
ATOM     26  N   UNL     1       2.177   0.503  -0.016  0.00  0.00    -0.285 N 
ATOM     27  C   UNL     1       1.254  -0.480  -0.013  0.00  0.00    +0.310 C 
ATOM     28  O   UNL     1       1.527  -1.664  -0.022  0.00  0.00    -0.252 OA
ATOM     29  H   UNL     1       3.141   0.396  -0.026  0.00  0.00    +0.151 HD
ENDBRANCH  17  18
ENDBRANCH   2  17
TORSDOF 4
