REMARK  Name = ZINC35665435
REMARK  16 active torsions:
REMARK  status: ('A' for Active; 'I' for Inactive)
REMARK    1  A    between atoms: C_1  and  C_2
REMARK    2  A    between atoms: C_2  and  C_3
REMARK    3  A    between atoms: C_3  and  N_4
REMARK    4  A    between atoms: N_11  and  C_14
REMARK    5  A    between atoms: C_14  and  C_15
REMARK    6  A    between atoms: C_16  and  C_36
REMARK    7  A    between atoms: C_17  and  C_26
REMARK    8  A    between atoms: N_22  and  C_23
REMARK    9  A    between atoms: C_23  and  C_24
REMARK   10  A    between atoms: C_29  and  C_32
REMARK   11  A    between atoms: C_32  and  C_33
REMARK   12  A    between atoms: C_32  and  C_34
REMARK   13  A    between atoms: C_32  and  C_35
REMARK   14  A    between atoms: C_36  and  O_38
REMARK   15  A    between atoms: O_38  and  C_39
REMARK   16  A    between atoms: C_39  and  C_40
REMARK                            x       y       z     vdW  Elec       q    Type
REMARK                         _______ _______ _______ _____ _____    ______ ____
ROOT
ATOM      1  C   UNL     1      -0.106  -6.947  -6.624  0.00  0.00    +0.011 C 
ATOM      2  C   UNL     1      -0.132  -8.054  -7.397  0.00  0.00    +0.076 C 
ATOM      3  C   UNL     1       0.900  -8.168  -8.501  0.00  0.00    +0.143 C 
ATOM      4  N   UNL     1       1.853  -7.054  -8.640  0.00  0.00    -0.288 N 
ATOM      5  C   UNL     1       1.753  -6.014  -7.789  0.00  0.00    +0.307 C 
ATOM      6  O   UNL     1       2.535  -5.090  -7.896  0.00  0.00    -0.252 OA
ATOM      7  N   UNL     1       0.816  -5.962  -6.834  0.00  0.00    -0.257 N 
ATOM      8  H   UNL     1       2.537  -7.069  -9.327  0.00  0.00    +0.151 HD
ENDROOT
BRANCH   3   9
ATOM      9  C   UNL     1       1.691  -9.430  -8.269  0.00  0.00    -0.022 A 
ATOM     10  C   UNL     1       2.706  -9.446  -7.331  0.00  0.00    +0.006 A 
ATOM     11  C   UNL     1       3.432 -10.603  -7.118  0.00  0.00    +0.004 A 
ATOM     12  C   UNL     1       3.142 -11.744  -7.843  0.00  0.00    -0.042 A 
ATOM     13  C   UNL     1       2.125 -11.728  -8.780  0.00  0.00    +0.004 A 
ATOM     14  C   UNL     1       1.397 -10.572  -8.989  0.00  0.00    +0.006 A 
BRANCH  12  15
ATOM     15  C   UNL     1       3.933 -13.005  -7.611  0.00  0.00    -0.013 C 
ATOM     16  C   UNL     1       3.779 -13.444  -6.154  0.00  0.00    +0.015 C 
ATOM     17  C   UNL     1       3.414 -14.110  -8.534  0.00  0.00    +0.015 C 
ATOM     18  C   UNL     1       5.410 -12.743  -7.912  0.00  0.00    +0.015 C 
ENDBRANCH  12  15
ENDBRANCH   3   9
BRANCH   2  19
ATOM     19  C   UNL     1      -1.090  -9.073  -7.184  0.00  0.00    +0.339 C 
ATOM     20  O   UNL     1      -1.985  -8.907  -6.376  0.00  0.00    -0.245 OA
BRANCH  19  21
ATOM     21  O   UNL     1      -1.012 -10.228  -7.876  0.00  0.00    -0.462 OA
BRANCH  21  22
ATOM     22  C   UNL     1      -2.013 -11.213  -7.610  0.00  0.00    +0.229 C 
ATOM     23  C   UNL     1      -1.761 -12.445  -8.482  0.00  0.00    +0.048 C 
ENDBRANCH  21  22
ENDBRANCH  19  21
ENDBRANCH   2  19
BRANCH   1  24
ATOM     24  C   UNL     1      -1.115  -6.794  -5.514  0.00  0.00    -0.026 C 
BRANCH  24  32
ATOM     25  N   UNL     1      -5.943  -7.425  -7.821  0.00  0.00    -0.299 N 
ATOM     26  C   UNL     1      -6.048  -6.422  -6.926  0.00  0.00    +0.302 C 
ATOM     27  O   UNL     1      -7.051  -6.315  -6.249  0.00  0.00    -0.253 OA
ATOM     28  N   UNL     1      -5.040  -5.539  -6.783  0.00  0.00    -0.287 N 
ATOM     29  C   UNL     1      -5.129  -4.525  -5.713  0.00  0.00    +0.107 C 
ATOM     30  C   UNL     1      -3.772  -4.341  -5.010  0.00  0.00    +0.000 C 
ATOM     31  C   UNL     1      -3.107  -5.689  -4.838  0.00  0.00    -0.077 C 
ATOM     32  N   UNL     1      -2.216  -5.936  -5.970  0.00  0.00    +0.384 N 
ATOM     33  C   UNL     1      -2.827  -6.549  -7.086  0.00  0.00    -0.059 C 
ATOM     34  C   UNL     1      -3.906  -5.622  -7.680  0.00  0.00    +0.091 C 
ATOM     35  H   UNL     1      -5.175  -7.469  -8.412  0.00  0.00    +0.150 HD
ATOM     36  H   UNL     1      -1.826  -5.053  -6.266  0.00  0.00    -0.081 HD
BRANCH  25  37
ATOM     37  C   UNL     1      -6.989  -8.447  -7.901  0.00  0.00    +0.105 C 
BRANCH  37  39
ATOM     38  C   UNL     1      -7.721 -10.529  -9.073  0.00  0.00    +0.005 C 
ATOM     39  C   UNL     1      -6.628  -9.461  -8.989  0.00  0.00    +0.015 C 
ENDBRANCH  37  39
ENDBRANCH  25  37
ENDBRANCH  24  32
ENDBRANCH   1  24
BRANCH   7  40
ATOM     40  C   UNL     1       0.783  -4.786  -5.961  0.00  0.00    +0.141 C 
BRANCH  40  41
ATOM     41  C   UNL     1       1.752  -4.978  -4.823  0.00  0.00    -0.015 C 
ATOM     42  C   UNL     1       2.676  -4.079  -4.591  0.00  0.00    +0.005 C 
ENDBRANCH  40  41
ENDBRANCH   7  40
TORSDOF 11
