REMARK  Name = ZINC64622837
REMARK  5 active torsions:
REMARK  status: ('A' for Active; 'I' for Inactive)
REMARK    1  A    between atoms: C_1  and  O_2
REMARK    2  A    between atoms: O_2  and  C_3
REMARK    3  A    between atoms: C_3  and  C_5
REMARK    4  A    between atoms: C_10  and  N_11
REMARK    5  A    between atoms: C_27  and  C_29
REMARK                            x       y       z     vdW  Elec       q    Type
REMARK                         _______ _______ _______ _____ _____    ______ ____
ROOT
ATOM      1  N   UNL     1       2.545  -1.818   2.734  0.00  0.00    -0.268 N 
ATOM      2  C   UNL     1       3.168  -2.403   3.776  0.00  0.00    +0.307 C 
ATOM      3  O   UNL     1       3.373  -3.601   3.768  0.00  0.00    -0.252 OA
ATOM      4  N   UNL     1       3.564  -1.659   4.828  0.00  0.00    -0.276 N 
ATOM      5  C   UNL     1       3.420  -0.200   4.780  0.00  0.00    +0.114 C 
ATOM      6  C   UNL     1       4.796   0.459   4.987  0.00  0.00    +0.052 C 
ATOM      7  C   UNL     1       5.447  -0.254   6.147  0.00  0.00    -0.035 C 
ATOM      8  C   UNL     1       5.998   0.207   7.263  0.00  0.00    -0.001 A 
ATOM      9  C   UNL     1       6.274   1.577   7.726  0.00  0.00    +0.010 A 
ATOM     10  C   UNL     1       6.842   1.691   8.955  0.00  0.00    +0.001 A 
ATOM     11  C   UNL     1       7.160   0.593   9.760  0.00  0.00    +0.002 A 
ATOM     12  C   UNL     1       6.950  -0.701   9.411  0.00  0.00    +0.026 A 
ATOM     13  C   UNL     1       6.363  -0.949   8.136  0.00  0.00    +0.043 A 
ATOM     14  N   UNL     1       6.076  -2.072   7.546  0.00  0.00    -0.375 N 
ATOM     15  C   UNL     1       5.555  -1.773   6.212  0.00  0.00    +0.131 C 
ATOM     16  C   UNL     1       4.132  -2.319   6.014  0.00  0.00    +0.137 C 
ATOM     17  H   UNL     1       2.446  -0.854   2.707  0.00  0.00    +0.156 HD
ATOM     18  H   UNL     1       6.189  -2.958   7.926  0.00  0.00    +0.160 HD
ENDROOT
BRANCH   1  24
ATOM     19  C   UNL     1       0.923  -2.169   0.968  0.00  0.00    +0.080 A 
ATOM     20  C   UNL     1       0.433  -2.959  -0.076  0.00  0.00    +0.018 A 
ATOM     21  C   UNL     1       1.047  -4.154  -0.381  0.00  0.00    +0.021 A 
ATOM     22  C   UNL     1       2.151  -4.579   0.345  0.00  0.00    +0.043 A 
ATOM     23  C   UNL     1       2.647  -3.808   1.379  0.00  0.00    +0.044 A 
ATOM     24  C   UNL     1       2.044  -2.599   1.695  0.00  0.00    +0.050 A 
ATOM     25 CL   UNL     1       2.914  -6.088  -0.050  0.00  0.00    -0.083 Cl
BRANCH  19  26
ATOM     26  C   UNL     1       0.271  -0.890   1.298  0.00  0.00    +0.341 C 
ATOM     27  O   UNL     1       0.626  -0.262   2.276  0.00  0.00    -0.245 OA
BRANCH  26  29
ATOM     28  C   UNL     1      -1.306   0.829   0.896  0.00  0.00    +0.280 C 
ATOM     29  O   UNL     1      -0.719  -0.417   0.516  0.00  0.00    -0.464 OA
ENDBRANCH  26  29
ENDBRANCH  19  26
ENDBRANCH   1  24
BRANCH  16  30
ATOM     30  C   UNL     1       4.181  -3.809   5.794  0.00  0.00    +0.010 A 
ATOM     31  C   UNL     1       5.369  -4.416   5.433  0.00  0.00    +0.008 A 
ATOM     32  C   UNL     1       5.414  -5.783   5.231  0.00  0.00    +0.000 A 
ATOM     33  C   UNL     1       4.271  -6.544   5.391  0.00  0.00    +0.003 A 
ATOM     34  C   UNL     1       3.082  -5.940   5.753  0.00  0.00    +0.039 A 
ATOM     35  C   UNL     1       3.037  -4.571   5.960  0.00  0.00    +0.128 A 
ATOM     36  F   UNL     1       1.877  -3.980   6.318  0.00  0.00    -0.205 F 
ENDBRANCH  16  30
TORSDOF 4
