REMARK  Name = ZINC20763872
REMARK  4 active torsions:
REMARK  status: ('A' for Active; 'I' for Inactive)
REMARK    1  A    between atoms: C_6  and  C_7
REMARK    2  A    between atoms: C_9  and  C_23
REMARK    3  A    between atoms: C_12  and  C_15
REMARK    4  A    between atoms: C_20  and  O_21
REMARK                            x       y       z     vdW  Elec       q    Type
REMARK                         _______ _______ _______ _____ _____    ______ ____
ROOT
ATOM      1  C   UNL     1       5.512   2.227  -0.286  0.00  0.00    +0.040 C 
ATOM      2  N   UNL     1       6.201   1.213  -0.658  0.00  0.00    -0.298 NA
ATOM      3  C   UNL     1       7.652   1.216  -0.793  0.00  0.00    +0.082 C 
ATOM      4  N   UNL     1       8.167   2.589  -0.852  0.00  0.00    +0.401 N 
ATOM      5  C   UNL     1       7.634   3.381   0.271  0.00  0.00    -0.028 C 
ATOM      6  C   UNL     1       6.127   3.554   0.060  0.00  0.00    +0.044 C 
ATOM      7  H   UNL     1       9.265   2.572  -0.791  0.00  0.00    -0.081 HD
ATOM      8  H   UNL     1       7.859   3.056  -1.799  0.00  0.00    -0.081 HD
ENDROOT
BRANCH   1  14
ATOM      9  C   UNL     1       3.264   3.165   0.220  0.00  0.00    +0.013 A 
ATOM     10  C   UNL     1       1.895   3.029   0.311  0.00  0.00    +0.050 A 
ATOM     11  C   UNL     1       1.292   1.818  -0.001  0.00  0.00    +0.166 A 
ATOM     12  C   UNL     1       2.069   0.734  -0.408  0.00  0.00    +0.167 A 
ATOM     13  C   UNL     1       3.441   0.864  -0.502  0.00  0.00    +0.059 A 
ATOM     14  C   UNL     1       4.048   2.083  -0.188  0.00  0.00    -0.001 A 
ATOM     15  O   UNL     1       1.244  -0.327  -0.651  0.00  0.00    -0.453 OA
ATOM     16  C   UNL     1       0.002  -0.004   0.002  0.00  0.00    +0.466 C 
ATOM     17  O   UNL     1      -0.017   1.435   0.010  0.00  0.00    -0.453 OA
ENDBRANCH   1  14
BRANCH   3  18
ATOM     18  C   UNL     1       8.258   0.510   0.393  0.00  0.00    -0.022 A 
ATOM     19  C   UNL     1       7.512  -0.413   1.102  0.00  0.00    +0.006 A 
ATOM     20  C   UNL     1       8.066  -1.061   2.190  0.00  0.00    +0.020 A 
ATOM     21  C   UNL     1       9.368  -0.786   2.570  0.00  0.00    +0.042 A 
ATOM     22  C   UNL     1      10.114   0.137   1.861  0.00  0.00    +0.040 A 
ATOM     23  C   UNL     1       9.561   0.781   0.769  0.00  0.00    +0.046 A 
ATOM     24 CL   UNL     1      10.500   1.935  -0.126  0.00  0.00    -0.083 Cl
ATOM     25 CL   UNL     1      10.064  -1.601   3.936  0.00  0.00    -0.083 Cl
ENDBRANCH   3  18
BRANCH   5  26
ATOM     26  C   UNL     1       8.302   4.731   0.304  0.00  0.00    -0.018 A 
ATOM     27  C   UNL     1       8.865   5.253  -0.845  0.00  0.00    +0.025 A 
ATOM     28  C   UNL     1       9.473   6.495  -0.816  0.00  0.00    +0.041 A 
ATOM     29  C   UNL     1       9.530   7.212   0.366  0.00  0.00    +0.023 A 
ATOM     30  C   UNL     1       8.973   6.692   1.518  0.00  0.00    +0.047 A 
ATOM     31  C   UNL     1       8.357   5.449   1.489  0.00  0.00    +0.119 A 
ATOM     32 CL   UNL     1      10.174   7.150  -2.263  0.00  0.00    -0.084 Cl
BRANCH  31  33
ATOM     33  O   UNL     1       7.809   4.935   2.622  0.00  0.00    -0.507 OA
ATOM     34  H   UNL     1       7.853   5.505   3.562  0.00  0.00    +0.292 HD
ENDBRANCH  31  33
ENDBRANCH   5  26
TORSDOF 4
