REMARK  Name = ZINC05505944
REMARK  5 active torsions:
REMARK  status: ('A' for Active; 'I' for Inactive)
REMARK    1  A    between atoms: C_4  and  C_7
REMARK    2  A    between atoms: C_8  and  C_9
REMARK    3  A    between atoms: N_11  and  C_12
REMARK    4  A    between atoms: C_16  and  S_18
REMARK    5  A    between atoms: S_18  and  N_21
REMARK                            x       y       z     vdW  Elec       q    Type
REMARK                         _______ _______ _______ _____ _____    ______ ____
ROOT
ATOM      1  C   UNL     1       2.677  -1.127   2.793  0.00  0.00    +0.036 A 
ATOM      2  C   UNL     1       1.880  -1.359   3.907  0.00  0.00    +0.023 A 
ATOM      3  C   UNL     1       0.513  -1.178   3.825  0.00  0.00    +0.004 A 
ATOM      4  C   UNL     1      -0.062  -0.767   2.636  0.00  0.00    +0.029 A 
ATOM      5  C   UNL     1       0.729  -0.536   1.526  0.00  0.00    +0.110 A 
ATOM      6  C   UNL     1       2.096  -0.720   1.599  0.00  0.00    +0.052 A 
ENDROOT
BRANCH   1   9
ATOM      7  C   UNL     1       4.716  -1.012   4.012  0.00  0.00    +0.241 C 
ATOM      8  O   UNL     1       4.093  -0.666   4.999  0.00  0.00    -0.270 OA
ATOM      9  N   UNL     1       4.061  -1.309   2.872  0.00  0.00    -0.282 N 
ATOM     10  H   UNL     1       4.550  -1.649   2.106  0.00  0.00    +0.155 HD
BRANCH   7  12
ATOM     11  C   UNL     1       6.830  -0.809   5.204  0.00  0.00    +0.013 C 
ATOM     12  C   UNL     1       6.176  -1.106   4.064  0.00  0.00    +0.068 C 
BRANCH  11  16
ATOM     13  C   UNL     1      11.061  -1.082   5.354  0.00  0.00    +0.000 A 
ATOM     14  C   UNL     1      10.357  -0.687   6.478  0.00  0.00    +0.001 A 
ATOM     15  C   UNL     1       8.981  -0.596   6.437  0.00  0.00    +0.008 A 
ATOM     16  C   UNL     1       8.299  -0.904   5.256  0.00  0.00    -0.025 A 
ATOM     17  C   UNL     1       9.017  -1.306   4.126  0.00  0.00    +0.008 A 
ATOM     18  C   UNL     1      10.393  -1.387   4.181  0.00  0.00    +0.001 A 
ENDBRANCH  11  16
ENDBRANCH   7  12
ENDBRANCH   1   9
BRANCH   5  19
ATOM     19  S   UNL     1      -0.009  -0.013   0.013  0.00  0.00    +0.073 S 
ATOM     20  O   UNL     1      -1.362  -0.446   0.051  0.00  0.00    -0.150 OA
ATOM     21  O   UNL     1       0.883  -0.392  -1.026  0.00  0.00    -0.150 OA
BRANCH  19  22
ATOM     22  N   UNL     1      -0.041   1.642   0.031  0.00  0.00    -0.205 N 
ATOM     23  C   UNL     1       1.132   2.350   0.025  0.00  0.00    +0.088 C 
ATOM     24  C   UNL     1       3.518   2.471  -0.002  0.00  0.00    +0.113 C 
ATOM     25  C   UNL     1       3.743   3.080   1.383  0.00  0.00    +0.021 C 
ATOM     26  C   UNL     1       3.060   4.433   1.493  0.00  0.00    +0.002 C 
ATOM     27  C   UNL     1       1.544   4.347   1.422  0.00  0.00    +0.007 C 
ATOM     28  C   UNL     1       1.097   3.863   0.035  0.00  0.00    +0.070 C 
ATOM     29  H   UNL     1      -0.890   2.111   0.041  0.00  0.00    +0.175 HD
ATOM     30  N   UNL     1       2.247   1.654   0.006  0.00  0.00    -0.375 N 
ATOM     31  H   UNL     1       2.253   0.627  -0.003  0.00  0.00    +0.161 HD
ENDBRANCH  19  22
ENDBRANCH   5  19
TORSDOF 5
