REMARK  Name = ZINC67584479
REMARK  7 active torsions:
REMARK  status: ('A' for Active; 'I' for Inactive)
REMARK    1  A    between atoms: C_1  and  C_2
REMARK    2  A    between atoms: C_2  and  C_3
REMARK    3  A    between atoms: C_3  and  C_4
REMARK    4  A    between atoms: N_6  and  C_7
REMARK    5  A    between atoms: C_11  and  N_14
REMARK    6  A    between atoms: C_12  and  C_13
REMARK    7  A    between atoms: C_21  and  C_24
REMARK                            x       y       z     vdW  Elec       q    Type
REMARK                         _______ _______ _______ _____ _____    ______ ____
ROOT
ATOM      1  C   UNL     1      -2.459  -4.264   0.446  0.00  0.00    +0.038 A 
ATOM      2  C   UNL     1      -1.268  -4.761  -0.068  0.00  0.00    +0.024 A 
ATOM      3  C   UNL     1      -1.242  -5.998  -0.682  0.00  0.00    +0.004 A 
ATOM      4  C   UNL     1      -2.399  -6.746  -0.786  0.00  0.00    +0.024 A 
ATOM      5  C   UNL     1      -3.593  -6.255  -0.274  0.00  0.00    +0.039 A 
ATOM      6  C   UNL     1      -3.622  -5.014   0.349  0.00  0.00    -0.008 A 
ATOM      7  C   UNL     1      -4.914  -4.482   0.912  0.00  0.00    +0.047 C 
ENDROOT
BRANCH   5   8
ATOM      8  N   UNL     1      -4.765  -7.012  -0.380  0.00  0.00    -0.269 N 
ATOM      9  C   UNL     1      -4.700  -8.358  -0.382  0.00  0.00    +0.306 C 
ATOM     10  O   UNL     1      -3.618  -8.914  -0.389  0.00  0.00    -0.252 OA
ATOM     11  N   UNL     1      -5.833  -9.088  -0.376  0.00  0.00    -0.285 N 
ATOM     12  C   UNL     1      -7.144  -8.435  -0.491  0.00  0.00    +0.109 C 
ATOM     13  C   UNL     1      -8.025  -8.890   0.677  0.00  0.00    +0.019 C 
ATOM     14  C   UNL     1      -8.084 -10.419   0.701  0.00  0.00    +0.006 C 
ATOM     15  C   UNL     1      -6.676 -10.982   0.910  0.00  0.00    +0.003 C 
ATOM     16  C   UNL     1      -5.780 -10.552  -0.261  0.00  0.00    +0.112 C 
ATOM     17  C   UNL     1      -6.741 -12.510   0.967  0.00  0.00    +0.009 C 
ATOM     18  H   UNL     1      -5.625  -6.568  -0.452  0.00  0.00    +0.156 HD
ENDBRANCH   5   8
BRANCH   1  21
ATOM     19  C   UNL     1      -1.343  -2.464   1.530  0.00  0.00    +0.217 C 
ATOM     20  O   UNL     1      -0.313  -3.106   1.514  0.00  0.00    -0.275 OA
ATOM     21  N   UNL     1      -2.485  -3.011   1.068  0.00  0.00    -0.285 N 
ATOM     22  H   UNL     1      -3.324  -2.535   1.165  0.00  0.00    +0.155 HD
BRANCH  19  23
ATOM     23  C   UNL     1      -1.345  -1.057   2.069  0.00  0.00    +0.096 C 
BRANCH  23  25
ATOM     24  C   UNL     1       0.065   0.746   3.072  0.00  0.00    +0.004 C 
ATOM     25  C   UNL     1       0.067  -0.683   2.525  0.00  0.00    +0.006 C 
ENDBRANCH  23  25
ENDBRANCH  19  23
ENDBRANCH   1  21
TORSDOF 4
