REMARK  Name = ZINC01127418
REMARK  7 active torsions:
REMARK  status: ('A' for Active; 'I' for Inactive)
REMARK    1  A    between atoms: C_4  and  N_24
REMARK    2  A    between atoms: C_5  and  N_7
REMARK    3  A    between atoms: N_7  and  C_8
REMARK    4  A    between atoms: C_8  and  N_10
REMARK    5  A    between atoms: C_11  and  C_13
REMARK    6  A    between atoms: C_14  and  C_15
REMARK    7  A    between atoms: C_19  and  N_21
REMARK                            x       y       z     vdW  Elec       q    Type
REMARK                         _______ _______ _______ _____ _____    ______ ____
ROOT
ATOM      1  C   UNL     1      -2.855   9.473  -0.806  0.00  0.00    +0.141 C 
ATOM      2  S   UNL     1      -1.925  10.384  -1.918  0.00  0.00    -0.018 S 
ENDROOT
BRANCH   1   3
ATOM      3  N   UNL     1      -2.803   8.126  -0.829  0.00  0.00    -0.264 N 
ATOM      4  C   UNL     1      -2.020   7.497  -1.728  0.00  0.00    +0.242 C 
ATOM      5  O   UNL     1      -1.360   8.145  -2.518  0.00  0.00    -0.270 OA
ATOM      6  H   UNL     1      -3.330   7.610  -0.199  0.00  0.00    +0.157 HD
BRANCH   4   7
ATOM      7  C   UNL     1      -1.964   6.035  -1.753  0.00  0.00    +0.068 C 
ATOM      8  C   UNL     1      -1.181   5.406  -2.652  0.00  0.00    +0.013 C 
BRANCH   8   9
ATOM      9  C   UNL     1      -1.125   3.935  -2.677  0.00  0.00    -0.023 A 
ATOM     10  C   UNL     1      -1.882   3.187  -1.770  0.00  0.00    +0.008 A 
ATOM     11  C   UNL     1      -1.828   1.810  -1.803  0.00  0.00    +0.003 A 
ATOM     12  C   UNL     1      -1.018   1.167  -2.724  0.00  0.00    +0.033 A 
ATOM     13  C   UNL     1      -0.266   1.900  -3.625  0.00  0.00    +0.127 A 
ATOM     14  C   UNL     1      -0.313   3.279  -3.608  0.00  0.00    +0.040 A 
BRANCH  13  15
ATOM     15  N   UNL     1       0.592   1.203  -4.609  0.00  0.00    +0.056 N 
ATOM     16  O   UNL     1       0.635  -0.014  -4.626  0.00  0.00    -0.126 OA
ATOM     17  O   UNL     1       1.255   1.847  -5.403  0.00  0.00    -0.126 OA
ENDBRANCH  13  15
ENDBRANCH   8   9
ENDBRANCH   4   7
ENDBRANCH   1   3
BRANCH   1  18
ATOM     18  N   UNL     1      -3.638  10.102   0.092  0.00  0.00    -0.295 N 
ATOM     19  H   UNL     1      -4.224   9.588   0.669  0.00  0.00    +0.154 HD
BRANCH  18  24
ATOM     20  C   UNL     1      -2.362  13.548   0.278  0.00  0.00    +0.002 A 
ATOM     21  C   UNL     1      -3.540  14.263   0.392  0.00  0.00    +0.002 A 
ATOM     22  C   UNL     1      -4.755  13.603   0.408  0.00  0.00    +0.025 A 
ATOM     23  C   UNL     1      -4.794  12.220   0.309  0.00  0.00    +0.051 A 
ATOM     24  C   UNL     1      -3.605  11.499   0.193  0.00  0.00    +0.054 A 
ATOM     25  C   UNL     1      -2.391  12.169   0.184  0.00  0.00    +0.025 A 
BRANCH  23  26
ATOM     26  N   UNL     1      -6.022  11.550   0.325  0.00  0.00    -0.328 N 
ATOM     27  C   UNL     1      -6.833  11.909  -0.845  0.00  0.00    +0.105 C 
ATOM     28  C   UNL     1      -8.101  11.052  -0.871  0.00  0.00    +0.019 C 
ATOM     29  C   UNL     1      -8.896  11.287   0.416  0.00  0.00    +0.003 C 
ATOM     30  C   UNL     1      -8.013  10.951   1.621  0.00  0.00    +0.019 C 
ATOM     31  C   UNL     1      -6.748  11.811   1.575  0.00  0.00    +0.105 C 
ENDBRANCH  23  26
ENDBRANCH  18  24
ENDBRANCH   1  18
TORSDOF 7
