REMARK  Name = ZINC54995440
REMARK  6 active torsions:
REMARK  status: ('A' for Active; 'I' for Inactive)
REMARK    1  A    between atoms: C_1  and  C_2
REMARK    2  A    between atoms: C_2  and  C_3
REMARK    3  A    between atoms: C_4  and  C_18
REMARK    4  A    between atoms: C_10  and  C_17
REMARK    5  A    between atoms: C_13  and  C_16
REMARK    6  A    between atoms: C_18  and  N_19
REMARK                            x       y       z     vdW  Elec       q    Type
REMARK                         _______ _______ _______ _____ _____    ______ ____
ROOT
ATOM      1  C   UNL     1       0.707  -0.490  -1.238  0.00  0.00    +0.052 A 
ATOM      2  C   UNL     1       0.033  -0.724  -2.389  0.00  0.00    -0.003 A 
ATOM      3  S   UNL     1       1.365  -1.259  -3.452  0.00  0.00    -0.059 S 
ATOM      4  C   UNL     1       2.619  -1.131  -2.337  0.00  0.00    +0.161 A 
ATOM      5  N   UNL     1       2.012  -0.702  -1.251  0.00  0.00    -0.230 NA
ATOM      6  N   UNL     1       3.965  -1.405  -2.520  0.00  0.00    -0.305 N 
ATOM      7  C   UNL     1       4.473  -1.870  -3.821  0.00  0.00    +0.138 C 
ATOM      8  C   UNL     1       5.671  -0.996  -4.212  0.00  0.00    +0.133 C 
ATOM      9  O   UNL     1       6.610  -0.974  -3.134  0.00  0.00    -0.371 OA
ATOM     10  C   UNL     1       6.103  -0.397  -1.929  0.00  0.00    +0.133 C 
ATOM     11  C   UNL     1       4.929  -1.235  -1.422  0.00  0.00    +0.138 C 
ATOM     12  C   UNL     1       5.627   1.030  -2.206  0.00  0.00    +0.039 C 
ATOM     13  C   UNL     1       6.338  -1.574  -5.461  0.00  0.00    +0.039 C 
ENDROOT
BRANCH   1  15
ATOM     14  C   UNL     1      -0.019   1.526   0.010  0.00  0.00    +0.010 C 
ATOM     15  C   UNL     1       0.002  -0.004   0.002  0.00  0.00    +0.053 C 
ENDBRANCH   1  15
BRANCH   2  16
ATOM     16  C   UNL     1      -1.436  -0.574  -2.690  0.00  0.00    -0.041 C 
BRANCH  16  17
ATOM     17  N   UNL     1      -1.699   0.786  -3.179  0.00  0.00    +0.381 N 
ATOM     18  H   UNL     1      -1.430   1.455  -2.474  0.00  0.00    -0.090 HD
ATOM     19  H   UNL     1      -1.165   0.951  -4.019  0.00  0.00    -0.090 HD
ATOM     20  H   UNL     1      -2.683   0.886  -3.381  0.00  0.00    -0.090 HD
ENDBRANCH  16  17
ENDBRANCH   2  16
TORSDOF 3
