REMARK  Name = ZINC64029924
REMARK  3 active torsions:
REMARK  status: ('A' for Active; 'I' for Inactive)
REMARK    1  A    between atoms: C_1  and  C_2
REMARK    2  A    between atoms: C_2  and  C_3
REMARK    3  A    between atoms: C_2  and  N_14
REMARK                            x       y       z     vdW  Elec       q    Type
REMARK                         _______ _______ _______ _____ _____    ______ ____
ROOT
ATOM      1  C   UNL     1      -0.019   1.526   0.010  0.00  0.00    +0.033 C 
ATOM      2  C   UNL     1       0.002  -0.004   0.002  0.00  0.00    +0.099 C 
ENDROOT
BRANCH   2   3
ATOM      3  N   UNL     1       0.688  -0.476  -1.203  0.00  0.00    -0.321 N 
ATOM      4  C   UNL     1      -0.013  -0.612  -2.392  0.00  0.00    +0.138 A 
ATOM      5  C   UNL     1      -1.382  -0.289  -2.436  0.00  0.00    +0.154 A 
ATOM      6  N   UNL     1      -2.061  -0.410  -3.551  0.00  0.00    -0.250 NA
ATOM      7  C   UNL     1      -1.449  -0.846  -4.660  0.00  0.00    +0.089 A 
ATOM      8  C   UNL     1      -2.155  -0.985  -5.867  0.00  0.00    +0.030 A 
ATOM      9  C   UNL     1      -1.508  -1.429  -6.979  0.00  0.00    +0.002 A 
ATOM     10  C   UNL     1      -0.153  -1.750  -6.940  0.00  0.00    +0.002 A 
ATOM     11  C   UNL     1       0.562  -1.629  -5.788  0.00  0.00    +0.030 A 
ATOM     12  C   UNL     1      -0.071  -1.172  -4.620  0.00  0.00    +0.091 A 
ATOM     13  N   UNL     1       0.609  -1.038  -3.475  0.00  0.00    -0.229 NA
ATOM     14  H   UNL     1       1.632  -0.695  -1.170  0.00  0.00    +0.148 HD
ENDBRANCH   2   3
BRANCH   2  15
ATOM     15  C   UNL     1       0.731  -0.503   1.223  0.00  0.00    -0.024 A 
ATOM     16  C   UNL     1       2.113  -0.513   1.244  0.00  0.00    +0.009 A 
ATOM     17  C   UNL     1       2.789  -0.969   2.362  0.00  0.00    +0.050 A 
ATOM     18  C   UNL     1       2.075  -1.417   3.460  0.00  0.00    +0.162 A 
ATOM     19  C   UNL     1       0.688  -1.407   3.439  0.00  0.00    +0.162 A 
ATOM     20  C   UNL     1       0.015  -0.945   2.321  0.00  0.00    +0.055 A 
ATOM     21  O   UNL     1      -0.006  -1.849   4.528  0.00  0.00    -0.488 OA
ATOM     22  C   UNL     1       0.085  -3.249   4.800  0.00  0.00    +0.232 C 
ATOM     23  C   UNL     1       1.334  -3.561   5.609  0.00  0.00    +0.082 C 
ATOM     24  C   UNL     1       2.611  -3.267   4.839  0.00  0.00    +0.232 C 
ATOM     25  O   UNL     1       2.730  -1.868   4.570  0.00  0.00    -0.488 OA
ENDBRANCH   2  15
TORSDOF 2
