REMARK  Name = ZINC45510926
REMARK  7 active torsions:
REMARK  status: ('A' for Active; 'I' for Inactive)
REMARK    1  A    between atoms: C_8  and  C_10
REMARK    2  A    between atoms: C_10  and  N_11
REMARK    3  A    between atoms: N_14  and  C_17
REMARK    4  A    between atoms: C_17  and  C_18
REMARK    5  A    between atoms: C_18  and  C_19
REMARK    6  A    between atoms: N_21  and  C_22
REMARK    7  A    between atoms: C_23  and  C_32
REMARK                            x       y       z     vdW  Elec       q    Type
REMARK                         _______ _______ _______ _____ _____    ______ ____
ROOT
ATOM      1  C   UNL     1      -3.165   2.374   8.672  0.00  0.00    +0.093 C 
ENDROOT
BRANCH   1   5
ATOM      2  N   UNL     1      -1.262   0.531   5.378  0.00  0.00    +0.387 N 
ATOM      3  C   UNL     1      -1.328   1.998   5.405  0.00  0.00    -0.063 C 
ATOM      4  C   UNL     1      -1.587   2.471   6.838  0.00  0.00    +0.066 C 
ATOM      5  N   UNL     1      -2.852   1.897   7.318  0.00  0.00    -0.305 NA
ATOM      6  C   UNL     1      -2.809   0.429   7.274  0.00  0.00    +0.066 C 
ATOM      7  C   UNL     1      -2.540  -0.027   5.838  0.00  0.00    -0.063 C 
ATOM      8  H   UNL     1      -0.520   0.217   5.986  0.00  0.00    -0.081 HD
BRANCH   2   9
ATOM      9  C   UNL     1      -0.995   0.079   4.006  0.00  0.00    +0.019 C 
BRANCH   9  17
ATOM     10  C   UNL     1      -0.018   1.505   0.010  0.00  0.00    +0.002 C 
ATOM     11  C   UNL     1       1.414   2.030  -0.001  0.00  0.00    +0.002 C 
ATOM     12  C   UNL     1       2.036   2.122   1.329  0.00  0.00    +0.019 C 
ATOM     13  C   UNL     1       2.148   0.716   1.969  0.00  0.00    +0.107 C 
ATOM     14  N   UNL     1       0.833   0.250   2.349  0.00  0.00    -0.303 N 
ATOM     15  C   UNL     1      -0.024  -0.542   1.445  0.00  0.00    +0.107 C 
ATOM     16  C   UNL     1       0.002  -0.004   0.002  0.00  0.00    +0.019 C 
ATOM     17  C   UNL     1       0.371   0.549   3.579  0.00  0.00    +0.199 C 
ATOM     18  O   UNL     1       1.056   1.198   4.342  0.00  0.00    -0.278 OA
ENDBRANCH   9  17
ENDBRANCH   2   9
ENDBRANCH   1   5
BRANCH   1  19
ATOM     19  C   UNL     1      -4.592   1.962   9.040  0.00  0.00    +0.111 C 
BRANCH  19  20
ATOM     20  C   UNL     1      -4.913   2.451  10.429  0.00  0.00    +0.219 C 
ATOM     21  O   UNL     1      -4.082   3.068  11.062  0.00  0.00    -0.275 OA
ATOM     22  N   UNL     1      -6.123   2.203  10.968  0.00  0.00    -0.279 N 
ATOM     23  H   UNL     1      -6.788   1.709  10.462  0.00  0.00    +0.155 HD
BRANCH  22  24
ATOM     24  C   UNL     1      -6.419   2.653  12.247  0.00  0.00    +0.090 A 
ATOM     25  C   UNL     1      -7.595   2.488  12.957  0.00  0.00    +0.084 A 
ATOM     26  C   UNL     1      -7.658   3.060  14.294  0.00  0.00    -0.018 A 
ATOM     27  C   UNL     1      -6.529   3.697  14.669  0.00  0.00    -0.004 A 
ATOM     28  S   UNL     1      -5.430   3.517  13.292  0.00  0.00    -0.077 S 
ATOM     29  C   UNL     1      -6.265   4.407  15.960  0.00  0.00    +0.043 C 
ATOM     30  C   UNL     1      -6.677   3.498  17.127  0.00  0.00    +0.005 C 
ATOM     31  C   UNL     1      -8.145   3.756  17.450  0.00  0.00    +0.001 C 
ATOM     32  C   UNL     1      -8.912   4.106  16.177  0.00  0.00    +0.005 C 
ATOM     33  C   UNL     1      -8.878   2.939  15.195  0.00  0.00    +0.037 C 
BRANCH  25  34
ATOM     34  C   UNL     1      -8.708   1.782  12.397  0.00  0.00    +0.102 C 
ATOM     35  N   UNL     1      -9.591   1.221  11.953  0.00  0.00    -0.191 NA
ENDBRANCH  25  34
ENDBRANCH  22  24
ENDBRANCH  19  20
ENDBRANCH   1  19
TORSDOF 7
