REMARK  Name = ZINC35909039
REMARK  8 active torsions:
REMARK  status: ('A' for Active; 'I' for Inactive)
REMARK    1  A    between atoms: C_1  and  C_2
REMARK    2  A    between atoms: C_2  and  C_3
REMARK    3  A    between atoms: N_7  and  C_29
REMARK    4  A    between atoms: C_11  and  N_16
REMARK    5  A    between atoms: C_17  and  C_19
REMARK    6  A    between atoms: C_24  and  O_25
REMARK    7  A    between atoms: O_25  and  C_26
REMARK    8  A    between atoms: C_26  and  C_28
REMARK                            x       y       z     vdW  Elec       q    Type
REMARK                         _______ _______ _______ _____ _____    ______ ____
ROOT
ATOM      1  C   UNL     1      -1.056  -0.175  -0.005  0.00  0.00    +0.259 C 
ATOM      2  C   UNL     1      -1.015  -1.661   0.178  0.00  0.00    +0.257 C 
ATOM      3  O   UNL     1      -1.260  -2.016   1.312  0.00  0.00    -0.272 OA
ATOM      4  N   UNL     1      -0.776  -2.624  -0.616  0.00  0.00    -0.287 N 
ATOM      5  C   UNL     1      -0.683  -2.713  -2.034  0.00  0.00    +0.147 C 
ATOM      6  C   UNL     1      -0.961  -1.494  -2.859  0.00  0.00    +0.013 A 
ATOM      7  C   UNL     1      -0.767  -1.709  -4.233  0.00  0.00    +0.032 A 
ATOM      8  C   UNL     1      -0.921  -0.689  -5.149  0.00  0.00    +0.034 A 
ATOM      9  C   UNL     1      -1.266   0.577  -4.691  0.00  0.00    +0.027 A 
ATOM     10  C   UNL     1      -1.473   0.771  -3.351  0.00  0.00    +0.048 A 
ATOM     11  C   UNL     1      -1.351  -0.284  -2.414  0.00  0.00    +0.126 A 
ATOM     12  O   UNL     1      -1.754   0.161  -1.188  0.00  0.00    -0.479 OA
ENDROOT
BRANCH   4  13
ATOM     13  C   UNL     1      -0.548  -3.900   0.066  0.00  0.00    +0.107 C 
ATOM     14  C   UNL     1       0.660  -3.769   0.991  0.00  0.00    +0.027 C 
ATOM     15  C   UNL     1       0.750  -5.034   1.852  0.00  0.00    +0.007 C 
ATOM     16  C   UNL     1      -0.414  -5.027   2.842  0.00  0.00    +0.035 C 
ATOM     17  C   UNL     1      -1.717  -4.791   2.125  0.00  0.00    -0.042 A 
ATOM     18  C   UNL     1      -1.779  -4.269   0.852  0.00  0.00    -0.024 A 
ATOM     19  C   UNL     1      -3.015  -4.070   0.251  0.00  0.00    +0.006 A 
ATOM     20  C   UNL     1      -4.179  -4.393   0.917  0.00  0.00    +0.000 A 
ATOM     21  C   UNL     1      -4.116  -4.919   2.193  0.00  0.00    +0.000 A 
ATOM     22  C   UNL     1      -2.891  -5.117   2.792  0.00  0.00    +0.004 A 
ENDBRANCH   4  13
BRANCH   8  23
ATOM     23  N   UNL     1      -0.733  -0.925  -6.517  0.00  0.00    -0.281 N 
ATOM     24  C   UNL     1      -1.488  -0.273  -7.423  0.00  0.00    +0.252 C 
ATOM     25  O   UNL     1      -2.280   0.575  -7.058  0.00  0.00    -0.270 OA
ATOM     26  H   UNL     1      -0.059  -1.557  -6.812  0.00  0.00    +0.155 HD
BRANCH  24  27
ATOM     27  C   UNL     1      -1.354  -0.588  -8.858  0.00  0.00    +0.079 A 
ATOM     28  C   UNL     1      -0.450  -1.565  -9.282  0.00  0.00    +0.017 A 
ATOM     29  C   UNL     1      -0.330  -1.855 -10.624  0.00  0.00    +0.001 A 
ATOM     30  C   UNL     1      -1.101  -1.182 -11.556  0.00  0.00    +0.004 A 
ATOM     31  C   UNL     1      -1.999  -0.213 -11.151  0.00  0.00    +0.047 A 
ATOM     32  C   UNL     1      -2.137   0.087  -9.804  0.00  0.00    +0.144 A 
BRANCH  32  33
ATOM     33  O   UNL     1      -3.023   1.034  -9.404  0.00  0.00    -0.425 OA
BRANCH  33  34
ATOM     34  C   UNL     1      -2.579   2.294  -9.266  0.00  0.00    +0.309 C 
ATOM     35  O   UNL     1      -1.404   2.540  -9.406  0.00  0.00    -0.251 OA
ATOM     36  C   UNL     1      -3.546   3.402  -8.935  0.00  0.00    +0.136 C 
ENDBRANCH  33  34
ENDBRANCH  32  33
ENDBRANCH  24  27
ENDBRANCH   8  23
BRANCH   1  38
ATOM     37  C   UNL     1       0.342   1.891  -0.143  0.00  0.00    +0.008 C 
ATOM     38  C   UNL     1       0.373   0.362  -0.094  0.00  0.00    +0.051 C 
ENDBRANCH   1  38
TORSDOF 6
