REMARK  Name = ZINC00965202
REMARK  10 active torsions:
REMARK  status: ('A' for Active; 'I' for Inactive)
REMARK    1  A    between atoms: C_1  and  C_2
REMARK    2  A    between atoms: C_6  and  N_8
REMARK    3  A    between atoms: C_9  and  C_31
REMARK    4  A    between atoms: C_12  and  S_13
REMARK    5  A    between atoms: S_13  and  C_14
REMARK    6  A    between atoms: C_14  and  C_15
REMARK    7  A    between atoms: C_17  and  C_20
REMARK    8  A    between atoms: N_22  and  C_23
REMARK    9  A    between atoms: C_23  and  C_24
REMARK   10  A    between atoms: C_24  and  C_25
REMARK                            x       y       z     vdW  Elec       q    Type
REMARK                         _______ _______ _______ _____ _____    ______ ____
ROOT
ATOM      1  S   UNL     1      -2.007   5.172   1.753  0.00  0.00    -0.076 S 
ENDROOT
BRANCH   1   6
ATOM      2  N   UNL     1      -3.658   7.325   2.442  0.00  0.00    -0.268 N 
ATOM      3  C   UNL     1      -4.385   8.277   1.758  0.00  0.00    +0.205 A 
ATOM      4  N   UNL     1      -4.212   8.043   0.475  0.00  0.00    -0.125 NA
ATOM      5  N   UNL     1      -3.438   7.031   0.313  0.00  0.00    -0.122 NA
ATOM      6  C   UNL     1      -3.065   6.553   1.480  0.00  0.00    +0.197 A 
BRANCH   2  12
ATOM      7  C   UNL     1      -0.890   7.435   6.506  0.00  0.00    +0.044 C 
ATOM      8  C   UNL     1      -2.219   7.227   5.827  0.00  0.00    -0.048 A 
ATOM      9  C   UNL     1      -3.333   6.893   6.576  0.00  0.00    +0.003 A 
ATOM     10  C   UNL     1      -4.554   6.702   5.956  0.00  0.00    +0.002 A 
ATOM     11  C   UNL     1      -4.666   6.849   4.587  0.00  0.00    +0.026 A 
ATOM     12  C   UNL     1      -3.549   7.179   3.832  0.00  0.00    +0.051 A 
ATOM     13  C   UNL     1      -2.324   7.371   4.457  0.00  0.00    +0.029 A 
ENDBRANCH   2  12
BRANCH   3  14
ATOM     14  C   UNL     1      -5.202   9.347   2.350  0.00  0.00    +0.172 A 
ATOM     15  C   UNL     1      -6.134  10.098   1.697  0.00  0.00    +0.053 A 
ATOM     16  C   UNL     1      -6.670  10.992   2.643  0.00  0.00    +0.042 A 
ATOM     17  C   UNL     1      -6.043  10.754   3.812  0.00  0.00    +0.196 A 
ATOM     18  O   UNL     1      -5.157   9.761   3.632  0.00  0.00    -0.460 OA
ENDBRANCH   3  14
ENDBRANCH   1   6
BRANCH   1  19
ATOM     19  C   UNL     1      -1.655   4.701   0.041  0.00  0.00    +0.173 C 
BRANCH  19  20
ATOM     20  C   UNL     1      -0.739   3.505   0.027  0.00  0.00    +0.206 A 
ATOM     21  N   UNL     1      -1.123   2.263   0.019  0.00  0.00    -0.208 NA
ATOM     22  C   UNL     1      -0.018   1.470   0.010  0.00  0.00    +0.163 A 
ATOM     23  C   UNL     1       1.066   2.293   0.004  0.00  0.00    +0.230 A 
ATOM     24  O   UNL     1       0.600   3.553   0.015  0.00  0.00    -0.446 OA
BRANCH  22  25
ATOM     25  C   UNL     1       0.002  -0.004   0.002  0.00  0.00    +0.266 C 
ATOM     26  O   UNL     1       1.063  -0.598  -0.011  0.00  0.00    -0.268 OA
ATOM     27  N   UNL     1      -1.156  -0.694   0.009  0.00  0.00    -0.310 N 
ATOM     28  H   UNL     1      -2.116  -0.157   0.021  0.00  0.00    +0.149 HD
BRANCH  27  29
ATOM     29  C   UNL     1      -1.136  -2.159   0.001  0.00  0.00    +0.110 C 
BRANCH  29  30
ATOM     30  C   UNL     1      -2.571  -2.688   0.012  0.00  0.00    +0.074 C 
BRANCH  30  31
ATOM     31  C   UNL     1      -2.551  -4.195   0.004  0.00  0.00    +0.043 A 
ATOM     32  C   UNL     1      -3.221  -4.893   0.991  0.00  0.00    +0.023 A 
ATOM     33  C   UNL     1      -3.197  -6.279   0.974  0.00  0.00    +0.003 A 
ATOM     34  C   UNL     1      -2.495  -6.914  -0.040  0.00  0.00    +0.020 A 
ATOM     35  C   UNL     1      -1.849  -6.150  -0.993  0.00  0.00    +0.111 A 
ATOM     36  N   UNL     1      -1.898  -4.833  -0.948  0.00  0.00    -0.260 NA
ENDBRANCH  30  31
ENDBRANCH  29  30
ENDBRANCH  27  29
ENDBRANCH  22  25
ENDBRANCH  19  20
ENDBRANCH   1  19
TORSDOF 9
