REMARK  Name = ZINC13063741
REMARK  11 active torsions:
REMARK  status: ('A' for Active; 'I' for Inactive)
REMARK    1  A    between atoms: C_1  and  C_2
REMARK    2  A    between atoms: C_2  and  C_3
REMARK    3  A    between atoms: C_10  and  C_15
REMARK    4  A    between atoms: C_15  and  N_72
REMARK    5  A    between atoms: C_16  and  N_72
REMARK    6  A    between atoms: C_22  and  C_24
REMARK    7  A    between atoms: C_22  and  C_26
REMARK    8  A    between atoms: C_22  and  N_72
REMARK    9  A    between atoms: C_24  and  C_25
REMARK   10  A    between atoms: N_30  and  C_31
REMARK   11  A    between atoms: C_31  and  C_32
REMARK                            x       y       z     vdW  Elec       q    Type
REMARK                         _______ _______ _______ _____ _____    ______ ____
ROOT
ATOM      1  N   UNL     1      -1.846   3.109  -0.483  0.00  0.00    +0.391 N 
ATOM      2  H   UNL     1      -2.816   2.824  -0.302  0.00  0.00    -0.080 HD
ENDROOT
BRANCH   1   3
ATOM      3  C   UNL     1      -1.792   4.582  -0.595  0.00  0.00    -0.067 C 
ATOM      4  C   UNL     1      -1.780   5.195   0.807  0.00  0.00    -0.015 C 
ATOM      5  C   UNL     1      -1.751   6.721   0.696  0.00  0.00    -0.002 C 
ATOM      6  C   UNL     1      -2.991   7.200  -0.060  0.00  0.00    -0.000 C 
ATOM      7  C   UNL     1      -3.003   6.587  -1.462  0.00  0.00    -0.002 C 
ATOM      8  C   UNL     1      -3.032   5.061  -1.351  0.00  0.00    -0.015 C 
ENDBRANCH   1   3
BRANCH   1   9
ATOM      9  C   UNL     1      -1.392   2.489  -1.746  0.00  0.00    -0.036 C 
BRANCH   9  17
ATOM     10  C   UNL     1      -4.385   4.539  -6.759  0.00  0.00    -0.047 A 
ATOM     11  C   UNL     1      -5.513   3.746  -6.601  0.00  0.00    +0.005 A 
ATOM     12  C   UNL     1      -5.617   2.873  -5.540  0.00  0.00    +0.026 A 
ATOM     13  C   UNL     1      -4.581   2.784  -4.616  0.00  0.00    +0.049 A 
ATOM     14  C   UNL     1      -3.439   3.590  -4.779  0.00  0.00    -0.001 A 
ATOM     15  C   UNL     1      -3.355   4.468  -5.864  0.00  0.00    +0.013 A 
ATOM     16  C   UNL     1      -2.354   3.488  -3.801  0.00  0.00    +0.017 A 
ATOM     17  C   UNL     1      -2.490   2.618  -2.770  0.00  0.00    +0.001 A 
ATOM     18  C   UNL     1      -3.655   1.829  -2.655  0.00  0.00    +0.251 A 
ATOM     19  O   UNL     1      -3.755   1.049  -1.724  0.00  0.00    -0.268 OA
ATOM     20  N   UNL     1      -4.658   1.919  -3.545  0.00  0.00    -0.322 N 
ATOM     21  H   UNL     1      -5.447   1.364  -3.435  0.00  0.00    +0.169 HD
BRANCH  10  23
ATOM     22  C   UNL     1      -3.646   4.772  -9.114  0.00  0.00    +0.009 C 
ATOM     23  C   UNL     1      -4.294   5.487  -7.927  0.00  0.00    +0.032 C 
ENDBRANCH  10  23
ENDBRANCH   9  17
ENDBRANCH   1   9
BRANCH   1  24
ATOM     24  C   UNL     1      -0.995   2.655   0.637  0.00  0.00    +0.003 C 
BRANCH  24  25
ATOM     25  C   UNL     1      -1.458   1.288   1.071  0.00  0.00    +0.138 A 
ATOM     26  N   UNL     1      -1.971   0.356   0.305  0.00  0.00    -0.115 NA
ATOM     27  N   UNL     1      -2.238  -0.664   1.045  0.00  0.00    -0.023 NA
ATOM     28  N   UNL     1      -1.909  -0.407   2.263  0.00  0.00    -0.044 NA
ATOM     29  N   UNL     1      -1.419   0.785   2.319  0.00  0.00    -0.226 N 
BRANCH  29  30
ATOM     30  C   UNL     1      -0.918   1.465   3.516  0.00  0.00    +0.182 C 
BRANCH  30  31
ATOM     31  C   UNL     1      -2.075   2.059   4.277  0.00  0.00    -0.026 A 
ATOM     32  C   UNL     1      -2.468   3.361   4.030  0.00  0.00    +0.008 A 
ATOM     33  C   UNL     1      -3.532   3.906   4.725  0.00  0.00    +0.038 A 
ATOM     34  C   UNL     1      -4.197   3.150   5.675  0.00  0.00    +0.123 A 
ATOM     35  C   UNL     1      -3.799   1.848   5.925  0.00  0.00    +0.038 A 
ATOM     36  C   UNL     1      -2.739   1.304   5.226  0.00  0.00    +0.008 A 
ATOM     37  F   UNL     1      -5.234   3.683   6.358  0.00  0.00    -0.205 F 
ENDBRANCH  30  31
ENDBRANCH  29  30
ENDBRANCH  24  25
BRANCH  24  38
ATOM     38  C   UNL     1       0.469   2.583   0.201  0.00  0.00    -0.011 C 
ATOM     39  C   UNL     1       1.002   3.998  -0.033  0.00  0.00    +0.002 C 
ENDBRANCH  24  38
ENDBRANCH   1  24
TORSDOF 9
