REMARK  Name = ZINC24718916
REMARK  8 active torsions:
REMARK  status: ('A' for Active; 'I' for Inactive)
REMARK    1  A    between atoms: C_1  and  N_2
REMARK    2  A    between atoms: N_7  and  C_10
REMARK    3  A    between atoms: N_11  and  C_14
REMARK    4  A    between atoms: C_14  and  C_15
REMARK    5  A    between atoms: C_15  and  N_16
REMARK    6  A    between atoms: N_16  and  C_17
REMARK    7  A    between atoms: C_17  and  C_19
REMARK    8  A    between atoms: C_17  and  C_28
REMARK                            x       y       z     vdW  Elec       q    Type
REMARK                         _______ _______ _______ _____ _____    ______ ____
ROOT
ATOM      1  N   UNL     1       2.073   5.277  -0.880  0.00  0.00    +0.388 N 
ATOM      2  H   UNL     1       2.660   4.349  -0.823  0.00  0.00    -0.084 HD
ATOM      3  H   UNL     1       2.693   6.124  -0.550  0.00  0.00    -0.084 HD
ENDROOT
BRANCH   1   4
ATOM      4  C   UNL     1       1.639   5.498  -2.266  0.00  0.00    -0.059 C 
BRANCH   4   5
ATOM      5  C   UNL     1       2.866   5.615  -3.172  0.00  0.00    +0.104 C 
BRANCH   5  16
ATOM      6  C   UNL     1       1.019   7.556  -8.666  0.00  0.00    +0.155 C 
ATOM      7  N   UNL     1       1.397   7.821  -7.275  0.00  0.00    -0.280 N 
ATOM      8  C   UNL     1       1.766   6.772  -6.447  0.00  0.00    +0.168 A 
ATOM      9  C   UNL     1       2.114   7.048  -5.131  0.00  0.00    +0.151 A 
ATOM     10  C   UNL     1       2.094   8.385  -4.680  0.00  0.00    +0.282 A 
ATOM     11  O   UNL     1       2.400   8.653  -3.532  0.00  0.00    -0.265 OA
ATOM     12  N   UNL     1       1.726   9.363  -5.534  0.00  0.00    -0.262 N 
ATOM     13  C   UNL     1       1.386   9.082  -6.803  0.00  0.00    +0.333 A 
ATOM     14  O   UNL     1       1.060   9.989  -7.545  0.00  0.00    -0.246 OA
ATOM     15  C   UNL     1       1.697  10.753  -5.070  0.00  0.00    +0.157 C 
ATOM     16  N   UNL     1       2.434   5.835  -4.554  0.00  0.00    -0.326 N 
ATOM     17  C   UNL     1       2.267   4.892  -5.502  0.00  0.00    +0.202 A 
ATOM     18  N   UNL     1       1.873   5.452  -6.617  0.00  0.00    -0.218 NA
ENDBRANCH   5  16
ENDBRANCH   4   5
ENDBRANCH   1   4
BRANCH   1  19
ATOM     19  C   UNL     1       0.918   5.160   0.021  0.00  0.00    -0.003 C 
BRANCH  19  20
ATOM     20  C   UNL     1       1.330   5.545   1.418  0.00  0.00    -0.056 A 
ATOM     21  C   UNL     1       2.560   5.151   1.910  0.00  0.00    +0.002 A 
ATOM     22  C   UNL     1       2.936   5.506   3.191  0.00  0.00    +0.004 A 
ATOM     23  C   UNL     1       2.084   6.256   3.985  0.00  0.00    -0.044 A 
ATOM     24  C   UNL     1       0.854   6.650   3.493  0.00  0.00    -0.044 A 
ATOM     25  C   UNL     1       0.481   6.298   2.206  0.00  0.00    +0.006 A 
ATOM     26  C   UNL     1       0.115   7.452   4.543  0.00  0.00    +0.036 C 
ATOM     27  C   UNL     1       1.195   7.875   5.561  0.00  0.00    +0.009 C 
ATOM     28  C   UNL     1       2.256   6.766   5.400  0.00  0.00    +0.036 C 
ENDBRANCH  19  20
BRANCH  19  29
ATOM     29  C   UNL     1       0.421   3.738   0.017  0.00  0.00    -0.020 A 
ATOM     30  C   UNL     1      -0.855   3.279   0.027  0.00  0.00    +0.010 A 
ATOM     31  C   UNL     1      -1.077   1.915   0.017  0.00  0.00    +0.008 A 
ATOM     32  C   UNL     1      -0.013   1.076   0.008  0.00  0.00    +0.045 A 
ATOM     33  S   UNL     1       1.359   2.219   0.001  0.00  0.00    -0.103 S 
ENDBRANCH  19  29
ENDBRANCH   1  19
TORSDOF 6
