REMARK  Name = ZINC42015434
REMARK  3 active torsions:
REMARK  status: ('A' for Active; 'I' for Inactive)
REMARK    1  A    between atoms: C_3  and  N_21
REMARK    2  A    between atoms: C_4  and  C_8
REMARK    3  A    between atoms: N_12  and  C_13
REMARK                            x       y       z     vdW  Elec       q    Type
REMARK                         _______ _______ _______ _____ _____    ______ ____
ROOT
ATOM      1  C   UNL     1       3.693  -0.698  -0.080  0.00  0.00    +0.189 A 
ATOM      2  N   UNL     1       4.893  -0.159  -0.158  0.00  0.00    -0.108 NA
ATOM      3  N   UNL     1       5.799  -1.065  -0.093  0.00  0.00    -0.022 NA
ATOM      4  N   UNL     1       5.266  -2.232   0.029  0.00  0.00    -0.039 NA
ATOM      5  N   UNL     1       3.872  -2.045   0.048  0.00  0.00    -0.190 N 
ENDROOT
BRANCH   5   6
ATOM      6  C   UNL     1       2.881  -3.029   0.170  0.00  0.00    +0.106 A 
ATOM      7  C   UNL     1       1.800  -3.039  -0.700  0.00  0.00    +0.050 A 
ATOM      8  C   UNL     1       0.824  -4.010  -0.578  0.00  0.00    +0.043 A 
ATOM      9  C   UNL     1       0.924  -4.973   0.412  0.00  0.00    +0.023 A 
ATOM     10  C   UNL     1       2.000  -4.967   1.280  0.00  0.00    +0.042 A 
ATOM     11  C   UNL     1       2.983  -4.001   1.159  0.00  0.00    +0.149 A 
ATOM     12  F   UNL     1       4.037  -3.999   2.004  0.00  0.00    -0.203 F 
ATOM     13 CL   UNL     1      -0.528  -4.022  -1.665  0.00  0.00    -0.083 Cl
ENDBRANCH   5   6
BRANCH   1  17
ATOM     14  C   UNL     1      -0.025   1.364  -0.190  0.00  0.00    +0.040 A 
ATOM     15  C   UNL     1       0.939   1.642  -1.140  0.00  0.00    +0.026 A 
ATOM     16  C   UNL     1       2.155   0.975  -1.113  0.00  0.00    +0.036 A 
ATOM     17  C   UNL     1       2.401   0.018  -0.118  0.00  0.00    +0.044 A 
ATOM     18  C   UNL     1       1.421  -0.254   0.836  0.00  0.00    +0.051 A 
ATOM     19  C   UNL     1       0.215   0.419   0.795  0.00  0.00    +0.124 A 
ATOM     20  F   UNL     1      -0.735   0.155   1.720  0.00  0.00    -0.205 F 
BRANCH  16  21
ATOM     21  N   UNL     1       3.128   1.254  -2.071  0.00  0.00    -0.357 N 
ATOM     22  H   UNL     1       2.955   1.916  -2.759  0.00  0.00    +0.142 HD
ATOM     23  H   UNL     1       3.978   0.786  -2.050  0.00  0.00    +0.142 HD
ENDBRANCH  16  21
ENDBRANCH   1  17
TORSDOF 3
