REMARK  Name = ZINC04732499
REMARK  10 active torsions:
REMARK  status: ('A' for Active; 'I' for Inactive)
REMARK    1  A    between atoms: C_1  and  C_2
REMARK    2  A    between atoms: C_2  and  C_3
REMARK    3  A    between atoms: C_2  and  C_4
REMARK    4  A    between atoms: C_7  and  C_10
REMARK    5  A    between atoms: C_10  and  N_11
REMARK    6  A    between atoms: C_14  and  C_23
REMARK    7  A    between atoms: C_17  and  C_19
REMARK    8  A    between atoms: C_19  and  C_20
REMARK    9  A    between atoms: C_19  and  C_21
REMARK   10  A    between atoms: C_19  and  C_22
REMARK                            x       y       z     vdW  Elec       q    Type
REMARK                         _______ _______ _______ _____ _____    ______ ____
ROOT
ATOM      1  N   UNL     1       1.222  -2.667  -1.404  0.00  0.00    -0.309 N 
ATOM      2  C   UNL     1       1.238  -4.022  -1.663  0.00  0.00    +0.222 A 
ATOM      3  N   UNL     1       1.259  -4.981  -0.765  0.00  0.00    -0.193 NA
ATOM      4  C   UNL     1       1.269  -6.175  -1.378  0.00  0.00    +0.185 A 
ATOM      5  N   UNL     1       1.254  -5.993  -2.678  0.00  0.00    -0.141 NA
ATOM      6  N   UNL     1       1.228  -4.606  -2.897  0.00  0.00    -0.166 N 
ATOM      7  C   UNL     1       1.201  -3.976  -4.089  0.00  0.00    +0.256 C 
ATOM      8  O   UNL     1       1.182  -2.769  -4.134  0.00  0.00    -0.270 OA
ATOM      9  H   UNL     1       1.206  -2.034  -2.138  0.00  0.00    +0.149 HD
ENDROOT
BRANCH   4  10
ATOM     10  C   UNL     1       1.292  -7.492  -0.695  0.00  0.00    +0.039 A 
ATOM     11  C   UNL     1       1.312  -7.568   0.701  0.00  0.00    +0.014 A 
ATOM     12  C   UNL     1       1.328  -8.820   1.290  0.00  0.00    +0.020 A 
ATOM     13  C   UNL     1       1.335  -9.946   0.486  0.00  0.00    +0.111 A 
ATOM     14  N   UNL     1       1.321  -9.843  -0.828  0.00  0.00    -0.263 NA
ATOM     15  C   UNL     1       1.300  -8.673  -1.434  0.00  0.00    +0.122 A 
ENDBRANCH   4  10
BRANCH   7  16
ATOM     16  C   UNL     1       1.194  -4.778  -5.365  0.00  0.00    +0.043 C 
ATOM     17  C   UNL     1       1.162  -3.829  -6.564  0.00  0.00    +0.020 C 
ATOM     18  C   UNL     1       2.455  -5.642  -5.432  0.00  0.00    +0.020 C 
ATOM     19  C   UNL     1      -0.043  -5.679  -5.394  0.00  0.00    +0.020 C 
ENDBRANCH   7  16
BRANCH   1  20
ATOM     20  C   UNL     1       1.229  -2.186  -0.021  0.00  0.00    +0.139 C 
BRANCH  20  24
ATOM     21  C   UNL     1       1.171   2.086   0.002  0.00  0.00    -0.045 A 
ATOM     22  C   UNL     1      -0.017   1.378   0.010  0.00  0.00    +0.004 A 
ATOM     23  C   UNL     1       0.002  -0.004   0.002  0.00  0.00    +0.005 A 
ATOM     24  C   UNL     1       1.208  -0.679  -0.013  0.00  0.00    -0.030 A 
ATOM     25  C   UNL     1       2.396   0.029  -0.021  0.00  0.00    +0.005 A 
ATOM     26  C   UNL     1       2.377   1.411  -0.015  0.00  0.00    +0.004 A 
BRANCH  21  28
ATOM     27  C   UNL     1       1.876   4.106   1.255  0.00  0.00    +0.012 C 
ATOM     28  C   UNL     1       1.151   3.592   0.010  0.00  0.00    +0.013 C 
ATOM     29  C   UNL     1       1.853   4.119  -1.243  0.00  0.00    +0.012 C 
ENDBRANCH  21  28
ENDBRANCH  20  24
ENDBRANCH   1  20
TORSDOF 5
