REMARK  Name = ZINC01831964
REMARK  8 active torsions:
REMARK  status: ('A' for Active; 'I' for Inactive)
REMARK    1  A    between atoms: C_2  and  C_3
REMARK    2  A    between atoms: C_3  and  N_4
REMARK    3  A    between atoms: C_10  and  S_11
REMARK    4  A    between atoms: S_11  and  C_12
REMARK    5  A    between atoms: C_12  and  C_13
REMARK    6  A    between atoms: N_15  and  C_16
REMARK    7  A    between atoms: C_16  and  C_17
REMARK    8  A    between atoms: C_16  and  C_23
REMARK                            x       y       z     vdW  Elec       q    Type
REMARK                         _______ _______ _______ _____ _____    ______ ____
ROOT
ATOM      1  N   UNL     1      -1.318  -1.700  -1.126  0.00  0.00    -0.284 N 
ATOM      2  C   UNL     1      -1.821  -1.295  -2.312  0.00  0.00    +0.259 A 
ATOM      3  O   UNL     1      -2.280  -0.172  -2.444  0.00  0.00    -0.267 OA
ATOM      4  C   UNL     1      -1.805  -2.192  -3.388  0.00  0.00    +0.050 A 
ATOM      5  C   UNL     1      -1.272  -3.457  -3.197  0.00  0.00    +0.083 A 
ATOM      6  N   UNL     1      -0.816  -3.813  -1.991  0.00  0.00    -0.223 NA
ATOM      7  C   UNL     1      -0.828  -2.963  -0.984  0.00  0.00    +0.173 A 
ATOM      8  C   UNL     1      -1.190  -4.385  -4.347  0.00  0.00    +0.004 A 
ATOM      9  C   UNL     1      -0.954  -5.744  -4.150  0.00  0.00    +0.010 A 
ATOM     10  C   UNL     1      -0.902  -6.593  -5.237  0.00  0.00    +0.001 A 
ATOM     11  C   UNL     1      -1.085  -6.097  -6.515  0.00  0.00    +0.000 A 
ATOM     12  C   UNL     1      -1.310  -4.747  -6.716  0.00  0.00    +0.004 A 
ATOM     13  C   UNL     1      -1.355  -3.885  -5.638  0.00  0.00    -0.037 A 
ATOM     14  C   UNL     1      -1.548  -2.409  -5.856  0.00  0.00    +0.047 C 
ATOM     15  C   UNL     1      -2.372  -1.797  -4.724  0.00  0.00    +0.007 C 
ATOM     16  C   UNL     1      -3.818  -2.290  -4.827  0.00  0.00    +0.012 C 
ATOM     17  C   UNL     1      -4.400  -1.883  -6.183  0.00  0.00    +0.001 C 
ATOM     18  C   UNL     1      -4.373  -0.359  -6.314  0.00  0.00    +0.000 C 
ATOM     19  C   UNL     1      -2.930   0.137  -6.206  0.00  0.00    +0.001 C 
ATOM     20  C   UNL     1      -2.350  -0.271  -4.850  0.00  0.00    +0.012 C 
ENDROOT
BRANCH   1  21
ATOM     21  C   UNL     1      -1.293  -0.775   0.010  0.00  0.00    +0.154 C 
BRANCH  21  23
ATOM     22  C   UNL     1      -0.016   1.306   0.009  0.00  0.00    +0.005 C 
ATOM     23  C   UNL     1       0.002  -0.004   0.002  0.00  0.00    -0.013 C 
ENDBRANCH  21  23
ENDBRANCH   1  21
BRANCH   7  24
ATOM     24  S   UNL     1      -0.203  -3.474   0.582  0.00  0.00    -0.078 S 
BRANCH  24  25
ATOM     25  C   UNL     1       0.329  -5.186   0.305  0.00  0.00    +0.173 C 
BRANCH  25  26
ATOM     26  C   UNL     1       0.892  -5.750   1.584  0.00  0.00    +0.224 C 
ATOM     27  O   UNL     1       0.930  -5.064   2.584  0.00  0.00    -0.275 OA
ATOM     28  N   UNL     1       1.352  -7.016   1.617  0.00  0.00    -0.304 N 
ATOM     29  H   UNL     1       1.321  -7.564   0.817  0.00  0.00    +0.150 HD
BRANCH  28  30
ATOM     30  C   UNL     1       1.899  -7.565   2.860  0.00  0.00    +0.134 C 
BRANCH  30  31
ATOM     31  C   UNL     1       0.776  -8.104   3.708  0.00  0.00    -0.023 A 
ATOM     32  C   UNL     1      -0.265  -8.796   3.118  0.00  0.00    +0.006 A 
ATOM     33  C   UNL     1      -1.295  -9.291   3.896  0.00  0.00    +0.000 A 
ATOM     34  C   UNL     1      -1.284  -9.094   5.264  0.00  0.00    +0.000 A 
ATOM     35  C   UNL     1      -0.242  -8.403   5.855  0.00  0.00    +0.000 A 
ATOM     36  C   UNL     1       0.790  -7.912   5.077  0.00  0.00    +0.006 A 
ENDBRANCH  30  31
BRANCH  30  37
ATOM     37  C   UNL     1       2.863  -8.677   2.537  0.00  0.00    -0.023 A 
ATOM     38  C   UNL     1       2.576  -9.567   1.520  0.00  0.00    +0.006 A 
ATOM     39  C   UNL     1       3.460 -10.588   1.224  0.00  0.00    +0.000 A 
ATOM     40  C   UNL     1       4.633 -10.717   1.944  0.00  0.00    +0.000 A 
ATOM     41  C   UNL     1       4.921  -9.826   2.961  0.00  0.00    +0.000 A 
ATOM     42  C   UNL     1       4.038  -8.803   3.255  0.00  0.00    +0.006 A 
ENDBRANCH  30  37
ENDBRANCH  28  30
ENDBRANCH  25  26
ENDBRANCH  24  25
ENDBRANCH   7  24
TORSDOF 8
