REMARK  Name = ZINC54404373
REMARK  8 active torsions:
REMARK  status: ('A' for Active; 'I' for Inactive)
REMARK    1  A    between atoms: C_1  and  C_2
REMARK    2  A    between atoms: C_2  and  C_3
REMARK    3  A    between atoms: C_3  and  C_4
REMARK    4  A    between atoms: C_3  and  C_5
REMARK    5  A    between atoms: C_3  and  C_6
REMARK    6  A    between atoms: C_8  and  C_11
REMARK    7  A    between atoms: C_11  and  N_18
REMARK    8  A    between atoms: C_14  and  C_17
REMARK                            x       y       z     vdW  Elec       q    Type
REMARK                         _______ _______ _______ _____ _____    ______ ____
ROOT
ATOM      1  C   UNL     1       1.592  -5.214  -2.702  0.00  0.00    -0.006 C 
ATOM      2  C   UNL     1       0.944  -5.162  -4.086  0.00  0.00    -0.005 C 
ATOM      3  C   UNL     1       1.433  -6.346  -4.923  0.00  0.00    +0.002 C 
ATOM      4  C   UNL     1       1.050  -7.655  -4.228  0.00  0.00    -0.014 C 
ATOM      5  C   UNL     1       1.699  -7.706  -2.844  0.00  0.00    +0.002 C 
ATOM      6  C   UNL     1       1.209  -6.522  -2.007  0.00  0.00    -0.005 C 
ATOM      7  C   UNL     1       1.540  -8.838  -5.065  0.00  0.00    +0.007 C 
ENDROOT
BRANCH   1  10
ATOM      8  C   UNL     1       0.739  -2.004  -1.265  0.00  0.00    +0.233 A 
ATOM      9  N   UNL     1       1.273  -2.756  -2.187  0.00  0.00    -0.197 NA
ATOM     10  C   UNL     1       1.110  -4.048  -1.878  0.00  0.00    +0.161 A 
ATOM     11  N   UNL     1       0.466  -4.133  -0.749  0.00  0.00    -0.063 NA
ATOM     12  O   UNL     1       0.216  -2.801  -0.325  0.00  0.00    -0.338 OA
BRANCH   8  13
ATOM     13  C   UNL     1       0.718  -0.497  -1.257  0.00  0.00    +0.044 C 
ATOM     14  C   UNL     1      -0.022   0.009  -2.496  0.00  0.00    +0.021 C 
ATOM     15  C   UNL     1       2.154   0.032  -1.268  0.00  0.00    +0.021 C 
BRANCH  13  17
ATOM     16  C   UNL     1      -0.019   1.526   0.010  0.00  0.00    +0.005 C 
ATOM     17  C   UNL     1       0.002  -0.004   0.002  0.00  0.00    +0.012 C 
ENDBRANCH  13  17
ENDBRANCH   8  13
ENDBRANCH   1  10
BRANCH   1  18
ATOM     18  N   UNL     1       3.053  -5.143  -2.842  0.00  0.00    +0.387 N 
ATOM     19  H   UNL     1       3.481  -5.177  -1.929  0.00  0.00    -0.089 HD
ATOM     20  H   UNL     1       3.376  -5.924  -3.394  0.00  0.00    -0.089 HD
ATOM     21  H   UNL     1       3.305  -4.280  -3.300  0.00  0.00    -0.089 HD
ENDBRANCH   1  18
TORSDOF 4
