REMARK  Name = ZINC35707164
REMARK  6 active torsions:
REMARK  status: ('A' for Active; 'I' for Inactive)
REMARK    1  A    between atoms: C_1  and  C_2
REMARK    2  A    between atoms: C_6  and  C_8
REMARK    3  A    between atoms: C_22  and  C_24
REMARK    4  A    between atoms: C_24  and  N_25
REMARK    5  A    between atoms: N_25  and  C_26
REMARK    6  A    between atoms: N_31  and  C_32
REMARK                            x       y       z     vdW  Elec       q    Type
REMARK                         _______ _______ _______ _____ _____    ______ ____
ROOT
ATOM      1  C   UNL     1       0.913  -6.272   1.388  0.00  0.00    +0.159 C 
ATOM      2  C   UNL     1       0.150  -6.181   0.089  0.00  0.00    +0.049 A 
ATOM      3  C   UNL     1       0.067  -7.061  -0.914  0.00  0.00    +0.025 A 
ATOM      4  C   UNL     1      -0.779  -6.502  -1.897  0.00  0.00    +0.020 A 
ATOM      5  C   UNL     1      -1.181  -5.291  -1.449  0.00  0.00    +0.092 A 
ATOM      6  N   UNL     1      -0.616  -5.082  -0.235  0.00  0.00    -0.316 N 
ATOM      7  C   UNL     1      -0.713  -3.982   0.629  0.00  0.00    +0.068 A 
ATOM      8  C   UNL     1      -1.662  -2.995   0.450  0.00  0.00    +0.028 A 
ATOM      9  C   UNL     1      -1.724  -1.933   1.335  0.00  0.00    +0.002 A 
ATOM     10  C   UNL     1      -0.840  -1.861   2.396  0.00  0.00    +0.002 A 
ATOM     11  C   UNL     1       0.115  -2.843   2.579  0.00  0.00    +0.025 A 
ATOM     12  C   UNL     1       0.190  -3.909   1.696  0.00  0.00    +0.061 A 
ATOM     13  N   UNL     1       1.169  -4.900   1.857  0.00  0.00    -0.255 N 
ATOM     14  C   UNL     1       2.347  -4.596   2.439  0.00  0.00    +0.238 C 
ATOM     15  O   UNL     1       2.596  -3.448   2.740  0.00  0.00    -0.273 OA
ENDROOT
BRANCH   1  21
ATOM     16  C   UNL     1      -0.098 -10.478   3.904  0.00  0.00    +0.044 C 
ATOM     17  C   UNL     1      -0.391  -9.029   3.614  0.00  0.00    -0.050 A 
ATOM     18  C   UNL     1      -1.411  -8.381   4.286  0.00  0.00    +0.003 A 
ATOM     19  C   UNL     1      -1.679  -7.052   4.021  0.00  0.00    +0.001 A 
ATOM     20  C   UNL     1      -0.926  -6.369   3.083  0.00  0.00    +0.006 A 
ATOM     21  C   UNL     1       0.094  -7.016   2.411  0.00  0.00    -0.021 A 
ATOM     22  C   UNL     1       0.365  -8.345   2.680  0.00  0.00    +0.009 A 
ENDBRANCH   1  21
BRANCH  14  23
ATOM     23  C   UNL     1       3.353  -5.684   2.716  0.00  0.00    +0.205 C 
BRANCH  23  24
ATOM     24  N   UNL     1       4.478  -5.127   3.471  0.00  0.00    -0.274 N 
ATOM     25  C   UNL     1       5.542  -4.620   2.818  0.00  0.00    +0.307 C 
ATOM     26  O   UNL     1       5.612  -4.708   1.608  0.00  0.00    -0.252 OA
ATOM     27  N   UNL     1       6.529  -4.014   3.508  0.00  0.00    -0.269 N 
ATOM     28  H   UNL     1       6.506  -4.001   4.478  0.00  0.00    +0.156 HD
BRANCH  27  29
ATOM     29  C   UNL     1       7.585  -3.406   2.826  0.00  0.00    +0.042 A 
ATOM     30  C   UNL     1       7.456  -3.078   1.494  0.00  0.00    +0.024 A 
ATOM     31  C   UNL     1       8.502  -2.472   0.805  0.00  0.00    +0.002 A 
ATOM     32  C   UNL     1       9.680  -2.187   1.426  0.00  0.00    +0.008 A 
ATOM     33  C   UNL     1       9.853  -2.504   2.784  0.00  0.00    -0.016 A 
ATOM     34  C   UNL     1       8.793  -3.116   3.497  0.00  0.00    +0.003 A 
ATOM     35  C   UNL     1       8.965  -3.428   4.855  0.00  0.00    +0.010 A 
ATOM     36  C   UNL     1      10.143  -3.134   5.470  0.00  0.00    +0.001 A 
ATOM     37  C   UNL     1      11.184  -2.526   4.771  0.00  0.00    +0.001 A 
ATOM     38  C   UNL     1      11.058  -2.221   3.450  0.00  0.00    +0.008 A 
ENDBRANCH  27  29
BRANCH  24  39
ATOM     39  C   UNL     1       4.446  -5.122   4.936  0.00  0.00    +0.078 C 
ATOM     40  C   UNL     1       3.376  -5.973   5.622  0.00  0.00    +0.024 C 
ATOM     41  C   UNL     1       3.251  -4.448   5.614  0.00  0.00    +0.024 C 
ENDBRANCH  24  39
ENDBRANCH  23  24
ENDBRANCH  14  23
TORSDOF 5
