REMARK  Name = ZINC05880967
REMARK  7 active torsions:
REMARK  status: ('A' for Active; 'I' for Inactive)
REMARK    1  A    between atoms: C_1  and  C_2
REMARK    2  A    between atoms: C_5  and  C_24
REMARK    3  A    between atoms: C_5  and  C_25
REMARK    4  A    between atoms: C_10  and  O_13
REMARK    5  A    between atoms: O_13  and  C_14
REMARK    6  A    between atoms: C_14  and  C_15
REMARK    7  A    between atoms: C_19  and  N_21
REMARK                            x       y       z     vdW  Elec       q    Type
REMARK                         _______ _______ _______ _____ _____    ______ ____
ROOT
ATOM      1  C   UNL     1      -0.019   1.526   0.010  0.00  0.00    +0.012 C 
ATOM      2  C   UNL     1       0.002  -0.004   0.002  0.00  0.00    +0.020 C 
ATOM      3  C   UNL     1      -1.434  -0.528   0.000  0.00  0.00    +0.033 C 
ATOM      4  C   UNL     1      -1.407  -2.049   0.203  0.00  0.00    +0.027 C 
ATOM      5  N   UNL     1      -0.832  -2.314   1.529  0.00  0.00    -0.339 N 
ATOM      6  C   UNL     1       0.315  -1.611   1.923  0.00  0.00    +0.031 A 
ATOM      7  C   UNL     1       0.742  -0.498   1.217  0.00  0.00    -0.020 A 
ATOM      8  C   UNL     1       1.876   0.181   1.632  0.00  0.00    +0.051 A 
ATOM      9  C   UNL     1       2.580  -0.251   2.744  0.00  0.00    +0.121 A 
ATOM     10  C   UNL     1       2.151  -1.366   3.449  0.00  0.00    +0.047 A 
ATOM     11  C   UNL     1       1.023  -2.044   3.038  0.00  0.00    +0.027 A 
ATOM     12  C   UNL     1      -2.830  -2.606   0.134  0.00  0.00    +0.031 C 
ATOM     13  C   UNL     1      -0.541  -2.700  -0.877  0.00  0.00    +0.031 C 
ATOM     14  H   UNL     1      -1.240  -2.965   2.122  0.00  0.00    +0.147 HD
ENDROOT
BRANCH   9  15
ATOM     15  O   UNL     1       3.693   0.421   3.146  0.00  0.00    -0.487 OA
BRANCH  15  16
ATOM     16  C   UNL     1       4.370  -0.079   4.301  0.00  0.00    +0.264 C 
BRANCH  16  17
ATOM     17  C   UNL     1       5.569   0.785   4.593  0.00  0.00    -0.008 A 
ATOM     18  C   UNL     1       6.793   0.485   4.024  0.00  0.00    +0.007 A 
ATOM     19  C   UNL     1       7.893   1.277   4.292  0.00  0.00    +0.003 A 
ATOM     20  C   UNL     1       7.770   2.371   5.129  0.00  0.00    +0.033 A 
ATOM     21  C   UNL     1       6.546   2.672   5.697  0.00  0.00    +0.127 A 
ATOM     22  C   UNL     1       5.445   1.881   5.426  0.00  0.00    +0.039 A 
BRANCH  21  23
ATOM     23  N   UNL     1       6.415   3.842   6.594  0.00  0.00    +0.056 N 
ATOM     24  O   UNL     1       7.377   4.535   6.829  0.00  0.00    -0.126 OA
ATOM     25  O   UNL     1       5.344   4.105   7.091  0.00  0.00    -0.126 OA
ENDBRANCH  21  23
ENDBRANCH  16  17
ENDBRANCH  15  16
ENDBRANCH   9  15
TORSDOF 4
