REMARK  Name = ZINC17727580
REMARK  8 active torsions:
REMARK  status: ('A' for Active; 'I' for Inactive)
REMARK    1  A    between atoms: C_1  and  C_2
REMARK    2  A    between atoms: C_2  and  C_3
REMARK    3  A    between atoms: N_11  and  C_15
REMARK    4  A    between atoms: C_15  and  C_16
REMARK    5  A    between atoms: C_16  and  O_18
REMARK    6  A    between atoms: O_18  and  C_19
REMARK    7  A    between atoms: C_19  and  C_21
REMARK    8  A    between atoms: C_19  and  C_27
REMARK                            x       y       z     vdW  Elec       q    Type
REMARK                         _______ _______ _______ _____ _____    ______ ____
ROOT
ATOM      1  C   UNL     1       6.497  -3.462   0.198  0.00  0.00    +0.326 C 
ATOM      2  O   UNL     1       6.556  -2.459   0.868  0.00  0.00    -0.249 OA
ENDROOT
BRANCH   1   3
ATOM      3  C   UNL     1       5.195  -4.210   0.074  0.00  0.00    +0.238 C 
BRANCH   3  12
ATOM      4  C   UNL     1       0.774  -0.068   0.365  0.00  0.00    -0.011 C 
ATOM      5  C   UNL     1       2.248   0.191   0.681  0.00  0.00    +0.006 C 
ATOM      6  C   UNL     1       2.677  -0.684   1.862  0.00  0.00    +0.035 C 
ATOM      7  C   UNL     1       2.465  -2.153   1.512  0.00  0.00    +0.113 C 
ATOM      8  C   UNL     1       1.004  -2.422   1.169  0.00  0.00    +0.035 C 
ATOM      9  C   UNL     1       0.582  -1.539  -0.008  0.00  0.00    +0.006 C 
ATOM     10  C   UNL     1       3.359  -2.557   0.363  0.00  0.00    +0.247 C 
ATOM     11  O   UNL     1       3.357  -2.106  -0.763  0.00  0.00    -0.273 OA
ATOM     12  N   UNL     1       4.161  -3.525   0.853  0.00  0.00    -0.213 N 
ATOM     13  C   UNL     1       3.895  -3.781   2.140  0.00  0.00    +0.310 C 
ATOM     14  O   UNL     1       4.486  -4.613   2.799  0.00  0.00    -0.252 OA
ATOM     15  N   UNL     1       2.899  -3.013   2.621  0.00  0.00    -0.285 N 
ATOM     16  H   UNL     1       2.539  -3.025   3.522  0.00  0.00    +0.151 HD
BRANCH   4  18
ATOM     17  C   UNL     1       0.415   2.287  -0.391  0.00  0.00    +0.004 C 
ATOM     18  C   UNL     1       0.341   0.816  -0.807  0.00  0.00    -0.000 C 
ENDBRANCH   4  18
ENDBRANCH   3  12
ENDBRANCH   1   3
BRANCH   1  19
ATOM     19  O   UNL     1       7.592  -3.910  -0.437  0.00  0.00    -0.446 OA
BRANCH  19  20
ATOM     20  C   UNL     1       8.792  -3.151  -0.275  0.00  0.00    +0.292 C 
BRANCH  20  21
ATOM     21  C   UNL     1       9.983  -4.069  -0.373  0.00  0.00    +0.261 C 
ATOM     22  O   UNL     1       9.846  -5.198  -0.792  0.00  0.00    -0.271 OA
ATOM     23  N   UNL     1      11.202  -3.633   0.005  0.00  0.00    -0.298 N 
ATOM     24  C   UNL     1      11.364  -2.314   0.631  0.00  0.00    +0.108 C 
ATOM     25  C   UNL     1      12.112  -2.486   1.957  0.00  0.00    +0.019 C 
ATOM     26  C   UNL     1      13.426  -3.228   1.705  0.00  0.00    +0.003 C 
ATOM     27  C   UNL     1      13.128  -4.617   1.135  0.00  0.00    +0.019 C 
ATOM     28  C   UNL     1      12.392  -4.472  -0.195  0.00  0.00    +0.108 C 
ENDBRANCH  20  21
BRANCH  20  29
ATOM     29  C   UNL     1       8.874  -2.104  -1.356  0.00  0.00    +0.002 A 
ATOM     30  C   UNL     1       8.555  -2.431  -2.660  0.00  0.00    +0.008 A 
ATOM     31  C   UNL     1       8.630  -1.471  -3.652  0.00  0.00    +0.000 A 
ATOM     32  C   UNL     1       9.023  -0.183  -3.338  0.00  0.00    +0.000 A 
ATOM     33  C   UNL     1       9.341   0.144  -2.034  0.00  0.00    +0.000 A 
ATOM     34  C   UNL     1       9.262  -0.815  -1.042  0.00  0.00    +0.008 A 
ENDBRANCH  20  29
ENDBRANCH  19  20
ENDBRANCH   1  19
TORSDOF 7
