REMARK  Name = ZINC35782528
REMARK  16 active torsions:
REMARK  status: ('A' for Active; 'I' for Inactive)
REMARK    1  A    between atoms: C_1  and  C_2
REMARK    2  A    between atoms: C_2  and  C_3
REMARK    3  A    between atoms: C_2  and  C_4
REMARK    4  A    between atoms: C_4  and  O_5
REMARK    5  A    between atoms: O_5  and  C_6
REMARK    6  A    between atoms: C_6  and  C_7
REMARK    7  A    between atoms: C_7  and  C_9
REMARK    8  A    between atoms: C_7  and  O_36
REMARK    9  A    between atoms: C_9  and  N_10
REMARK   10  A    between atoms: N_10  and  C_11
REMARK   11  A    between atoms: N_10  and  C_33
REMARK   12  A    between atoms: C_11  and  C_12
REMARK   13  A    between atoms: C_13  and  C_27
REMARK   14  A    between atoms: N_15  and  C_26
REMARK   15  A    between atoms: C_16  and  O_17
REMARK   16  A    between atoms: O_17  and  C_18
REMARK                            x       y       z     vdW  Elec       q    Type
REMARK                         _______ _______ _______ _____ _____    ______ ____
ROOT
ATOM      1  C   UNL     1      -5.074  -8.163  -0.469  0.00  0.00    +0.025 A 
ATOM      2  C   UNL     1      -5.321  -9.020  -1.558  0.00  0.00    +0.098 A 
ATOM      3  N   UNL     1      -5.449 -10.245  -1.095  0.00  0.00    -0.168 NA
ATOM      4  N   UNL     1      -5.288 -10.208   0.296  0.00  0.00    -0.235 N 
ATOM      5  C   UNL     1      -5.054  -8.920   0.658  0.00  0.00    +0.221 A 
ATOM      6  C   UNL     1      -5.356 -11.358   1.201  0.00  0.00    +0.176 C 
ENDROOT
BRANCH   2   7
ATOM      7  C   UNL     1      -5.420  -8.612  -2.982  0.00  0.00    +0.002 A 
ATOM      8  C   UNL     1      -4.803  -9.374  -3.972  0.00  0.00    +0.010 A 
ATOM      9  C   UNL     1      -4.899  -8.990  -5.294  0.00  0.00    +0.001 A 
ATOM     10  C   UNL     1      -5.605  -7.851  -5.637  0.00  0.00    +0.000 A 
ATOM     11  C   UNL     1      -6.219  -7.091  -4.658  0.00  0.00    +0.001 A 
ATOM     12  C   UNL     1      -6.136  -7.470  -3.334  0.00  0.00    +0.010 A 
ENDBRANCH   2   7
BRANCH   1  13
ATOM     13  C   UNL     1      -4.864  -6.673  -0.541  0.00  0.00    -0.035 C 
BRANCH  13  14
ATOM     14  N   UNL     1      -3.424  -6.382  -0.562  0.00  0.00    +0.386 N 
ATOM     15  H   UNL     1      -2.982  -6.812   0.237  0.00  0.00    -0.081 HD
BRANCH  14  16
ATOM     16  C   UNL     1      -2.834  -6.918  -1.796  0.00  0.00    -0.068 C 
ATOM     17  C   UNL     1      -1.963  -8.171  -1.677  0.00  0.00    -0.017 C 
ATOM     18  C   UNL     1      -1.316  -6.813  -1.957  0.00  0.00    -0.017 C 
ENDBRANCH  14  16
BRANCH  14  19
ATOM     19  C   UNL     1      -3.217  -4.929  -0.512  0.00  0.00    -0.044 C 
BRANCH  19  20
ATOM     20  C   UNL     1      -4.006  -4.262  -1.640  0.00  0.00    +0.124 C 
BRANCH  20  21
ATOM     21  O   UNL     1      -3.452  -4.645  -2.900  0.00  0.00    -0.391 OA
ATOM     22  H   UNL     1      -2.524  -4.395  -3.014  0.00  0.00    +0.210 HD
ENDBRANCH  20  21
BRANCH  20  23
ATOM     23  C   UNL     1      -3.926  -2.741  -1.489  0.00  0.00    +0.189 C 
BRANCH  23  24
ATOM     24  O   UNL     1      -4.757  -2.121  -2.472  0.00  0.00    -0.377 OA
BRANCH  24  25
ATOM     25  C   UNL     1      -4.755  -0.693  -2.418  0.00  0.00    +0.163 C 
BRANCH  25  27
ATOM     26  C   UNL     1      -5.768   1.382  -3.373  0.00  0.00    +0.009 C 
ATOM     27  C   UNL     1      -5.673  -0.139  -3.509  0.00  0.00    +0.009 C 
ATOM     28  C   UNL     1      -5.102  -0.493  -4.884  0.00  0.00    +0.009 C 
ENDBRANCH  25  27
ENDBRANCH  24  25
ENDBRANCH  23  24
ENDBRANCH  20  23
ENDBRANCH  19  20
ENDBRANCH  14  19
ENDBRANCH  13  14
ENDBRANCH   1  13
BRANCH   5  29
ATOM     29  O   UNL     1      -4.840  -8.470   1.921  0.00  0.00    -0.435 OA
BRANCH  29  30
ATOM     30  C   UNL     1      -5.925  -8.201   2.695  0.00  0.00    +0.166 A 
ATOM     31  C   UNL     1      -7.199  -8.486   2.227  0.00  0.00    +0.052 A 
ATOM     32  C   UNL     1      -8.301  -8.211   3.015  0.00  0.00    +0.042 A 
ATOM     33  C   UNL     1      -8.134  -7.652   4.270  0.00  0.00    +0.126 A 
ATOM     34  C   UNL     1      -6.864  -7.367   4.740  0.00  0.00    +0.080 A 
ATOM     35  C   UNL     1      -5.758  -7.645   3.957  0.00  0.00    +0.168 A 
ATOM     36  F   UNL     1      -4.517  -7.372   4.417  0.00  0.00    -0.202 F 
ATOM     37  F   UNL     1      -9.213  -7.385   5.038  0.00  0.00    -0.205 F 
ENDBRANCH  29  30
ENDBRANCH   5  29
TORSDOF 13
