REMARK  Name = ZINC38682150
REMARK  2 active torsions:
REMARK  status: ('A' for Active; 'I' for Inactive)
REMARK    1  A    between atoms: C_8  and  C_12
REMARK    2  A    between atoms: N_14  and  C_15
REMARK                            x       y       z     vdW  Elec       q    Type
REMARK                         _______ _______ _______ _____ _____    ______ ____
ROOT
ATOM      1  C   UNL     1       4.855  -3.994   0.064  0.00  0.00    +0.255 C 
ATOM      2  O   UNL     1       5.888  -4.524  -0.300  0.00  0.00    -0.270 OA
ATOM      3  N   UNL     1       3.825  -4.750   0.493  0.00  0.00    -0.281 N 
ATOM      4  H   UNL     1       3.028  -4.327   0.848  0.00  0.00    +0.155 HD
ENDROOT
BRANCH   3   5
ATOM      5  C   UNL     1       3.906  -6.146   0.426  0.00  0.00    +0.034 A 
ATOM      6  C   UNL     1       5.119  -6.784   0.644  0.00  0.00    +0.028 A 
ATOM      7  C   UNL     1       5.202  -8.164   0.586  0.00  0.00    -0.024 A 
ATOM      8  C   UNL     1       4.065  -8.912   0.316  0.00  0.00    +0.043 A 
ATOM      9  C   UNL     1       2.853  -8.273   0.080  0.00  0.00    -0.023 A 
ATOM     10  C   UNL     1       2.771  -6.896   0.148  0.00  0.00    +0.028 A 
ATOM     11  C   UNL     1       1.625  -9.073  -0.267  0.00  0.00    +0.046 C 
ATOM     12  C   UNL     1       1.660 -10.421   0.449  0.00  0.00    +0.101 C 
ATOM     13  C   UNL     1       3.012 -11.058   0.271  0.00  0.00    +0.220 C 
ATOM     14  O   UNL     1       3.094 -12.260   0.130  0.00  0.00    -0.275 OA
ATOM     15  N   UNL     1       4.128 -10.311   0.266  0.00  0.00    -0.271 N 
ATOM     16  C   UNL     1       5.442 -10.966   0.206  0.00  0.00    +0.114 C 
ATOM     17  C   UNL     1       6.355 -10.279   1.230  0.00  0.00    +0.024 C 
ATOM     18  C   UNL     1       6.538  -8.818   0.822  0.00  0.00    +0.038 C 
ENDBRANCH   3   5
BRANCH   1  26
ATOM     19  C   UNL     1       6.297   1.884  -0.997  0.00  0.00    +0.001 A 
ATOM     20  C   UNL     1       5.170   2.420  -0.388  0.00  0.00    +0.004 A 
ATOM     21  C   UNL     1       4.258   1.602   0.247  0.00  0.00    +0.047 A 
ATOM     22  C   UNL     1       4.463   0.229   0.273  0.00  0.00    +0.139 A 
ATOM     23  C   UNL     1       5.591  -0.316  -0.368  0.00  0.00    +0.018 A 
ATOM     24  C   UNL     1       6.516   0.536  -0.988  0.00  0.00    +0.011 A 
ATOM     25  C   UNL     1       5.774  -1.723  -0.400  0.00  0.00    +0.031 A 
ATOM     26  C   UNL     1       4.731  -2.527   0.036  0.00  0.00    +0.122 A 
ATOM     27  C   UNL     1       3.492  -1.855   0.471  0.00  0.00    +0.350 A 
ATOM     28  O   UNL     1       2.419  -2.426   0.429  0.00  0.00    -0.244 OA
ATOM     29  O   UNL     1       3.590  -0.582   0.918  0.00  0.00    -0.422 OA
ENDBRANCH   1  26
TORSDOF 2
