REMARK  Name = ZINC08774733
REMARK  6 active torsions:
REMARK  status: ('A' for Active; 'I' for Inactive)
REMARK    1  A    between atoms: C_7  and  C_11
REMARK    2  A    between atoms: C_11  and  C_12
REMARK    3  A    between atoms: C_12  and  N_13
REMARK    4  A    between atoms: C_14  and  C_30
REMARK    5  A    between atoms: C_16  and  C_17
REMARK    6  A    between atoms: C_17  and  C_18
REMARK                            x       y       z     vdW  Elec       q    Type
REMARK                         _______ _______ _______ _____ _____    ______ ____
ROOT
ATOM      1  N   UNL     1       1.291   1.956   0.742  0.00  0.00    -0.283 N 
ATOM      2  C   UNL     1       2.180   0.809   0.540  0.00  0.00    +0.151 C 
ATOM      3  C   UNL     1       1.293  -0.382   0.259  0.00  0.00    +0.077 C 
ATOM      4  C   UNL     1      -0.027   0.095   0.304  0.00  0.00    +0.249 C 
ATOM      5  O   UNL     1      -1.033  -0.568   0.128  0.00  0.00    -0.282 OA
ATOM      6  C   UNL     1       0.017   1.552   0.607  0.00  0.00    +0.288 C 
ATOM      7  O   UNL     1      -0.957   2.270   0.711  0.00  0.00    -0.266 OA
ENDROOT
BRANCH   2   8
ATOM      8  C   UNL     1       2.995   0.562   1.783  0.00  0.00    +0.015 A 
ATOM      9  C   UNL     1       4.326   0.333   1.899  0.00  0.00    +0.013 A 
ATOM     10  C   UNL     1       4.864   0.131   3.156  0.00  0.00    +0.008 A 
ATOM     11  C   UNL     1       4.046   0.169   4.236  0.00  0.00    +0.045 A 
ATOM     12  S   UNL     1       2.461   0.504   3.486  0.00  0.00    -0.099 S 
ENDBRANCH   2   8
BRANCH   3  13
ATOM     13  C   UNL     1       1.698  -1.677   0.007  0.00  0.00    +0.195 C 
ATOM     14  O   UNL     1       0.780  -2.656  -0.133  0.00  0.00    -0.287 OA
BRANCH  13  15
ATOM     15  C   UNL     1       3.133  -1.990  -0.107  0.00  0.00    +0.022 A 
ATOM     16  C   UNL     1       3.962  -1.202  -0.912  0.00  0.00    +0.013 A 
ATOM     17  C   UNL     1       5.305  -1.498  -1.010  0.00  0.00    +0.016 A 
ATOM     18  C   UNL     1       5.831  -2.579  -0.323  0.00  0.00    +0.018 A 
ATOM     19  C   UNL     1       5.014  -3.368   0.471  0.00  0.00    +0.016 A 
ATOM     20  C   UNL     1       3.671  -3.081   0.583  0.00  0.00    +0.013 A 
ATOM     21 BR   UNL     1       7.673  -2.981  -0.469  0.00  0.00    -0.050 Br
ENDBRANCH  13  15
ENDBRANCH   3  13
BRANCH   1  22
ATOM     22  C   UNL     1       1.721   3.324   1.042  0.00  0.00    +0.114 C 
BRANCH  22  23
ATOM     23  C   UNL     1       1.815   3.508   2.558  0.00  0.00    +0.056 C 
BRANCH  23  30
ATOM     24  C   UNL     1      -0.482   7.570   3.002  0.00  0.00    +0.001 A 
ATOM     25  C   UNL     1       0.356   8.636   3.299  0.00  0.00    +0.002 A 
ATOM     26  C   UNL     1       1.714   8.446   3.434  0.00  0.00    +0.026 A 
ATOM     27  C   UNL     1       2.253   7.173   3.272  0.00  0.00    +0.047 A 
ATOM     28  C   UNL     1       1.399   6.097   2.971  0.00  0.00    +0.003 A 
ATOM     29  C   UNL     1       0.026   6.312   2.839  0.00  0.00    +0.010 A 
ATOM     30  C   UNL     1       2.259   4.915   2.866  0.00  0.00    -0.021 A 
ATOM     31  C   UNL     1       3.516   5.323   3.102  0.00  0.00    +0.087 A 
ATOM     32  N   UNL     1       3.532   6.670   3.341  0.00  0.00    -0.360 N 
ATOM     33  H   UNL     1       4.376   7.341   3.562  0.00  0.00    +0.165 HD
ENDBRANCH  23  30
ENDBRANCH  22  23
ENDBRANCH   1  22
TORSDOF 6
