REMARK  Name = ZINC21981185
REMARK  11 active torsions:
REMARK  status: ('A' for Active; 'I' for Inactive)
REMARK    1  A    between atoms: C_1  and  N_2
REMARK    2  A    between atoms: N_2  and  C_3
REMARK    3  A    between atoms: C_3  and  C_4
REMARK    4  A    between atoms: C_4  and  C_5
REMARK    5  A    between atoms: C_5  and  N_6
REMARK    6  A    between atoms: C_19  and  C_21
REMARK    7  A    between atoms: C_21  and  C_22
REMARK    8  A    between atoms: C_24  and  O_38
REMARK    9  A    between atoms: C_26  and  O_37
REMARK   10  A    between atoms: C_28  and  O_36
REMARK   11  A    between atoms: C_30  and  C_33
REMARK                            x       y       z     vdW  Elec       q    Type
REMARK                         _______ _______ _______ _____ _____    ______ ____
ROOT
ATOM      1  N   UNL     1      -2.503   3.735  -0.005  0.00  0.00    -0.300 N 
ATOM      2  C   UNL     1      -1.241   3.154   0.031  0.00  0.00    +0.037 A 
ATOM      3  C   UNL     1      -1.209   1.755   0.017  0.00  0.00    +0.024 A 
ATOM      4  C   UNL     1      -0.013   1.076   0.008  0.00  0.00    +0.002 A 
ATOM      5  C   UNL     1       1.172   1.791   0.001  0.00  0.00    +0.000 A 
ATOM      6  C   UNL     1       1.143   3.166   0.019  0.00  0.00    +0.005 A 
ATOM      7  C   UNL     1      -0.065   3.870   0.045  0.00  0.00    -0.026 A 
ATOM      8  C   UNL     1       0.089   5.368   0.116  0.00  0.00    +0.042 C 
ATOM      9  C   UNL     1      -1.176   6.114   0.464  0.00  0.00    +0.042 C 
ATOM     10  C   UNL     1      -2.216   6.000  -0.610  0.00  0.00    -0.025 A 
ATOM     11  C   UNL     1      -2.832   4.798  -0.840  0.00  0.00    +0.037 A 
ATOM     12  C   UNL     1      -3.755   4.653  -1.867  0.00  0.00    +0.024 A 
ATOM     13  C   UNL     1      -4.065   5.748  -2.653  0.00  0.00    +0.005 A 
ATOM     14  C   UNL     1      -3.459   6.967  -2.410  0.00  0.00    -0.044 A 
ATOM     15  C   UNL     1      -2.534   7.099  -1.389  0.00  0.00    +0.009 A 
ENDROOT
BRANCH   1  16
ATOM     16  C   UNL     1      -3.539   3.200   0.881  0.00  0.00    +0.109 C 
BRANCH  16  17
ATOM     17  C   UNL     1      -3.502   3.945   2.217  0.00  0.00    +0.000 C 
BRANCH  17  18
ATOM     18  C   UNL     1      -4.584   3.387   3.143  0.00  0.00    -0.081 C 
BRANCH  18  20
ATOM     19  C   UNL     1      -5.576   3.592   5.343  0.00  0.00    -0.101 C 
ATOM     20  N   UNL     1      -4.548   4.103   4.426  0.00  0.00    +0.377 N 
ATOM     21  H   UNL     1      -4.722   5.172   4.238  0.00  0.00    -0.086 HD
ATOM     22  H   UNL     1      -3.554   3.967   4.877  0.00  0.00    -0.086 HD
ENDBRANCH  18  20
ENDBRANCH  17  18
ENDBRANCH  16  17
ENDBRANCH   1  16
BRANCH  14  23
ATOM     23  C   UNL     1      -3.809   8.160  -3.262  0.00  0.00    +0.069 C 
BRANCH  23  24
ATOM     24  C   UNL     1      -2.867   8.219  -4.467  0.00  0.00    +0.155 C 
ATOM     25  C   UNL     1      -3.299   9.356  -5.397  0.00  0.00    +0.175 C 
ATOM     26  C   UNL     1      -2.317   9.447  -6.569  0.00  0.00    +0.177 C 
ATOM     27  C   UNL     1      -0.902   9.652  -6.020  0.00  0.00    +0.185 C 
ATOM     28  C   UNL     1      -0.562   8.503  -5.066  0.00  0.00    +0.262 C 
ATOM     29  O   UNL     1      -1.532   8.455  -4.017  0.00  0.00    -0.356 OA
BRANCH  28  30
ATOM     30  C   UNL     1       0.806   8.728  -4.475  0.00  0.00    +0.387 C 
ATOM     31  O   UNL     1       0.927   8.925  -3.290  0.00  0.00    -0.243 OA
ATOM     32  O   UNL     1       1.890   8.708  -5.267  0.00  0.00    -0.243 OA
ENDBRANCH  28  30
BRANCH  27  33
ATOM     33  O   UNL     1       0.033   9.667  -7.100  0.00  0.00    -0.386 OA
ATOM     34  H   UNL     1       1.106   9.804  -6.897  0.00  0.00    +0.210 HD
ENDBRANCH  27  33
BRANCH  26  35
ATOM     35  O   UNL     1      -2.669  10.551  -7.405  0.00  0.00    -0.386 OA
ATOM     36  H   UNL     1      -2.073  10.775  -8.302  0.00  0.00    +0.210 HD
ENDBRANCH  26  35
BRANCH  25  37
ATOM     37  O   UNL     1      -4.613   9.092  -5.894  0.00  0.00    -0.387 OA
ATOM     38  H   UNL     1      -5.093   9.804  -6.582  0.00  0.00    +0.210 HD
ENDBRANCH  25  37
ENDBRANCH  23  24
ENDBRANCH  14  23
TORSDOF 10
