REMARK  Name = ZINC03346713
REMARK  4 active torsions:
REMARK  status: ('A' for Active; 'I' for Inactive)
REMARK    1  A    between atoms: C_6  and  N_7
REMARK    2  A    between atoms: N_7  and  C_8
REMARK    3  A    between atoms: C_8  and  N_10
REMARK    4  A    between atoms: N_10  and  C_11
REMARK                            x       y       z     vdW  Elec       q    Type
REMARK                         _______ _______ _______ _____ _____    ______ ____
ROOT
ATOM      1  N   UNL     1       5.945  -0.627  -0.262  0.00  0.00    -0.297 N 
ATOM      2  H   UNL     1       5.940  -1.574  -0.053  0.00  0.00    +0.154 HD
ENDROOT
BRANCH   1   8
ATOM      3  C   UNL     1       8.066  -0.091   0.764  0.00  0.00    +0.025 A 
ATOM      4  C   UNL     1       9.258   0.605   0.762  0.00  0.00    +0.029 A 
ATOM      5  C   UNL     1       9.546   1.480  -0.274  0.00  0.00    +0.067 A 
ATOM      6  C   UNL     1       8.631   1.657  -1.314  0.00  0.00    +0.069 A 
ATOM      7  C   UNL     1       7.438   0.952  -1.312  0.00  0.00    +0.051 A 
ATOM      8  C   UNL     1       7.153   0.082  -0.270  0.00  0.00    +0.035 A 
ATOM      9  N   UNL     1       9.192   2.582  -2.191  0.00  0.00    -0.306 N 
ATOM     10  H   UNL     1       8.787   2.905  -3.011  0.00  0.00    +0.170 HD
ATOM     11  C   UNL     1      10.393   2.952  -1.708  0.00  0.00    +0.325 A 
ATOM     12  O   UNL     1      11.145   3.750  -2.236  0.00  0.00    -0.247 OA
ATOM     13  N   UNL     1      10.636   2.305  -0.552  0.00  0.00    -0.306 N 
ATOM     14  H   UNL     1      11.433   2.397  -0.007  0.00  0.00    +0.170 HD
ENDBRANCH   1   8
BRANCH   1  15
ATOM     15  C   UNL     1       4.789   0.007  -0.544  0.00  0.00    +0.139 C 
ATOM     16  S   UNL     1       4.810   1.650  -1.026  0.00  0.00    -0.018 S 
BRANCH  15  17
ATOM     17  N   UNL     1       3.618  -0.652  -0.446  0.00  0.00    -0.297 N 
ATOM     18  H   UNL     1       3.597  -1.553  -0.088  0.00  0.00    +0.154 HD
BRANCH  17  19
ATOM     19  C   UNL     1       2.432  -0.037  -0.863  0.00  0.00    +0.034 A 
ATOM     20  C   UNL     1       2.424   0.758  -2.001  0.00  0.00    +0.025 A 
ATOM     21  C   UNL     1       1.252   1.364  -2.411  0.00  0.00    +0.023 A 
ATOM     22  C   UNL     1       0.087   1.181  -1.688  0.00  0.00    +0.059 A 
ATOM     23  C   UNL     1       0.092   0.389  -0.552  0.00  0.00    +0.061 A 
ATOM     24  C   UNL     1       1.262  -0.221  -0.138  0.00  0.00    +0.044 A 
ATOM     25 CL   UNL     1      -1.372   0.161   0.354  0.00  0.00    -0.082 Cl
ATOM     26 CL   UNL     1      -1.382   1.950  -2.201  0.00  0.00    -0.082 Cl
ENDBRANCH  17  19
ENDBRANCH  15  17
ENDBRANCH   1  15
TORSDOF 4
