REMARK  Name = ZINC00825728
REMARK  7 active torsions:
REMARK  status: ('A' for Active; 'I' for Inactive)
REMARK    1  A    between atoms: C_4  and  C_7
REMARK    2  A    between atoms: C_7  and  N_8
REMARK    3  A    between atoms: C_9  and  C_15
REMARK    4  A    between atoms: C_18  and  C_21
REMARK    5  A    between atoms: N_23  and  N_24
REMARK    6  A    between atoms: C_25  and  C_26
REMARK    7  A    between atoms: C_29  and  N_32
REMARK                            x       y       z     vdW  Elec       q    Type
REMARK                         _______ _______ _______ _____ _____    ______ ____
ROOT
ATOM      1  C   UNL     1       0.097   1.336   0.087  0.00  0.00    -0.017 A 
ATOM      2  C   UNL     1       1.221   2.020  -0.341  0.00  0.00    +0.007 A 
ATOM      3  C   UNL     1       2.456   1.405  -0.318  0.00  0.00    +0.013 A 
ATOM      4  C   UNL     1       2.570   0.091   0.137  0.00  0.00    +0.038 A 
ATOM      5  C   UNL     1       1.431  -0.594   0.567  0.00  0.00    +0.013 A 
ATOM      6  C   UNL     1       0.203   0.033   0.539  0.00  0.00    +0.007 A 
ENDROOT
BRANCH   1   8
ATOM      7  N   UNL     1      -1.225   3.280   0.808  0.00  0.00    -0.280 N 
ATOM      8  C   UNL     1      -1.250   2.012   0.054  0.00  0.00    +0.165 C 
ATOM      9  S   UNL     1      -1.650   2.609  -1.645  0.00  0.00    -0.124 S 
ATOM     10  C   UNL     1      -2.341   4.241  -1.133  0.00  0.00    +0.167 C 
ATOM     11  C   UNL     1      -1.748   4.369   0.260  0.00  0.00    +0.227 C 
ATOM     12  O   UNL     1      -1.751   5.429   0.850  0.00  0.00    -0.275 OA
BRANCH   7  13
ATOM     13  C   UNL     1      -0.631   3.334   2.146  0.00  0.00    +0.144 C 
BRANCH  13  17
ATOM     14  C   UNL     1      -3.546   2.176   5.046  0.00  0.00    +0.000 A 
ATOM     15  C   UNL     1      -2.701   1.229   4.499  0.00  0.00    +0.000 A 
ATOM     16  C   UNL     1      -1.758   1.604   3.560  0.00  0.00    +0.005 A 
ATOM     17  C   UNL     1      -1.660   2.926   3.169  0.00  0.00    -0.030 A 
ATOM     18  C   UNL     1      -2.501   3.874   3.720  0.00  0.00    +0.005 A 
ATOM     19  C   UNL     1      -3.447   3.499   4.655  0.00  0.00    +0.000 A 
ENDBRANCH  13  17
ENDBRANCH   7  13
ENDBRANCH   1   8
BRANCH   4  20
ATOM     20  C   UNL     1       3.890  -0.574   0.164  0.00  0.00    +0.263 C 
ATOM     21  O   UNL     1       3.985  -1.720   0.561  0.00  0.00    -0.268 OA
ATOM     22  N   UNL     1       4.987   0.089  -0.252  0.00  0.00    -0.203 N 
ATOM     23  H   UNL     1       4.910   1.003  -0.568  0.00  0.00    +0.178 HD
BRANCH  22  24
ATOM     24  N   UNL     1       6.238  -0.541  -0.226  0.00  0.00    -0.187 NA
ATOM     25  C   UNL     1       7.294   0.098  -0.626  0.00  0.00    +0.138 C 
BRANCH  25  26
ATOM     26  C   UNL     1       8.611  -0.566  -0.600  0.00  0.00    -0.005 A 
ATOM     27  C   UNL     1       8.726  -1.879  -0.139  0.00  0.00    +0.012 A 
ATOM     28  C   UNL     1       9.960  -2.495  -0.121  0.00  0.00    +0.033 A 
ATOM     29  C   UNL     1      11.084  -1.811  -0.549  0.00  0.00    +0.126 A 
ATOM     30  C   UNL     1      10.979  -0.508  -1.002  0.00  0.00    +0.033 A 
ATOM     31  C   UNL     1       9.751   0.119  -1.030  0.00  0.00    +0.012 A 
BRANCH  29  32
ATOM     32  N   UNL     1      12.406  -2.477  -0.522  0.00  0.00    +0.056 N 
ATOM     33  O   UNL     1      13.398  -1.878  -0.897  0.00  0.00    -0.126 OA
ATOM     34  O   UNL     1      12.502  -3.624  -0.124  0.00  0.00    -0.126 OA
ENDBRANCH  29  32
ENDBRANCH  25  26
ENDBRANCH  22  24
ENDBRANCH   4  20
TORSDOF 7
