REMARK  Name = ZINC09884466
REMARK  5 active torsions:
REMARK  status: ('A' for Active; 'I' for Inactive)
REMARK    1  A    between atoms: C_1  and  C_2
REMARK    2  A    between atoms: C_9  and  N_13
REMARK    3  A    between atoms: C_10  and  C_11
REMARK    4  A    between atoms: C_14  and  C_16
REMARK    5  A    between atoms: C_16  and  N_17
REMARK                            x       y       z     vdW  Elec       q    Type
REMARK                         _______ _______ _______ _____ _____    ______ ____
ROOT
ATOM      1  C   UNL     1      -0.932   4.871   4.591  0.00  0.00    +0.214 C 
ENDROOT
BRANCH   1   2
ATOM      2  N   UNL     1      -0.540   4.206   3.347  0.00  0.00    -0.215 N 
ATOM      3  C   UNL     1      -1.410   3.656   2.475  0.00  0.00    +0.251 C 
ATOM      4  O   UNL     1      -2.618   3.620   2.568  0.00  0.00    -0.272 OA
ATOM      5  C   UNL     1      -0.561   3.094   1.356  0.00  0.00    +0.138 C 
ATOM      6  C   UNL     1      -0.739   1.585   1.264  0.00  0.00    +0.040 C 
ATOM      7  C   UNL     1      -0.013   1.086   0.008  0.00  0.00    +0.008 C 
ATOM      8  C   UNL     1      -0.759   1.596  -1.223  0.00  0.00    +0.035 C 
ATOM      9  C   UNL     1      -0.983   3.082  -1.133  0.00  0.00    -0.042 A 
ATOM     10  C   UNL     1      -0.899   3.772   0.058  0.00  0.00    -0.012 A 
ATOM     11  C   UNL     1      -1.124   5.141   0.076  0.00  0.00    +0.006 A 
ATOM     12  C   UNL     1      -1.427   5.818  -1.088  0.00  0.00    +0.000 A 
ATOM     13  C   UNL     1      -1.506   5.127  -2.283  0.00  0.00    +0.000 A 
ATOM     14  C   UNL     1      -1.286   3.765  -2.303  0.00  0.00    +0.004 A 
ATOM     15  N   UNL     1       0.815   3.419   1.757  0.00  0.00    -0.281 N 
ATOM     16  C   UNL     1       0.726   4.068   2.934  0.00  0.00    +0.310 C 
ATOM     17  O   UNL     1       1.687   4.483   3.551  0.00  0.00    -0.252 OA
ATOM     18  H   UNL     1       1.627   3.207   1.271  0.00  0.00    +0.152 HD
ENDBRANCH   1   2
BRANCH   1  20
ATOM     19  N   UNL     1      -1.315   4.248   6.955  0.00  0.00    -0.278 N 
ATOM     20  C   UNL     1      -0.976   3.861   5.709  0.00  0.00    +0.236 C 
ATOM     21  O   UNL     1      -0.707   2.700   5.487  0.00  0.00    -0.274 OA
ATOM     22  H   UNL     1      -1.531   5.177   7.132  0.00  0.00    +0.155 HD
BRANCH  19  30
ATOM     23  C   UNL     1      -1.332  -1.279  12.491  0.00  0.00    +0.008 C 
ATOM     24  C   UNL     1      -1.146   0.067  11.788  0.00  0.00    -0.009 C 
ATOM     25  C   UNL     1      -2.282   1.016  12.181  0.00  0.00    +0.008 C 
ATOM     26  C   UNL     1      -1.974   2.430  11.687  0.00  0.00    +0.037 C 
ATOM     27  C   UNL     1      -1.645   2.369  10.200  0.00  0.00    -0.018 A 
ATOM     28  C   UNL     1      -1.296   1.204   9.612  0.00  0.00    -0.004 A 
ATOM     29  S   UNL     1      -1.016   1.621   7.914  0.00  0.00    -0.077 S 
ATOM     30  C   UNL     1      -1.356   3.318   7.984  0.00  0.00    +0.090 A 
ATOM     31  C   UNL     1      -1.673   3.523   9.318  0.00  0.00    +0.084 A 
ATOM     32  C   UNL     1      -1.177  -0.138  10.266  0.00  0.00    +0.046 C 
BRANCH  31  33
ATOM     33  C   UNL     1      -2.019   4.823   9.808  0.00  0.00    +0.102 C 
ATOM     34  N   UNL     1      -2.294   5.855  10.196  0.00  0.00    -0.191 NA
ENDBRANCH  31  33
ENDBRANCH  19  30
ENDBRANCH   1  20
TORSDOF 4
