REMARK  Name = ZINC12402586
REMARK  4 active torsions:
REMARK  status: ('A' for Active; 'I' for Inactive)
REMARK    1  A    between atoms: C_1  and  C_2
REMARK    2  A    between atoms: C_6  and  C_22
REMARK    3  A    between atoms: C_9  and  N_12
REMARK    4  A    between atoms: C_14  and  N_19
REMARK                            x       y       z     vdW  Elec       q    Type
REMARK                         _______ _______ _______ _____ _____    ______ ____
ROOT
ATOM      1  C   UNL     1      -0.345   1.613   0.495  0.00  0.00    +0.011 C 
ATOM      2  C   UNL     1      -0.190   0.104   0.292  0.00  0.00    -0.029 C 
ATOM      3  C   UNL     1       0.571  -0.160  -1.009  0.00  0.00    +0.010 C 
ATOM      4  C   UNL     1       0.726  -1.669  -1.211  0.00  0.00    -0.008 C 
ATOM      5  C   UNL     1       1.504  -2.264  -0.036  0.00  0.00    +0.010 C 
ATOM      6  C   UNL     1       0.744  -1.999   1.265  0.00  0.00    -0.029 C 
ATOM      7  C   UNL     1       0.588  -0.491   1.468  0.00  0.00    +0.013 C 
ATOM      8  C   UNL     1      -0.639  -2.648   1.188  0.00  0.00    +0.032 C 
ATOM      9  C   UNL     1      -1.418  -2.054   0.013  0.00  0.00    +0.035 C 
ATOM     10  C   UNL     1      -0.657  -2.318  -1.288  0.00  0.00    +0.029 C 
ATOM     11  C   UNL     1      -1.573  -0.545   0.215  0.00  0.00    +0.032 C 
ATOM     12  C   UNL     1       1.522  -2.594   2.440  0.00  0.00    +0.011 C 
ENDROOT
BRANCH   9  13
ATOM     13  N   UNL     1      -2.742  -2.675  -0.061  0.00  0.00    -0.322 N 
ATOM     14  C   UNL     1      -3.635  -2.293  -1.056  0.00  0.00    +0.150 A 
ATOM     15  C   UNL     1      -4.929  -2.804  -1.054  0.00  0.00    +0.166 A 
ATOM     16  C   UNL     1      -5.807  -2.415  -2.049  0.00  0.00    +0.038 A 
ATOM     17  C   UNL     1      -5.360  -1.524  -3.016  0.00  0.00    +0.022 A 
ATOM     18  C   UNL     1      -4.063  -1.057  -2.957  0.00  0.00    +0.113 A 
ATOM     19  N   UNL     1      -3.248  -1.442  -1.993  0.00  0.00    -0.238 NA
ATOM     20  H   UNL     1      -2.996  -3.354   0.584  0.00  0.00    +0.148 HD
BRANCH  15  21
ATOM     21  N   UNL     1      -5.323  -3.672  -0.091  0.00  0.00    +0.060 N 
ATOM     22  O   UNL     1      -6.049  -4.597  -0.371  0.00  0.00    -0.126 OA
ATOM     23  O   UNL     1      -4.949  -3.521   1.049  0.00  0.00    -0.126 OA
ENDBRANCH  15  21
ENDBRANCH   9  13
TORSDOF 2
