REMARK  Name = ZINC00695030
REMARK  9 active torsions:
REMARK  status: ('A' for Active; 'I' for Inactive)
REMARK    1  A    between atoms: C_1  and  C_2
REMARK    2  A    between atoms: C_5  and  C_8
REMARK    3  A    between atoms: C_8  and  C_9
REMARK    4  A    between atoms: C_10  and  C_35
REMARK    5  A    between atoms: C_12  and  C_34
REMARK    6  A    between atoms: C_14  and  N_15
REMARK    7  A    between atoms: N_19  and  S_22
REMARK    8  A    between atoms: S_22  and  C_25
REMARK    9  A    between atoms: C_28  and  N_31
REMARK                            x       y       z     vdW  Elec       q    Type
REMARK                         _______ _______ _______ _____ _____    ______ ____
ROOT
ATOM      1  N   UNL     1      -1.175   4.661   1.890  0.00  0.00    -0.314 N 
ATOM      2  C   UNL     1      -1.310   3.889   3.097  0.00  0.00    +0.108 C 
ATOM      3  C   UNL     1       0.114   3.535   3.513  0.00  0.00    +0.036 C 
ATOM      4  C   UNL     1       0.603   2.269   2.958  0.00  0.00    +0.111 C 
ATOM      5  N   UNL     1       0.519   2.385   1.462  0.00  0.00    -0.175 NA
ATOM      6  C   UNL     1      -0.775   2.438   0.841  0.00  0.00    +0.128 C 
ATOM      7  C   UNL     1      -1.398   3.836   0.672  0.00  0.00    +0.123 C 
ENDROOT
BRANCH   1  13
ATOM      8  C   UNL     1      -1.623   6.947   2.527  0.00  0.00    +0.016 A 
ATOM      9  C   UNL     1      -2.496   8.017   2.513  0.00  0.00    +0.021 A 
ATOM     10  N   UNL     1      -3.676   7.880   1.925  0.00  0.00    -0.347 N 
ATOM     11  C   UNL     1      -4.022   6.744   1.352  0.00  0.00    +0.106 A 
ATOM     12  N   UNL     1      -3.218   5.700   1.337  0.00  0.00    -0.219 NA
ATOM     13  C   UNL     1      -2.017   5.761   1.907  0.00  0.00    +0.128 A 
ATOM     14  C   UNL     1      -5.374   6.636   0.696  0.00  0.00    +0.086 C 
ATOM     15  C   UNL     1      -2.116   9.322   3.164  0.00  0.00    +0.064 C 
ATOM     16  H   UNL     1      -4.384   8.722   1.909  0.00  0.00    +0.167 HD
BRANCH   8  17
ATOM     17  C   UNL     1      -0.274   7.061   3.191  0.00  0.00    +0.075 C 
BRANCH  17  22
ATOM     18  C   UNL     1       3.651   8.753  -0.698  0.00  0.00    +0.044 C 
ATOM     19  C   UNL     1       2.627   8.312   0.316  0.00  0.00    -0.050 A 
ATOM     20  C   UNL     1       2.017   9.245   1.133  0.00  0.00    +0.003 A 
ATOM     21  C   UNL     1       1.078   8.840   2.064  0.00  0.00    +0.004 A 
ATOM     22  C   UNL     1       0.749   7.502   2.176  0.00  0.00    -0.043 A 
ATOM     23  C   UNL     1       1.363   6.569   1.363  0.00  0.00    +0.004 A 
ATOM     24  C   UNL     1       2.299   6.974   0.430  0.00  0.00    +0.003 A 
ENDBRANCH  17  22
ENDBRANCH   8  17
ENDBRANCH   1  13
BRANCH   5  25
ATOM     25  S   UNL     1       1.897   2.456   0.545  0.00  0.00    +0.061 S 
ATOM     26  O   UNL     1       2.926   2.943   1.395  0.00  0.00    -0.153 OA
ATOM     27  O   UNL     1       1.542   3.102  -0.670  0.00  0.00    -0.153 OA
BRANCH  25  28
ATOM     28  C   UNL     1       2.330   0.800   0.127  0.00  0.00    +0.106 A 
ATOM     29  C   UNL     1       3.170   0.076   0.952  0.00  0.00    +0.031 A 
ATOM     30  C   UNL     1       3.506  -1.225   0.626  0.00  0.00    +0.034 A 
ATOM     31  C   UNL     1       3.011  -1.798  -0.530  0.00  0.00    +0.126 A 
ATOM     32  C   UNL     1       2.175  -1.072  -1.358  0.00  0.00    +0.034 A 
ATOM     33  C   UNL     1       1.835   0.227  -1.030  0.00  0.00    +0.031 A 
BRANCH  31  34
ATOM     34  N   UNL     1       3.375  -3.189  -0.882  0.00  0.00    +0.056 N 
ATOM     35  O   UNL     1       2.939  -3.694  -1.901  0.00  0.00    -0.126 OA
ATOM     36  O   UNL     1       4.112  -3.828  -0.152  0.00  0.00    -0.126 OA
ENDBRANCH  31  34
ENDBRANCH  25  28
ENDBRANCH   5  25
TORSDOF 6
