REMARK  Name = ZINC65260114
REMARK  9 active torsions:
REMARK  status: ('A' for Active; 'I' for Inactive)
REMARK    1  A    between atoms: C_1  and  C_2
REMARK    2  A    between atoms: C_2  and  C_3
REMARK    3  A    between atoms: C_2  and  C_4
REMARK    4  A    between atoms: C_2  and  N_5
REMARK    5  A    between atoms: C_21  and  C_23
REMARK    6  A    between atoms: C_23  and  O_24
REMARK    7  A    between atoms: O_24  and  C_25
REMARK    8  A    between atoms: C_28  and  O_31
REMARK    9  A    between atoms: O_31  and  C_32
REMARK                            x       y       z     vdW  Elec       q    Type
REMARK                         _______ _______ _______ _____ _____    ______ ____
ROOT
ATOM      1  N   UNL     1       0.719  -0.442  -1.210  0.00  0.00    -0.370 N 
ATOM      2  C   UNL     1       1.967  -0.143  -1.376  0.00  0.00    +0.098 C 
ATOM      3  N   UNL     1       2.700   0.495  -0.391  0.00  0.00    -0.301 N 
ATOM      4  C   UNL     1       3.640   1.457  -0.797  0.00  0.00    +0.053 A 
ATOM      5  C   UNL     1       4.220   2.295   0.142  0.00  0.00    +0.025 A 
ATOM      6  C   UNL     1       5.152   3.236  -0.255  0.00  0.00    +0.002 A 
ATOM      7  C   UNL     1       5.507   3.345  -1.587  0.00  0.00    +0.002 A 
ATOM      8  C   UNL     1       4.929   2.516  -2.531  0.00  0.00    +0.025 A 
ATOM      9  C   UNL     1       3.992   1.571  -2.141  0.00  0.00    +0.049 A 
ATOM     10  N   UNL     1       3.394   0.743  -3.103  0.00  0.00    -0.329 N 
ATOM     11  C   UNL     1       2.704  -0.479  -2.655  0.00  0.00    +0.102 C 
ATOM     12  C   UNL     1       3.720  -1.587  -2.390  0.00  0.00    +0.036 C 
ATOM     13  C   UNL     1       4.487  -1.899  -3.678  0.00  0.00    +0.021 C 
ATOM     14  C   UNL     1       3.504  -2.379  -4.749  0.00  0.00    +0.108 C 
ATOM     15  N   UNL     1       2.447  -1.371  -4.910  0.00  0.00    -0.296 N 
ATOM     16  C   UNL     1       1.705  -0.931  -3.720  0.00  0.00    +0.141 C 
ATOM     17  C   UNL     1       2.164  -0.859  -6.124  0.00  0.00    +0.253 C 
ATOM     18  O   UNL     1       1.290  -0.027  -6.243  0.00  0.00    -0.272 OA
ATOM     19  H   UNL     1       0.207  -0.812  -1.947  0.00  0.00    +0.161 HD
ATOM     20  H   UNL     1       3.438   0.970  -4.045  0.00  0.00    +0.147 HD
ATOM     21  H   UNL     1       2.568   0.285   0.547  0.00  0.00    +0.153 HD
ENDROOT
BRANCH   1  23
ATOM     22  C   UNL     1       0.261   1.238   0.507  0.00  0.00    +0.033 C 
ATOM     23  C   UNL     1       0.080  -0.223   0.089  0.00  0.00    +0.031 C 
ATOM     24  C   UNL     1       0.723  -1.135   1.135  0.00  0.00    +0.033 C 
ATOM     25  C   UNL     1      -1.413  -0.542  -0.017  0.00  0.00    +0.033 C 
ENDBRANCH   1  23
BRANCH  17  26
ATOM     26  C   UNL     1       2.935  -1.320  -7.334  0.00  0.00    +0.324 C 
BRANCH  26  27
ATOM     27  O   UNL     1       2.454  -0.637  -8.494  0.00  0.00    -0.483 OA
BRANCH  27  28
ATOM     28  C   UNL     1       3.048  -0.940  -9.679  0.00  0.00    +0.121 A 
ATOM     29  C   UNL     1       4.067  -1.880  -9.724  0.00  0.00    +0.049 A 
ATOM     30  C   UNL     1       4.670  -2.188 -10.928  0.00  0.00    +0.049 A 
ATOM     31  C   UNL     1       4.256  -1.558 -12.092  0.00  0.00    +0.120 A 
ATOM     32  C   UNL     1       3.236  -0.619 -12.047  0.00  0.00    +0.049 A 
ATOM     33  C   UNL     1       2.630  -0.314 -10.844  0.00  0.00    +0.049 A 
BRANCH  31  34
ATOM     34  O   UNL     1       4.851  -1.860 -13.277  0.00  0.00    -0.495 OA
ATOM     35  C   UNL     1       4.374  -1.173 -14.436  0.00  0.00    +0.277 C 
ENDBRANCH  31  34
ENDBRANCH  27  28
ENDBRANCH  26  27
ENDBRANCH  17  26
TORSDOF 5
