REMARK  Name = ZINC08893164
REMARK  11 active torsions:
REMARK  status: ('A' for Active; 'I' for Inactive)
REMARK    1  A    between atoms: C_1  and  C_2
REMARK    2  A    between atoms: C_2  and  O_3
REMARK    3  A    between atoms: O_3  and  C_4
REMARK    4  A    between atoms: N_11  and  C_12
REMARK    5  A    between atoms: C_12  and  C_13
REMARK    6  A    between atoms: C_13  and  C_14
REMARK    7  A    between atoms: C_21  and  C_23
REMARK    8  A    between atoms: C_26  and  O_31
REMARK    9  A    between atoms: C_27  and  O_29
REMARK   10  A    between atoms: O_29  and  C_30
REMARK   11  A    between atoms: O_31  and  C_32
REMARK                            x       y       z     vdW  Elec       q    Type
REMARK                         _______ _______ _______ _____ _____    ______ ____
ROOT
ATOM      1  C   UNL     1       0.877  -1.619  -1.383  0.00  0.00    +0.121 A 
ATOM      2  C   UNL     1       0.414  -2.418  -0.344  0.00  0.00    +0.049 A 
ATOM      3  C   UNL     1       0.553  -3.789  -0.399  0.00  0.00    +0.050 A 
ATOM      4  C   UNL     1       1.159  -4.383  -1.498  0.00  0.00    +0.138 A 
ATOM      5  C   UNL     1       1.626  -3.578  -2.546  0.00  0.00    +0.044 A 
ATOM      6  C   UNL     1       1.478  -2.195  -2.489  0.00  0.00    +0.059 A 
ATOM      7  C   UNL     1       2.269  -4.235  -3.708  0.00  0.00    +0.050 A 
ATOM      8  N   UNL     1       2.727  -3.535  -4.722  0.00  0.00    -0.383 N 
ATOM      9  C   UNL     1       2.370  -5.655  -3.680  0.00  0.00    +0.072 A 
ATOM     10  C   UNL     1       1.884  -6.336  -2.614  0.00  0.00    +0.138 A 
ATOM     11  O   UNL     1       1.304  -5.725  -1.567  0.00  0.00    -0.455 OA
ATOM     12  H   UNL     1       3.490  -3.857  -5.228  0.00  0.00    +0.160 HD
ENDROOT
BRANCH  10  13
ATOM     13  C   UNL     1       1.997  -7.808  -2.602  0.00  0.00    +0.021 A 
ATOM     14  C   UNL     1       2.601  -8.472  -3.672  0.00  0.00    +0.015 A 
ATOM     15  C   UNL     1       2.706  -9.847  -3.659  0.00  0.00    +0.050 A 
ATOM     16  C   UNL     1       2.213 -10.573  -2.584  0.00  0.00    +0.162 A 
ATOM     17  C   UNL     1       1.610  -9.917  -1.513  0.00  0.00    +0.162 A 
ATOM     18  C   UNL     1       1.506  -8.539  -1.517  0.00  0.00    +0.061 A 
BRANCH  17  19
ATOM     19  O   UNL     1       1.128 -10.632  -0.462  0.00  0.00    -0.491 OA
ATOM     20  C   UNL     1       0.523  -9.894   0.602  0.00  0.00    +0.277 C 
ENDBRANCH  17  19
BRANCH  16  21
ATOM     21  O   UNL     1       2.319 -11.928  -2.577  0.00  0.00    -0.491 OA
ATOM     22  C   UNL     1       2.948 -12.536  -3.707  0.00  0.00    +0.277 C 
ENDBRANCH  16  21
ENDBRANCH  10  13
BRANCH   1  23
ATOM     23  O   UNL     1       0.734  -0.268  -1.316  0.00  0.00    -0.492 OA
BRANCH  23  25
ATOM     24  C   UNL     1       0.033   1.784  -0.251  0.00  0.00    +0.048 C 
ATOM     25  C   UNL     1       0.104   0.260  -0.147  0.00  0.00    +0.225 C 
ENDBRANCH  23  25
ENDBRANCH   1  23
BRANCH   8  26
ATOM     26  C   UNL     1       2.086  -2.270  -5.089  0.00  0.00    +0.117 C 
BRANCH  26  27
ATOM     27  C   UNL     1       3.059  -1.115  -4.843  0.00  0.00    +0.056 C 
BRANCH  27  28
ATOM     28  C   UNL     1       2.400   0.186  -5.221  0.00  0.00    -0.046 A 
ATOM     29  C   UNL     1       2.510   0.667  -6.512  0.00  0.00    +0.004 A 
ATOM     30  C   UNL     1       1.905   1.861  -6.858  0.00  0.00    +0.000 A 
ATOM     31  C   UNL     1       1.190   2.574  -5.913  0.00  0.00    +0.000 A 
ATOM     32  C   UNL     1       1.080   2.092  -4.622  0.00  0.00    +0.000 A 
ATOM     33  C   UNL     1       1.681   0.896  -4.277  0.00  0.00    +0.004 A 
ENDBRANCH  27  28
ENDBRANCH  26  27
ENDBRANCH   8  26
TORSDOF 8
