REMARK  Name = ZINC20693701
REMARK  12 active torsions:
REMARK  status: ('A' for Active; 'I' for Inactive)
REMARK    1  A    between atoms: C_1  and  C_2
REMARK    2  A    between atoms: C_2  and  N_3
REMARK    3  A    between atoms: N_3  and  C_4
REMARK    4  A    between atoms: N_3  and  C_6
REMARK    5  A    between atoms: C_4  and  C_5
REMARK    6  A    between atoms: C_6  and  C_7
REMARK    7  A    between atoms: C_7  and  N_8
REMARK    8  A    between atoms: C_9  and  C_11
REMARK    9  A    between atoms: C_24  and  C_27
REMARK   10  A    between atoms: C_30  and  O_35
REMARK   11  A    between atoms: C_31  and  O_33
REMARK   12  A    between atoms: O_33  and  C_34
REMARK                            x       y       z     vdW  Elec       q    Type
REMARK                         _______ _______ _______ _____ _____    ______ ____
ROOT
ATOM      1  C   UNL     1       4.362   5.086  -5.441  0.00  0.00    +0.037 A 
ATOM      2  C   UNL     1       5.136   4.104  -4.816  0.00  0.00    +0.015 A 
ATOM      3  C   UNL     1       5.333   4.160  -3.456  0.00  0.00    +0.024 A 
ATOM      4  C   UNL     1       4.765   5.187  -2.707  0.00  0.00    +0.031 A 
ATOM      5  C   UNL     1       3.998   6.171  -3.319  0.00  0.00    -0.019 A 
ATOM      6  C   UNL     1       3.798   6.114  -4.687  0.00  0.00    +0.019 A 
ATOM      7  C   UNL     1       3.375   7.295  -2.551  0.00  0.00    +0.049 C 
ATOM      8  C   UNL     1       1.867   7.107  -2.369  0.00  0.00    -0.023 C 
ATOM      9  C   UNL     1       1.491   7.536  -1.189  0.00  0.00    -0.030 C 
ATOM     10  C   UNL     1       2.678   8.076  -0.416  0.00  0.00    +0.033 C 
ATOM     11  C   UNL     1       3.897   7.396  -1.105  0.00  0.00    +0.029 C 
ATOM     12  C   UNL     1       4.040   5.995  -0.503  0.00  0.00    +0.105 C 
ATOM     13  N   UNL     1       4.953   5.210  -1.341  0.00  0.00    -0.336 N 
ATOM     14  H   UNL     1       5.777   4.647  -0.878  0.00  0.00    +0.147 HD
ENDROOT
BRANCH  12  15
ATOM     15  C   UNL     1       2.691   5.324  -0.461  0.00  0.00    -0.023 A 
ATOM     16  C   UNL     1       2.174   4.742  -1.604  0.00  0.00    +0.009 A 
ATOM     17  C   UNL     1       0.937   4.126  -1.570  0.00  0.00    +0.049 A 
ATOM     18  C   UNL     1       0.213   4.090  -0.389  0.00  0.00    +0.158 A 
ATOM     19  C   UNL     1       0.731   4.681   0.759  0.00  0.00    +0.162 A 
ATOM     20  C   UNL     1       1.974   5.292   0.720  0.00  0.00    +0.054 A 
BRANCH  19  21
ATOM     21  O   UNL     1       0.021   4.653   1.919  0.00  0.00    -0.491 OA
ATOM     22  C   UNL     1       0.615   5.279   3.058  0.00  0.00    +0.277 C 
ENDBRANCH  19  21
BRANCH  18  23
ATOM     23  O   UNL     1      -1.004   3.484  -0.354  0.00  0.00    -0.503 OA
ATOM     24  H   UNL     1      -1.578   3.457   0.583  0.00  0.00    +0.292 HD
ENDBRANCH  18  23
ENDBRANCH  12  15
BRANCH   1  26
ATOM     25  N   UNL     1       4.688   4.040  -7.628  0.00  0.00    -0.313 N 
ATOM     26  C   UNL     1       4.142   5.034  -6.899  0.00  0.00    +0.244 C 
ATOM     27  O   UNL     1       3.469   5.889  -7.443  0.00  0.00    -0.270 OA
ATOM     28  H   UNL     1       5.296   3.268  -7.136  0.00  0.00    +0.149 HD
BRANCH  25  29
ATOM     29  C   UNL     1       4.470   3.989  -9.076  0.00  0.00    +0.086 C 
BRANCH  29  30
ATOM     30  C   UNL     1       5.191   2.772  -9.658  0.00  0.00    -0.060 C 
BRANCH  30  31
ATOM     31  N   UNL     1       4.973   2.721 -11.110  0.00  0.00    +0.380 N 
ATOM     32  H   UNL     1       5.242   3.703 -11.527  0.00  0.00    -0.082 HD
BRANCH  31  34
ATOM     33  C   UNL     1       7.268   2.247 -11.821  0.00  0.00    -0.017 C 
ATOM     34  C   UNL     1       5.837   1.712 -11.737  0.00  0.00    -0.082 C 
ENDBRANCH  31  34
BRANCH  31  35
ATOM     35  C   UNL     1       3.559   2.470 -11.421  0.00  0.00    -0.082 C 
ATOM     36  C   UNL     1       3.291   2.813 -12.887  0.00  0.00    -0.017 C 
ENDBRANCH  31  35
ENDBRANCH  30  31
ENDBRANCH  29  30
ENDBRANCH  25  29
ENDBRANCH   1  26
TORSDOF 9
