REMARK  Name = ZINC50987387
REMARK  6 active torsions:
REMARK  status: ('A' for Active; 'I' for Inactive)
REMARK    1  A    between atoms: C_1  and  C_2
REMARK    2  A    between atoms: C_4  and  C_12
REMARK    3  A    between atoms: N_6  and  C_7
REMARK    4  A    between atoms: C_7  and  C_8
REMARK    5  A    between atoms: C_8  and  C_9
REMARK    6  A    between atoms: C_8  and  C_10
REMARK                            x       y       z     vdW  Elec       q    Type
REMARK                         _______ _______ _______ _____ _____    ______ ____
ROOT
ATOM      1  C   UNL     1      -0.013   1.086   0.008  0.00  0.00    +0.081 C 
ATOM      2  C   UNL     1      -0.742   1.585  -1.213  0.00  0.00    +0.073 C 
ATOM      3  N   UNL     1      -1.252   0.805  -2.099  0.00  0.00    -0.363 N 
ATOM      4  C   UNL     1      -1.878   1.638  -3.137  0.00  0.00    +0.172 C 
ATOM      5  C   UNL     1      -1.624   3.058  -2.667  0.00  0.00    +0.101 C 
ATOM      6  N   UNL     1      -0.930   2.911  -1.485  0.00  0.00    -0.279 N 
ATOM      7  N   UNL     1      -1.981   4.158  -3.243  0.00  0.00    -0.388 N 
ATOM      8  H   UNL     1      -2.473   4.130  -4.078  0.00  0.00    +0.157 HD
ATOM      9  H   UNL     1      -1.757   5.011  -2.840  0.00  0.00    +0.157 HD
ATOM     10  H   UNL     1      -1.228  -0.164  -2.086  0.00  0.00    +0.162 HD
ENDROOT
BRANCH   4  11
ATOM     11  C   UNL     1      -1.224   1.399  -4.474  0.00  0.00    -0.014 A 
ATOM     12  C   UNL     1       0.142   1.206  -4.548  0.00  0.00    +0.010 A 
ATOM     13  C   UNL     1       0.746   0.988  -5.772  0.00  0.00    +0.050 A 
ATOM     14  C   UNL     1      -0.019   0.960  -6.929  0.00  0.00    +0.162 A 
ATOM     15  C   UNL     1      -1.393   1.151  -6.854  0.00  0.00    +0.162 A 
ATOM     16  C   UNL     1      -1.993   1.366  -5.622  0.00  0.00    +0.055 A 
ATOM     17  O   UNL     1      -2.163   1.121  -7.976  0.00  0.00    -0.485 OA
ATOM     18  C   UNL     1      -1.483   1.269  -9.227  0.00  0.00    +0.270 C 
ATOM     19  C   UNL     1      -0.252   0.353  -9.216  0.00  0.00    +0.270 C 
ATOM     20  O   UNL     1       0.590   0.748  -8.128  0.00  0.00    -0.485 OA
ENDBRANCH   4  11
BRANCH   6  21
ATOM     21  C   UNL     1      -0.461   4.015  -0.644  0.00  0.00    +0.116 C 
BRANCH  21  22
ATOM     22  C   UNL     1       0.946   4.427  -1.082  0.00  0.00    +0.001 C 
ATOM     23  C   UNL     1       0.892   4.994  -2.502  0.00  0.00    +0.009 C 
ATOM     24  C   UNL     1       1.485   5.494  -0.127  0.00  0.00    +0.009 C 
ENDBRANCH  21  22
ENDBRANCH   6  21
TORSDOF 3
