REMARK  Name = ZINC36346654
REMARK  14 active torsions:
REMARK  status: ('A' for Active; 'I' for Inactive)
REMARK    1  A    between atoms: C_1  and  C_2
REMARK    2  A    between atoms: C_2  and  C_3
REMARK    3  A    between atoms: C_3  and  N_4
REMARK    4  A    between atoms: N_4  and  C_5
REMARK    5  A    between atoms: N_4  and  C_27
REMARK    6  A    between atoms: C_5  and  C_6
REMARK    7  A    between atoms: C_7  and  C_26
REMARK    8  A    between atoms: N_9  and  C_19
REMARK    9  A    between atoms: C_10  and  O_11
REMARK   10  A    between atoms: O_11  and  C_12
REMARK   11  A    between atoms: C_27  and  C_28
REMARK   12  A    between atoms: C_28  and  C_30
REMARK   13  A    between atoms: C_28  and  O_37
REMARK   14  A    between atoms: C_30  and  C_31
REMARK                            x       y       z     vdW  Elec       q    Type
REMARK                         _______ _______ _______ _____ _____    ______ ____
ROOT
ATOM      1  C   UNL     1      -2.897  -1.940  -1.536  0.00  0.00    +0.021 A 
ATOM      2  C   UNL     1      -3.500  -0.728  -1.887  0.00  0.00    +0.065 A 
ATOM      3  N   UNL     1      -3.462  -0.609  -3.190  0.00  0.00    -0.168 NA
ATOM      4  N   UNL     1      -2.830  -1.742  -3.719  0.00  0.00    -0.200 N 
ATOM      5  C   UNL     1      -2.485  -2.548  -2.680  0.00  0.00    +0.225 A 
ATOM      6  C   UNL     1      -4.096   0.270  -0.929  0.00  0.00    +0.068 C 
ENDROOT
BRANCH   4   7
ATOM      7  C   UNL     1      -2.593  -1.997  -5.078  0.00  0.00    +0.069 A 
ATOM      8  C   UNL     1      -1.388  -2.558  -5.479  0.00  0.00    +0.031 A 
ATOM      9  C   UNL     1      -1.155  -2.808  -6.817  0.00  0.00    +0.040 A 
ATOM     10  C   UNL     1      -2.124  -2.500  -7.758  0.00  0.00    +0.124 A 
ATOM     11  C   UNL     1      -3.326  -1.941  -7.360  0.00  0.00    +0.040 A 
ATOM     12  C   UNL     1      -3.564  -1.694  -6.022  0.00  0.00    +0.031 A 
ATOM     13  F   UNL     1      -1.894  -2.745  -9.067  0.00  0.00    -0.205 F 
ENDBRANCH   4   7
BRANCH   1  14
ATOM     14  C   UNL     1      -2.727  -2.473  -0.137  0.00  0.00    -0.036 C 
BRANCH  14  15
ATOM     15  N   UNL     1      -1.450  -2.002   0.415  0.00  0.00    +0.384 N 
ATOM     16  H   UNL     1      -0.699  -2.260  -0.208  0.00  0.00    -0.081 HD
BRANCH  15  17
ATOM     17  C   UNL     1      -1.487  -0.540   0.558  0.00  0.00    -0.079 C 
BRANCH  17  19
ATOM     18  C   UNL     1      -0.115   1.492   1.036  0.00  0.00    +0.002 C 
ATOM     19  C   UNL     1      -0.118  -0.038   1.020  0.00  0.00    -0.022 C 
ENDBRANCH  17  19
ENDBRANCH  15  17
BRANCH  15  20
ATOM     20  C   UNL     1      -1.228  -2.617   1.730  0.00  0.00    -0.046 C 
BRANCH  20  21
ATOM     21  C   UNL     1      -1.030  -4.125   1.562  0.00  0.00    +0.102 C 
BRANCH  21  22
ATOM     22  O   UNL     1       0.154  -4.367   0.800  0.00  0.00    -0.393 OA
ATOM     23  H   UNL     1       0.969  -4.085   1.239  0.00  0.00    +0.210 HD
ENDBRANCH  21  22
BRANCH  21  24
ATOM     24  C   UNL     1      -0.895  -4.779   2.938  0.00  0.00    +0.064 C 
BRANCH  24  25
ATOM     25  C   UNL     1      -0.823  -6.276   2.778  0.00  0.00    -0.045 A 
ATOM     26  C   UNL     1      -1.983  -7.028   2.785  0.00  0.00    +0.004 A 
ATOM     27  C   UNL     1      -1.917  -8.401   2.639  0.00  0.00    +0.000 A 
ATOM     28  C   UNL     1      -0.691  -9.021   2.485  0.00  0.00    +0.000 A 
ATOM     29  C   UNL     1       0.468  -8.269   2.477  0.00  0.00    +0.000 A 
ATOM     30  C   UNL     1       0.402  -6.896   2.619  0.00  0.00    +0.004 A 
ENDBRANCH  24  25
ENDBRANCH  21  24
ENDBRANCH  20  21
ENDBRANCH  15  20
ENDBRANCH  14  15
ENDBRANCH   1  14
BRANCH   5  31
ATOM     31  O   UNL     1      -1.848  -3.744  -2.769  0.00  0.00    -0.438 OA
BRANCH  31  32
ATOM     32  C   UNL     1      -2.600  -4.852  -3.000  0.00  0.00    +0.133 A 
ATOM     33  C   UNL     1      -3.960  -4.729  -3.246  0.00  0.00    +0.046 A 
ATOM     34  C   UNL     1      -4.723  -5.856  -3.481  0.00  0.00    +0.006 A 
ATOM     35  C   UNL     1      -4.134  -7.107  -3.472  0.00  0.00    +0.038 A 
ATOM     36  C   UNL     1      -2.777  -7.233  -3.227  0.00  0.00    +0.127 A 
ATOM     37  C   UNL     1      -2.007  -6.106  -2.996  0.00  0.00    +0.084 A 
ATOM     38  F   UNL     1      -2.203  -8.456  -3.218  0.00  0.00    -0.205 F 
ENDBRANCH  31  32
ENDBRANCH   5  31
TORSDOF 12
