REMARK  Name = ZINC16957556
REMARK  5 active torsions:
REMARK  status: ('A' for Active; 'I' for Inactive)
REMARK    1  A    between atoms: C_1  and  O_2
REMARK    2  A    between atoms: O_2  and  C_3
REMARK    3  A    between atoms: C_6  and  C_9
REMARK    4  A    between atoms: C_15  and  C_27
REMARK    5  A    between atoms: C_15  and  O_31
REMARK                            x       y       z     vdW  Elec       q    Type
REMARK                         _______ _______ _______ _____ _____    ______ ____
ROOT
ATOM      1  C   UNL     1      -0.884   3.517   0.028  0.00  0.00    +0.080 A 
ATOM      2  C   UNL     1       0.382   4.032   0.019  0.00  0.00    +0.077 A 
ATOM      3  S   UNL     1       1.352   2.530   0.003  0.00  0.00    -0.058 S 
ATOM      4  C   UNL     1      -0.017   1.381   0.010  0.00  0.00    +0.184 A 
ATOM      5  N   UNL     1      -1.051   2.203   0.018  0.00  0.00    -0.223 NA
ATOM      6  N   UNL     1       0.002  -0.004   0.002  0.00  0.00    -0.160 N 
ATOM      7  C   UNL     1       1.210  -0.864  -0.020  0.00  0.00    +0.259 C 
ATOM      8  C   UNL     1       0.638  -2.176   0.544  0.00  0.00    +0.105 C 
ATOM      9  C   UNL     1       1.138  -3.416  -0.205  0.00  0.00    +0.050 C 
ATOM     10  C   UNL     1      -0.100  -4.286  -0.326  0.00  0.00    -0.038 A 
ATOM     11  C   UNL     1      -0.239  -5.634  -0.577  0.00  0.00    +0.004 A 
ATOM     12  C   UNL     1      -1.484  -6.232  -0.503  0.00  0.00    +0.000 A 
ATOM     13  C   UNL     1      -2.600  -5.480  -0.177  0.00  0.00    +0.001 A 
ATOM     14  C   UNL     1      -2.481  -4.125   0.051  0.00  0.00    +0.010 A 
ATOM     15  C   UNL     1      -1.231  -3.507  -0.048  0.00  0.00    +0.001 A 
ATOM     16  C   UNL     1      -0.823  -2.096   0.084  0.00  0.00    +0.075 C 
ATOM     17  N   UNL     1      -1.116  -0.847   0.007  0.00  0.00    -0.179 NA
ENDROOT
BRANCH   1  21
ATOM     18  C   UNL     1      -4.257   6.108   0.070  0.00  0.00    +0.120 A 
ATOM     19  C   UNL     1      -2.978   6.637  -0.042  0.00  0.00    +0.046 A 
ATOM     20  C   UNL     1      -1.883   5.799  -0.056  0.00  0.00    +0.013 A 
ATOM     21  C   UNL     1      -2.060   4.420   0.043  0.00  0.00    +0.001 A 
ATOM     22  C   UNL     1      -3.346   3.892   0.151  0.00  0.00    +0.013 A 
ATOM     23  C   UNL     1      -4.437   4.736   0.170  0.00  0.00    +0.046 A 
BRANCH  18  25
ATOM     24  C   UNL     1      -6.621   6.325   0.202  0.00  0.00    +0.277 C 
ATOM     25  O   UNL     1      -5.335   6.936   0.084  0.00  0.00    -0.495 OA
ENDBRANCH  18  25
ENDBRANCH   1  21
BRANCH   7  26
ATOM     26  C   UNL     1       1.728  -1.053  -1.447  0.00  0.00    +0.438 C 
ATOM     27  F   UNL     1       2.087   0.189  -1.980  0.00  0.00    -0.166 F 
ATOM     28  F   UNL     1       2.845  -1.895  -1.430  0.00  0.00    -0.166 F 
ATOM     29  F   UNL     1       0.724  -1.626  -2.235  0.00  0.00    -0.166 F 
ENDBRANCH   7  26
BRANCH   7  30
ATOM     30  O   UNL     1       2.231  -0.340   0.831  0.00  0.00    -0.363 OA
ATOM     31  H   UNL     1       2.543   0.539   0.576  0.00  0.00    +0.212 HD
ENDBRANCH   7  30
TORSDOF 4
