REMARK  Name = ZINC30937480
REMARK  7 active torsions:
REMARK  status: ('A' for Active; 'I' for Inactive)
REMARK    1  A    between atoms: C_1  and  C_2
REMARK    2  A    between atoms: C_4  and  O_10
REMARK    3  A    between atoms: C_6  and  C_9
REMARK    4  A    between atoms: O_10  and  C_11
REMARK    5  A    between atoms: C_11  and  C_12
REMARK    6  A    between atoms: N_14  and  N_15
REMARK    7  A    between atoms: C_16  and  C_17
REMARK                            x       y       z     vdW  Elec       q    Type
REMARK                         _______ _______ _______ _____ _____    ______ ____
ROOT
ATOM      1  C   UNL     1      -2.546   4.033   0.036  0.00  0.00    +0.270 C 
ATOM      2  O   UNL     1      -3.498   3.282   0.036  0.00  0.00    -0.270 OA
ATOM      3  N   UNL     1      -2.740   5.367   0.044  0.00  0.00    -0.204 N 
ATOM      4  H   UNL     1      -1.876   6.048   0.044  0.00  0.00    +0.177 HD
ENDROOT
BRANCH   3   5
ATOM      5  N   UNL     1      -4.041   5.886   0.053  0.00  0.00    -0.188 NA
ATOM      6  C   UNL     1      -4.227   7.170   0.061  0.00  0.00    +0.139 C 
BRANCH   6   7
ATOM      7  C   UNL     1      -5.597   7.716   0.070  0.00  0.00    +0.012 A 
ATOM      8  C   UNL     1      -5.801   9.098   0.079  0.00  0.00    +0.062 A 
ATOM      9  C   UNL     1      -7.089   9.603   0.088  0.00  0.00    +0.194 A 
ATOM     10  C   UNL     1      -8.176   8.737   0.088  0.00  0.00    +0.066 A 
ATOM     11  C   UNL     1      -7.977   7.369   0.080  0.00  0.00    +0.035 A 
ATOM     12  C   UNL     1      -6.696   6.853   0.065  0.00  0.00    +0.028 A 
ATOM     13 BR   UNL     1      -6.430   4.981   0.045  0.00  0.00    -0.050 Br
ATOM     14 BR   UNL     1      -9.934   9.434   0.100  0.00  0.00    -0.046 Br
ATOM     15  O   UNL     1      -7.291  10.947   0.097  0.00  0.00    -0.287 OA
ENDBRANCH   6   7
ENDBRANCH   3   5
BRANCH   1  16
ATOM     16  C   UNL     1      -1.146   3.475   0.026  0.00  0.00    +0.326 C 
BRANCH  16  17
ATOM     17  O   UNL     1      -1.202   2.047   0.019  0.00  0.00    -0.483 OA
BRANCH  17  21
ATOM     18  C   UNL     1       1.229  -2.184  -0.021  0.00  0.00    +0.045 C 
ATOM     19  C   UNL     1       1.208  -0.677  -0.013  0.00  0.00    -0.028 A 
ATOM     20  C   UNL     1       0.002  -0.004   0.002  0.00  0.00    +0.050 A 
ATOM     21  C   UNL     1      -0.017   1.383   0.010  0.00  0.00    +0.122 A 
ATOM     22  C   UNL     1       1.176   2.091   0.002  0.00  0.00    +0.050 A 
ATOM     23  C   UNL     1       2.380   1.414  -0.013  0.00  0.00    -0.028 A 
ATOM     24  C   UNL     1       2.397   0.030  -0.021  0.00  0.00    +0.047 A 
ATOM     25 CL   UNL     1       3.911  -0.818  -0.041  0.00  0.00    -0.083 Cl
ATOM     26  C   UNL     1       3.676   2.183  -0.021  0.00  0.00    +0.045 C 
ENDBRANCH  17  21
ENDBRANCH  16  17
ENDBRANCH   1  16
TORSDOF 5
