REMARK  Name = ZINC01372323
REMARK  6 active torsions:
REMARK  status: ('A' for Active; 'I' for Inactive)
REMARK    1  A    between atoms: C_1  and  C_2
REMARK    2  A    between atoms: C_15  and  S_18
REMARK    3  A    between atoms: S_18  and  C_19
REMARK    4  A    between atoms: C_19  and  C_20
REMARK    5  A    between atoms: N_22  and  C_23
REMARK    6  A    between atoms: C_28  and  N_29
REMARK                            x       y       z     vdW  Elec       q    Type
REMARK                         _______ _______ _______ _____ _____    ______ ____
ROOT
ATOM      1  S   UNL     1      -0.872   1.655   1.501  0.00  0.00    -0.076 S 
ENDROOT
BRANCH   1  16
ATOM      2  C   UNL     1      -2.187   2.573   4.151  0.00  0.00    +0.086 C 
ATOM      3  C   UNL     1      -1.107   1.814   4.879  0.00  0.00    +0.115 A 
ATOM      4  N   UNL     1      -1.100   1.808   6.181  0.00  0.00    -0.226 NA
ATOM      5  C   UNL     1      -0.177   1.158   6.885  0.00  0.00    +0.114 A 
ATOM      6  C   UNL     1       0.853   0.425   6.277  0.00  0.00    +0.056 A 
ATOM      7  C   UNL     1       1.772  -0.222   7.141  0.00  0.00    -0.024 A 
ATOM      8  C   UNL     1       1.577  -0.095   8.474  0.00  0.00    -0.004 A 
ATOM      9  S   UNL     1       0.139   0.933   8.618  0.00  0.00    -0.073 S 
ATOM     10  C   UNL     1       2.405  -0.680   9.576  0.00  0.00    +0.043 C 
ATOM     11  C   UNL     1       3.312  -1.764   8.976  0.00  0.00    +0.005 C 
ATOM     12  C   UNL     1       3.982  -1.202   7.718  0.00  0.00    +0.005 C 
ATOM     13  C   UNL     1       2.946  -1.038   6.605  0.00  0.00    +0.037 C 
ATOM     14  C   UNL     1       0.839   0.445   4.798  0.00  0.00    +0.173 A 
ATOM     15  N   UNL     1      -0.158   1.149   4.159  0.00  0.00    -0.258 N 
ATOM     16  C   UNL     1       0.081   0.985   2.823  0.00  0.00    +0.198 A 
ATOM     17  N   UNL     1       1.156   0.238   2.708  0.00  0.00    -0.122 NA
ATOM     18  N   UNL     1       1.604  -0.081   3.873  0.00  0.00    -0.128 NA
ENDBRANCH   1  16
BRANCH   1  19
ATOM     19  C   UNL     1      -0.021   1.072   0.008  0.00  0.00    +0.173 C 
BRANCH  19  20
ATOM     20  C   UNL     1      -0.744   1.582  -1.213  0.00  0.00    +0.228 C 
ATOM     21  O   UNL     1      -1.734   2.270  -1.088  0.00  0.00    -0.275 OA
ATOM     22  N   UNL     1      -0.288   1.272  -2.443  0.00  0.00    -0.283 N 
ATOM     23  H   UNL     1       0.547   0.790  -2.544  0.00  0.00    +0.155 HD
BRANCH  22  24
ATOM     24  C   UNL     1      -1.023   1.647  -3.576  0.00  0.00    +0.055 A 
ATOM     25  C   UNL     1      -2.391   1.853  -3.482  0.00  0.00    +0.025 A 
ATOM     26  C   UNL     1      -3.112   2.228  -4.600  0.00  0.00    +0.002 A 
ATOM     27  C   UNL     1      -2.476   2.388  -5.817  0.00  0.00    +0.002 A 
ATOM     28  C   UNL     1      -1.113   2.179  -5.922  0.00  0.00    +0.025 A 
ATOM     29  C   UNL     1      -0.381   1.808  -4.804  0.00  0.00    +0.051 A 
BRANCH  29  30
ATOM     30  N   UNL     1       0.998   1.596  -4.907  0.00  0.00    -0.328 N 
ATOM     31  C   UNL     1       1.696   2.837  -5.265  0.00  0.00    +0.105 C 
ATOM     32  C   UNL     1       3.208   2.603  -5.227  0.00  0.00    +0.019 C 
ATOM     33  C   UNL     1       3.572   1.489  -6.212  0.00  0.00    +0.003 C 
ATOM     34  C   UNL     1       2.795   0.221  -5.847  0.00  0.00    +0.019 C 
ATOM     35  C   UNL     1       1.295   0.525  -5.867  0.00  0.00    +0.105 C 
ENDBRANCH  29  30
ENDBRANCH  22  24
ENDBRANCH  19  20
ENDBRANCH   1  19
TORSDOF 5
