REMARK  Name = ZINC01978748
REMARK  5 active torsions:
REMARK  status: ('A' for Active; 'I' for Inactive)
REMARK    1  A    between atoms: C_10  and  N_11
REMARK    2  A    between atoms: C_12  and  C_14
REMARK    3  A    between atoms: C_14  and  O_15
REMARK    4  A    between atoms: O_15  and  C_16
REMARK    5  A    between atoms: C_26  and  C_27
REMARK                            x       y       z     vdW  Elec       q    Type
REMARK                         _______ _______ _______ _____ _____    ______ ____
ROOT
ATOM      1  C   UNL     1       1.072   5.966   0.193  0.00  0.00    +0.211 A 
ATOM      2  C   UNL     1      -0.173   5.293   0.287  0.00  0.00    +0.235 A 
ATOM      3  O   UNL     1      -1.225   5.908   0.332  0.00  0.00    -0.283 OA
ATOM      4  C   UNL     1      -0.144   3.818   0.330  0.00  0.00    +0.068 A 
ATOM      5  C   UNL     1      -1.319   3.073   0.424  0.00  0.00    +0.015 A 
ATOM      6  C   UNL     1      -1.251   1.698   0.455  0.00  0.00    +0.001 A 
ATOM      7  C   UNL     1      -0.022   1.056   0.406  0.00  0.00    +0.004 A 
ATOM      8  C   UNL     1       1.147   1.781   0.314  0.00  0.00    +0.047 A 
ATOM      9  C   UNL     1       1.100   3.170   0.275  0.00  0.00    +0.140 A 
ATOM     10  O   UNL     1       2.233   3.897   0.186  0.00  0.00    -0.451 OA
ATOM     11  C   UNL     1       2.225   5.240   0.145  0.00  0.00    +0.181 A 
ENDROOT
BRANCH  11  12
ATOM     12  C   UNL     1       3.511   5.955   0.047  0.00  0.00    +0.021 A 
ATOM     13  C   UNL     1       3.689   6.948  -0.921  0.00  0.00    +0.013 A 
ATOM     14  C   UNL     1       4.893   7.616  -1.005  0.00  0.00    +0.021 A 
ATOM     15  C   UNL     1       5.927   7.298  -0.140  0.00  0.00    +0.041 A 
ATOM     16  C   UNL     1       5.758   6.311   0.818  0.00  0.00    +0.021 A 
ATOM     17  C   UNL     1       4.558   5.639   0.916  0.00  0.00    +0.013 A 
ATOM     18 CL   UNL     1       7.441   8.139  -0.256  0.00  0.00    -0.084 Cl
ENDBRANCH  11  12
BRANCH   1  19
ATOM     19  O   UNL     1       1.115   7.325   0.149  0.00  0.00    -0.476 OA
BRANCH  19  20
ATOM     20  C   UNL     1       1.101   8.015   1.401  0.00  0.00    +0.325 C 
BRANCH  20  22
ATOM     21  N   UNL     1       1.150  10.356   2.198  0.00  0.00    -0.282 N 
ATOM     22  C   UNL     1       1.153   9.501   1.157  0.00  0.00    +0.255 C 
ATOM     23  O   UNL     1       1.199   9.927   0.022  0.00  0.00    -0.272 OA
ATOM     24  H   UNL     1       1.196  10.015   3.105  0.00  0.00    +0.155 HD
BRANCH  21  34
ATOM     25  C   UNL     1       3.056  14.432   4.484  0.00  0.00    +0.001 A 
ATOM     26  C   UNL     1       3.139  13.063   4.728  0.00  0.00    +0.001 A 
ATOM     27  C   UNL     1       2.503  12.168   3.922  0.00  0.00    +0.010 A 
ATOM     28  C   UNL     1       1.748  12.629   2.832  0.00  0.00    +0.003 A 
ATOM     29  C   UNL     1       1.667  14.021   2.580  0.00  0.00    -0.016 A 
ATOM     30  C   UNL     1       2.337  14.915   3.433  0.00  0.00    +0.008 A 
ATOM     31  C   UNL     1       0.916  14.484   1.486  0.00  0.00    +0.008 A 
ATOM     32  C   UNL     1       0.277  13.595   0.676  0.00  0.00    +0.002 A 
ATOM     33  C   UNL     1       0.353  12.226   0.911  0.00  0.00    +0.024 A 
ATOM     34  C   UNL     1       1.080  11.732   1.972  0.00  0.00    +0.041 A 
ENDBRANCH  21  34
ENDBRANCH  20  22
ENDBRANCH  19  20
ENDBRANCH   1  19
TORSDOF 5
