REMARK  Name = ZINC15543924
REMARK  8 active torsions:
REMARK  status: ('A' for Active; 'I' for Inactive)
REMARK    1  A    between atoms: C_1  and  C_2
REMARK    2  A    between atoms: C_2  and  O_3
REMARK    3  A    between atoms: O_3  and  C_4
REMARK    4  A    between atoms: C_4  and  C_6
REMARK    5  A    between atoms: C_10  and  N_11
REMARK    6  A    between atoms: C_12  and  C_14
REMARK    7  A    between atoms: C_14  and  N_67
REMARK    8  A    between atoms: C_17  and  C_20
REMARK                            x       y       z     vdW  Elec       q    Type
REMARK                         _______ _______ _______ _____ _____    ______ ____
ROOT
ATOM      1  N   UNL     1      -1.190   4.653   1.257  0.00  0.00    -0.281 N 
ATOM      2  C   UNL     1       0.126   4.889   1.086  0.00  0.00    +0.201 C 
ATOM      3  O   UNL     1       0.673   5.761   1.726  0.00  0.00    -0.278 OA
ATOM      4  H   UNL     1      -1.627   3.953   0.748  0.00  0.00    +0.155 HD
ENDROOT
BRANCH   1   9
ATOM      5  C   UNL     1      -3.264   5.318   2.475  0.00  0.00    +0.091 A 
ATOM      6  C   UNL     1      -3.789   6.239   3.483  0.00  0.00    -0.021 A 
ATOM      7  C   UNL     1      -2.888   7.091   4.002  0.00  0.00    -0.004 A 
ATOM      8  S   UNL     1      -1.363   6.692   3.184  0.00  0.00    -0.077 S 
ATOM      9  C   UNL     1      -1.917   5.406   2.166  0.00  0.00    +0.086 A 
ATOM     10  C   UNL     1      -3.502   8.005   5.028  0.00  0.00    +0.043 C 
ATOM     11  C   UNL     1      -4.837   7.326   5.405  0.00  0.00    +0.010 C 
ATOM     12  C   UNL     1      -5.146   6.513   4.133  0.00  0.00    +0.037 C 
BRANCH   5  13
ATOM     13  C   UNL     1      -4.131   4.335   1.819  0.00  0.00    +0.342 C 
ATOM     14  O   UNL     1      -4.271   3.229   2.304  0.00  0.00    -0.245 OA
BRANCH  13  15
ATOM     15  O   UNL     1      -4.773   4.658   0.678  0.00  0.00    -0.461 OA
BRANCH  15  17
ATOM     16  C   UNL     1      -6.255   4.181  -1.195  0.00  0.00    +0.048 C 
ATOM     17  C   UNL     1      -5.615   3.635   0.083  0.00  0.00    +0.229 C 
ENDBRANCH  15  17
ENDBRANCH  13  15
ENDBRANCH   5  13
ENDBRANCH   1   9
BRANCH   2  18
ATOM     18  C   UNL     1       0.916   4.070   0.098  0.00  0.00    +0.019 C 
BRANCH  18  24
ATOM     19  C   UNL     1       3.148   3.695  -0.762  0.00  0.00    -0.077 C 
ATOM     20  C   UNL     1       4.590   4.205  -0.716  0.00  0.00    -0.006 C 
ATOM     21  C   UNL     1       4.646   5.616  -1.308  0.00  0.00    +0.072 C 
ATOM     22  C   UNL     1       3.700   6.528  -0.524  0.00  0.00    -0.006 C 
ATOM     23  C   UNL     1       2.283   5.951  -0.575  0.00  0.00    -0.077 C 
ATOM     24  N   UNL     1       2.292   4.603   0.032  0.00  0.00    +0.385 N 
ATOM     25  H   UNL     1       2.671   4.669   0.984  0.00  0.00    -0.081 HD
BRANCH  21  26
ATOM     26  C   UNL     1       6.053   6.147  -1.212  0.00  0.00    +0.219 C 
ATOM     27  O   UNL     1       6.366   6.871  -0.291  0.00  0.00    -0.275 OA
ATOM     28  N   UNL     1       6.964   5.816  -2.149  0.00  0.00    -0.301 N 
ATOM     29  C   UNL     1       8.266   6.442  -2.100  0.00  0.00    +0.108 C 
ATOM     30  C   UNL     1       8.250   7.754  -2.913  0.00  0.00    +0.019 C 
ATOM     31  C   UNL     1       8.174   7.460  -4.353  0.00  0.00    +0.002 C 
ATOM     32  C   UNL     1       6.903   6.733  -4.780  0.00  0.00    +0.002 C 
ATOM     33  C   UNL     1       7.086   5.248  -4.583  0.00  0.00    +0.019 C 
ATOM     34  C   UNL     1       6.588   4.835  -3.186  0.00  0.00    +0.108 C 
ENDBRANCH  21  26
ENDBRANCH  18  24
ENDBRANCH   2  18
TORSDOF 7
