REMARK  Name = ZINC08844405
REMARK  5 active torsions:
REMARK  status: ('A' for Active; 'I' for Inactive)
REMARK    1  A    between atoms: C_9  and  C_28
REMARK    2  A    between atoms: C_10  and  N_12
REMARK    3  A    between atoms: C_13  and  C_15
REMARK    4  A    between atoms: C_15  and  N_58
REMARK    5  A    between atoms: N_18  and  C_21
REMARK                            x       y       z     vdW  Elec       q    Type
REMARK                         _______ _______ _______ _____ _____    ______ ____
ROOT
ATOM      1  N   UNL     1       4.574   4.217   1.589  0.00  0.00    -0.257 N 
ATOM      2  C   UNL     1       3.437   3.501   1.490  0.00  0.00    +0.203 C 
ATOM      3  O   UNL     1       2.362   4.051   1.604  0.00  0.00    -0.277 OA
ATOM      4  H   UNL     1       5.434   3.777   1.498  0.00  0.00    +0.158 HD
ENDROOT
BRANCH   1  14
ATOM      5  C   UNL     1       2.901  10.206   2.640  0.00  0.00    +0.001 A 
ATOM      6  C   UNL     1       1.780   9.396   2.524  0.00  0.00    +0.004 A 
ATOM      7  C   UNL     1       1.911   8.044   2.291  0.00  0.00    +0.047 A 
ATOM      8  C   UNL     1       3.175   7.479   2.170  0.00  0.00    +0.141 A 
ATOM      9  C   UNL     1       4.307   8.298   2.287  0.00  0.00    +0.065 A 
ATOM     10  C   UNL     1       4.162   9.665   2.523  0.00  0.00    +0.015 A 
ATOM     11  C   UNL     1       5.643   7.684   2.157  0.00  0.00    +0.202 A 
ATOM     12  O   UNL     1       6.660   8.350   2.250  0.00  0.00    -0.286 OA
ATOM     13  C   UNL     1       5.696   6.283   1.924  0.00  0.00    +0.087 A 
ATOM     14  C   UNL     1       4.516   5.572   1.821  0.00  0.00    +0.204 A 
ATOM     15  O   UNL     1       3.317   6.156   1.943  0.00  0.00    -0.440 OA
BRANCH  13  16
ATOM     16  C   UNL     1       7.002   5.595   1.789  0.00  0.00    -0.009 A 
ATOM     17  C   UNL     1       7.394   4.648   2.734  0.00  0.00    +0.011 A 
ATOM     18  C   UNL     1       8.608   4.005   2.600  0.00  0.00    +0.039 A 
ATOM     19  C   UNL     1       9.441   4.307   1.535  0.00  0.00    +0.123 A 
ATOM     20  C   UNL     1       9.058   5.252   0.597  0.00  0.00    +0.039 A 
ATOM     21  C   UNL     1       7.843   5.896   0.719  0.00  0.00    +0.011 A 
ATOM     22  F   UNL     1      10.630   3.679   1.412  0.00  0.00    -0.205 F 
ENDBRANCH  13  16
ENDBRANCH   1  14
BRANCH   2  23
ATOM     23  C   UNL     1       3.501   2.017   1.237  0.00  0.00    +0.019 C 
BRANCH  23  29
ATOM     24  C   UNL     1       1.419   1.992  -0.001  0.00  0.00    -0.059 C 
ATOM     25  C   UNL     1      -0.018   1.465   0.010  0.00  0.00    +0.086 C 
ATOM     26  N   UNL     1       0.002  -0.004   0.002  0.00  0.00    -0.331 N 
ATOM     27  C   UNL     1       0.721  -0.525   1.173  0.00  0.00    +0.086 C 
ATOM     28  C   UNL     1       2.158   0.003   1.162  0.00  0.00    -0.059 C 
ATOM     29  N   UNL     1       2.123   1.480   1.193  0.00  0.00    +0.387 N 
ATOM     30  H   UNL     1       1.620   1.785   2.034  0.00  0.00    -0.081 HD
BRANCH  26  31
ATOM     31  C   UNL     1      -1.295  -0.522  -0.061  0.00  0.00    +0.065 A 
ATOM     32  C   UNL     1      -2.209  -0.234   0.943  0.00  0.00    +0.026 A 
ATOM     33  C   UNL     1      -3.491  -0.744   0.876  0.00  0.00    +0.002 A 
ATOM     34  C   UNL     1      -3.863  -1.550  -0.185  0.00  0.00    +0.003 A 
ATOM     35  C   UNL     1      -2.954  -1.844  -1.185  0.00  0.00    +0.040 A 
ATOM     36  C   UNL     1      -1.671  -1.333  -1.127  0.00  0.00    +0.144 A 
ATOM     37  F   UNL     1      -0.783  -1.622  -2.103  0.00  0.00    -0.204 F 
ENDBRANCH  26  31
ENDBRANCH  23  29
ENDBRANCH   2  23
TORSDOF 5
