REMARK  Name = ZINC39581883
REMARK  11 active torsions:
REMARK  status: ('A' for Active; 'I' for Inactive)
REMARK    1  A    between atoms: C_1  and  C_2
REMARK    2  A    between atoms: C_2  and  C_4
REMARK    3  A    between atoms: C_2  and  O_18
REMARK    4  A    between atoms: N_6  and  C_7
REMARK    5  A    between atoms: C_9  and  N_15
REMARK    6  A    between atoms: C_12  and  O_13
REMARK    7  A    between atoms: O_13  and  C_14
REMARK    8  A    between atoms: O_18  and  C_19
REMARK    9  A    between atoms: C_19  and  C_21
REMARK   10  A    between atoms: C_21  and  O_22
REMARK   11  A    between atoms: O_22  and  C_23
REMARK                            x       y       z     vdW  Elec       q    Type
REMARK                         _______ _______ _______ _____ _____    ______ ____
ROOT
ATOM      1  C   UNL     1       0.704  -0.497  -1.238  0.00  0.00    +0.258 C 
ATOM      2  O   UNL     1       1.752  -1.101  -1.143  0.00  0.00    -0.271 OA
ATOM      3  N   UNL     1       0.176  -0.250  -2.453  0.00  0.00    -0.279 N 
ATOM      4  H   UNL     1      -0.692   0.176  -2.527  0.00  0.00    +0.155 HD
ENDROOT
BRANCH   3   5
ATOM      5  C   UNL     1       0.882  -0.609  -3.609  0.00  0.00    +0.078 A 
ATOM      6  C   UNL     1       1.665  -1.754  -3.619  0.00  0.00    +0.059 A 
ATOM      7  C   UNL     1       2.361  -2.105  -4.761  0.00  0.00    +0.128 A 
ATOM      8  C   UNL     1       2.278  -1.318  -5.895  0.00  0.00    +0.036 A 
ATOM      9  C   UNL     1       1.499  -0.176  -5.892  0.00  0.00    +0.050 A 
ATOM     10  C   UNL     1       0.794   0.180  -4.754  0.00  0.00    +0.141 A 
BRANCH   7  11
ATOM     11  N   UNL     1       3.196  -3.327  -4.769  0.00  0.00    +0.056 N 
ATOM     12  O   UNL     1       3.270  -4.016  -3.778  0.00  0.00    -0.126 OA
ATOM     13  O   UNL     1       3.805  -3.636  -5.767  0.00  0.00    -0.126 OA
ENDBRANCH   7  11
BRANCH  10  14
ATOM     14  O   UNL     1       0.024   1.301  -4.752  0.00  0.00    -0.493 OA
ATOM     15  C   UNL     1      -0.018   2.061  -5.961  0.00  0.00    +0.277 C 
ENDBRANCH  10  14
ENDBRANCH   3   5
BRANCH   1  17
ATOM     16  C   UNL     1      -0.033   1.508   0.022  0.00  0.00    +0.062 C 
ATOM     17  C   UNL     1      -0.007  -0.022   0.003  0.00  0.00    +0.259 C 
BRANCH  17  18
ATOM     18  O   UNL     1       0.682  -0.501   1.160  0.00  0.00    -0.450 OA
BRANCH  18  19
ATOM     19  C   UNL     1      -0.056  -0.730   2.257  0.00  0.00    +0.346 C 
ATOM     20  O   UNL     1      -1.248  -0.531   2.236  0.00  0.00    -0.247 OA
BRANCH  19  21
ATOM     21  C   UNL     1       0.601  -1.236   3.515  0.00  0.00    +0.349 C 
BRANCH  21  22
ATOM     22  O   UNL     1      -0.386  -1.401   4.535  0.00  0.00    -0.481 OA
BRANCH  22  23
ATOM     23  C   UNL     1       0.044  -1.854   5.742  0.00  0.00    +0.122 A 
ATOM     24  C   UNL     1       1.389  -2.129   5.942  0.00  0.00    +0.046 A 
ATOM     25  C   UNL     1       1.824  -2.590   7.170  0.00  0.00    +0.005 A 
ATOM     26  C   UNL     1       0.920  -2.777   8.199  0.00  0.00    +0.015 A 
ATOM     27  C   UNL     1      -0.422  -2.504   8.003  0.00  0.00    +0.021 A 
ATOM     28  C   UNL     1      -0.861  -2.037   6.778  0.00  0.00    +0.061 A 
ATOM     29 BR   UNL     1      -1.655  -2.762   9.413  0.00  0.00    -0.050 Br
ENDBRANCH  22  23
ENDBRANCH  21  22
ENDBRANCH  19  21
ENDBRANCH  18  19
ENDBRANCH  17  18
ENDBRANCH   1  17
TORSDOF 9
