REMARK  Name = ZINC06301584
REMARK  10 active torsions:
REMARK  status: ('A' for Active; 'I' for Inactive)
REMARK    1  A    between atoms: C_1  and  C_2
REMARK    2  A    between atoms: C_4  and  C_39
REMARK    3  A    between atoms: C_7  and  C_14
REMARK    4  A    between atoms: C_14  and  C_16
REMARK    5  A    between atoms: C_14  and  N_70
REMARK    6  A    between atoms: N_20  and  C_21
REMARK    7  A    between atoms: C_26  and  C_27
REMARK    8  A    between atoms: C_26  and  N_70
REMARK    9  A    between atoms: C_33  and  C_34
REMARK   10  A    between atoms: C_33  and  N_70
REMARK                            x       y       z     vdW  Elec       q    Type
REMARK                         _______ _______ _______ _____ _____    ______ ____
ROOT
ATOM      1  C   UNL     1      -2.911   5.808  -0.293  0.00  0.00    +0.040 C 
ENDROOT
BRANCH   1   8
ATOM      2  C   UNL     1       4.660   4.108  -2.142  0.00  0.00    +0.044 C 
ATOM      3  C   UNL     1       3.178   4.225  -1.893  0.00  0.00    -0.048 A 
ATOM      4  C   UNL     1       2.329   3.210  -2.312  0.00  0.00    +0.007 A 
ATOM      5  C   UNL     1       0.982   3.298  -2.101  0.00  0.00    -0.041 A 
ATOM      6  C   UNL     1       0.455   4.416  -1.446  0.00  0.00    +0.002 A 
ATOM      7  C   UNL     1      -0.983   4.540  -1.198  0.00  0.00    +0.018 A 
ATOM      8  C   UNL     1      -1.437   5.649  -0.564  0.00  0.00    +0.011 A 
ATOM      9  C   UNL     1      -0.534   6.655  -0.156  0.00  0.00    +0.251 A 
ATOM     10  O   UNL     1      -0.964   7.644   0.413  0.00  0.00    -0.268 OA
ATOM     11  N   UNL     1       0.787   6.549  -0.379  0.00  0.00    -0.322 N 
ATOM     12  H   UNL     1       1.380   7.259  -0.085  0.00  0.00    +0.169 HD
ATOM     13  C   UNL     1       1.313   5.447  -1.019  0.00  0.00    +0.050 A 
ATOM     14  C   UNL     1       2.680   5.338  -1.250  0.00  0.00    +0.029 A 
ATOM     15  C   UNL     1       0.069   2.193  -2.566  0.00  0.00    +0.044 C 
ENDBRANCH   1   8
BRANCH   1  16
ATOM     16  C   UNL     1      -3.150   5.821   1.195  0.00  0.00    +0.143 A 
ATOM     17  N   UNL     1      -2.896   6.808   2.020  0.00  0.00    -0.115 NA
ATOM     18  N   UNL     1      -3.238   6.434   3.205  0.00  0.00    -0.023 NA
ATOM     19  N   UNL     1      -3.703   5.234   3.157  0.00  0.00    -0.044 NA
ATOM     20  N   UNL     1      -3.670   4.824   1.934  0.00  0.00    -0.227 N 
BRANCH  20  21
ATOM     21  C   UNL     1      -4.112   3.516   1.443  0.00  0.00    +0.111 C 
ATOM     22  C   UNL     1      -5.597   3.293   1.797  0.00  0.00    +0.027 C 
ATOM     23  C   UNL     1      -5.682   1.786   2.143  0.00  0.00    +0.002 C 
ATOM     24  C   UNL     1      -4.351   1.531   2.894  0.00  0.00    +0.002 C 
ATOM     25  C   UNL     1      -3.320   2.396   2.140  0.00  0.00    +0.027 C 
ENDBRANCH  20  21
ENDBRANCH   1  16
BRANCH   1  26
ATOM     26  N   UNL     1      -3.371   7.094  -0.859  0.00  0.00    +0.397 N 
ATOM     27  H   UNL     1      -2.988   7.862  -0.297  0.00  0.00    -0.079 HD
BRANCH  26  28
ATOM     28  C   UNL     1      -2.893   7.232  -2.251  0.00  0.00    -0.041 C 
BRANCH  28  29
ATOM     29  C   UNL     1      -3.051   8.669  -2.676  0.00  0.00    -0.064 A 
ATOM     30  C   UNL     1      -4.210   9.079  -3.309  0.00  0.00    +0.002 A 
ATOM     31  C   UNL     1      -4.357  10.398  -3.695  0.00  0.00    +0.000 A 
ATOM     32  C   UNL     1      -3.342  11.305  -3.457  0.00  0.00    +0.000 A 
ATOM     33  C   UNL     1      -2.181  10.894  -2.829  0.00  0.00    +0.000 A 
ATOM     34  C   UNL     1      -2.036   9.576  -2.439  0.00  0.00    +0.002 A 
ENDBRANCH  28  29
ENDBRANCH  26  28
BRANCH  26  35
ATOM     35  C   UNL     1      -4.847   7.162  -0.823  0.00  0.00    -0.001 C 
BRANCH  35  36
ATOM     36  C   UNL     1      -5.279   7.534   0.572  0.00  0.00    +0.089 A 
ATOM     37  C   UNL     1      -5.316   8.779   1.078  0.00  0.00    +0.042 A 
ATOM     38  C   UNL     1      -5.778   8.667   2.409  0.00  0.00    +0.041 A 
ATOM     39  C   UNL     1      -5.995   7.359   2.638  0.00  0.00    +0.195 A 
ATOM     40  O   UNL     1      -5.696   6.678   1.519  0.00  0.00    -0.470 OA
ENDBRANCH  35  36
ENDBRANCH  26  35
ENDBRANCH   1  26
TORSDOF 8
