REMARK  Name = ZINC36266215
REMARK  3 active torsions:
REMARK  status: ('A' for Active; 'I' for Inactive)
REMARK    1  A    between atoms: C_1  and  C_2
REMARK    2  A    between atoms: N_12  and  S_13
REMARK    3  A    between atoms: S_13  and  C_16
REMARK                            x       y       z     vdW  Elec       q    Type
REMARK                         _______ _______ _______ _____ _____    ______ ____
ROOT
ATOM      1  S   UNL     1       0.251  -0.441   2.779  0.00  0.00    +0.064 S 
ATOM      2  O   UNL     1       1.428  -0.508   3.571  0.00  0.00    -0.153 OA
ATOM      3  O   UNL     1      -0.669   0.639   2.871  0.00  0.00    -0.153 OA
ENDROOT
BRANCH   1  12
ATOM      4  C   UNL     1      -0.019   1.526   0.010  0.00  0.00    +0.026 C 
ATOM      5  C   UNL     1       0.002  -0.004   0.002  0.00  0.00    +0.077 C 
ATOM      6  C   UNL     1       0.779  -0.523  -1.251  0.00  0.00    +0.023 C 
ATOM      7  C   UNL     1       1.489  -1.733  -0.664  0.00  0.00    -0.010 C 
ATOM      8  C   UNL     1       2.818  -2.229  -1.184  0.00  0.00    -0.078 C 
ATOM      9  N   UNL     1       3.598  -2.610   0.032  0.00  0.00    +0.380 N 
ATOM     10  C   UNL     1       2.813  -2.178   1.235  0.00  0.00    -0.062 C 
ATOM     11  C   UNL     1       1.948  -1.073   0.694  0.00  0.00    +0.065 C 
ATOM     12  N   UNL     1       0.739  -0.513   1.198  0.00  0.00    -0.172 NA
ATOM     13  H   UNL     1       3.732  -3.610   0.052  0.00  0.00    -0.086 HD
ATOM     14  H   UNL     1       4.494  -2.145   0.023  0.00  0.00    -0.086 HD
ENDBRANCH   1  12
BRANCH   1  15
ATOM     15  C   UNL     1      -0.664  -1.910   3.110  0.00  0.00    +0.142 A 
ATOM     16  C   UNL     1      -2.030  -1.937   2.897  0.00  0.00    +0.070 A 
ATOM     17  C   UNL     1      -2.748  -3.091   3.157  0.00  0.00    +0.037 A 
ATOM     18  C   UNL     1      -2.099  -4.218   3.628  0.00  0.00    +0.021 A 
ATOM     19  C   UNL     1      -0.732  -4.191   3.841  0.00  0.00    +0.037 A 
ATOM     20  C   UNL     1      -0.014  -3.039   3.576  0.00  0.00    +0.070 A 
ATOM     21 CL   UNL     1       1.702  -3.007   3.836  0.00  0.00    -0.081 Cl
ATOM     22 BR   UNL     1      -3.080  -5.795   3.983  0.00  0.00    -0.050 Br
ATOM     23 CL   UNL     1      -2.845  -0.523   2.306  0.00  0.00    -0.081 Cl
ENDBRANCH   1  15
TORSDOF 2
