REMARK  Name = ZINC38777181
REMARK  9 active torsions:
REMARK  status: ('A' for Active; 'I' for Inactive)
REMARK    1  A    between atoms: C_1  and  C_2
REMARK    2  A    between atoms: C_2  and  C_3
REMARK    3  A    between atoms: C_2  and  C_4
REMARK    4  A    between atoms: C_6  and  C_10
REMARK    5  A    between atoms: C_14  and  C_17
REMARK    6  A    between atoms: C_20  and  C_23
REMARK    7  A    between atoms: C_23  and  C_24
REMARK    8  A    between atoms: C_23  and  C_25
REMARK    9  A    between atoms: C_23  and  C_26
REMARK                            x       y       z     vdW  Elec       q    Type
REMARK                         _______ _______ _______ _____ _____    ______ ____
ROOT
ATOM      1  C   UNL     1      -3.607  -3.034  -0.220  0.00  0.00    +0.232 C 
ATOM      2  N   UNL     1      -5.012  -3.266   0.207  0.00  0.00    -0.225 NA
ATOM      3  N   UNL     1      -5.231  -4.669  -0.185  0.00  0.00    -0.223 NA
ATOM      4  C   UNL     1      -4.472  -4.802  -1.449  0.00  0.00    +0.233 C 
ATOM      5  O   UNL     1      -3.472  -3.770  -1.450  0.00  0.00    -0.335 OA
ATOM      6  H   UNL     1      -5.110  -3.150   1.205  0.00  0.00    +0.143 HD
ATOM      7  H   UNL     1      -4.878  -5.301   0.518  0.00  0.00    +0.144 HD
ENDROOT
BRANCH   4   8
ATOM      8  C   UNL     1      -3.815  -6.157  -1.514  0.00  0.00    -0.003 A 
ATOM      9  C   UNL     1      -2.520  -6.275  -1.983  0.00  0.00    +0.008 A 
ATOM     10  C   UNL     1      -1.917  -7.518  -2.042  0.00  0.00    +0.004 A 
ATOM     11  C   UNL     1      -2.609  -8.642  -1.631  0.00  0.00    -0.042 A 
ATOM     12  C   UNL     1      -3.903  -8.523  -1.161  0.00  0.00    +0.004 A 
ATOM     13  C   UNL     1      -4.505  -7.280  -1.098  0.00  0.00    +0.008 A 
BRANCH  11  14
ATOM     14  C   UNL     1      -1.952  -9.996  -1.696  0.00  0.00    -0.013 C 
ATOM     15  C   UNL     1      -0.695  -9.996  -0.824  0.00  0.00    +0.015 C 
ATOM     16  C   UNL     1      -2.926 -11.061  -1.188  0.00  0.00    +0.015 C 
ATOM     17  C   UNL     1      -1.567 -10.307  -3.144  0.00  0.00    +0.015 C 
ENDBRANCH  11  14
ENDBRANCH   4   8
BRANCH   1  20
ATOM     18  C   UNL     1      -1.412  -0.526   0.013  0.00  0.00    +0.064 C 
ATOM     19  C   UNL     1      -1.940  -1.303  -0.935  0.00  0.00    +0.030 C 
ATOM     20  C   UNL     1      -3.362  -1.543  -0.460  0.00  0.00    +0.197 C 
ATOM     21  N   UNL     1      -3.420  -0.792   0.805  0.00  0.00    -0.176 NA
ATOM     22  N   UNL     1      -2.315  -0.275   0.986  0.00  0.00    -0.158 NA
BRANCH  18  24
ATOM     23  C   UNL     1      -0.019   1.526   0.010  0.00  0.00    +0.014 C 
ATOM     24  C   UNL     1       0.002  -0.004   0.002  0.00  0.00    +0.033 C 
ATOM     25  C   UNL     1       0.742  -0.511   1.242  0.00  0.00    +0.014 C 
ENDBRANCH  18  24
ENDBRANCH   1  20
TORSDOF 4
