REMARK  Name = ZINC11909744
REMARK  9 active torsions:
REMARK  status: ('A' for Active; 'I' for Inactive)
REMARK    1  A    between atoms: C_4  and  C_7
REMARK    2  A    between atoms: C_7  and  O_8
REMARK    3  A    between atoms: O_8  and  C_9
REMARK    4  A    between atoms: C_13  and  C_15
REMARK    5  A    between atoms: C_15  and  N_73
REMARK    6  A    between atoms: C_21  and  C_25
REMARK    7  A    between atoms: C_25  and  C_26
REMARK    8  A    between atoms: C_26  and  N_27
REMARK    9  A    between atoms: C_28  and  C_30
REMARK                            x       y       z     vdW  Elec       q    Type
REMARK                         _______ _______ _______ _____ _____    ______ ____
ROOT
ATOM      1  C   UNL     1       2.088   1.645  -1.202  0.00  0.00    -0.071 C 
ATOM      2  C   UNL     1       1.127   1.570  -2.393  0.00  0.00    +0.058 C 
ATOM      3  C   UNL     1       0.525   0.189  -2.447  0.00  0.00    +0.132 A 
ATOM      4  N   UNL     1       0.377  -0.573  -3.491  0.00  0.00    -0.134 NA
ATOM      5  N   UNL     1      -0.210  -1.667  -3.144  0.00  0.00    -0.134 NA
ATOM      6  C   UNL     1      -0.455  -1.648  -1.861  0.00  0.00    +0.135 A 
ATOM      7  N   UNL     1       0.016  -0.477  -1.382  0.00  0.00    -0.317 N 
ATOM      8  C   UNL     1       0.002  -0.004   0.002  0.00  0.00    +0.106 C 
ATOM      9  C   UNL     1      -0.019   1.527   0.010  0.00  0.00    -0.056 C 
ATOM     10  N   UNL     1       1.372   2.036   0.032  0.00  0.00    +0.384 N 
ATOM     11  H   UNL     1       1.859   1.630   0.840  0.00  0.00    -0.081 HD
ENDROOT
BRANCH  10  12
ATOM     12  C   UNL     1       1.369   3.504   0.165  0.00  0.00    -0.043 C 
BRANCH  12  17
ATOM     13  C   UNL     1       4.585   4.479   1.893  0.00  0.00    +0.121 A 
ATOM     14  C   UNL     1       5.383   4.825   0.812  0.00  0.00    +0.045 A 
ATOM     15  C   UNL     1       4.879   4.742  -0.472  0.00  0.00    +0.004 A 
ATOM     16  C   UNL     1       3.581   4.314  -0.680  0.00  0.00    +0.002 A 
ATOM     17  C   UNL     1       2.783   3.969   0.396  0.00  0.00    -0.060 A 
ATOM     18  C   UNL     1       3.281   4.056   1.682  0.00  0.00    +0.047 A 
BRANCH  13  19
ATOM     19  O   UNL     1       5.078   4.560   3.156  0.00  0.00    -0.487 OA
BRANCH  19  20
ATOM     20  C   UNL     1       6.427   5.009   3.299  0.00  0.00    +0.264 C 
BRANCH  20  24
ATOM     21  C   UNL     1       7.475   5.080   7.439  0.00  0.00    +0.000 A 
ATOM     22  C   UNL     1       7.690   3.938   6.691  0.00  0.00    +0.000 A 
ATOM     23  C   UNL     1       7.351   3.914   5.352  0.00  0.00    +0.007 A 
ATOM     24  C   UNL     1       6.797   5.034   4.759  0.00  0.00    -0.010 A 
ATOM     25  C   UNL     1       6.587   6.178   5.506  0.00  0.00    +0.007 A 
ATOM     26  C   UNL     1       6.921   6.200   6.847  0.00  0.00    +0.000 A 
ENDBRANCH  20  24
ENDBRANCH  19  20
ENDBRANCH  13  19
ENDBRANCH  12  17
ENDBRANCH  10  12
BRANCH   6  27
ATOM     27  C   UNL     1      -1.135  -2.732  -1.064  0.00  0.00    +0.095 C 
BRANCH  27  28
ATOM     28  C   UNL     1      -2.644  -2.481  -1.046  0.00  0.00    +0.112 C 
BRANCH  28  29
ATOM     29  N   UNL     1      -3.305  -3.534  -0.272  0.00  0.00    -0.315 N 
ATOM     30  C   UNL     1      -4.644  -3.518  -0.120  0.00  0.00    +0.216 C 
ATOM     31  O   UNL     1      -5.302  -2.633  -0.624  0.00  0.00    -0.276 OA
ATOM     32  H   UNL     1      -2.780  -4.242   0.132  0.00  0.00    +0.149 HD
BRANCH  30  33
ATOM     33  C   UNL     1      -5.325  -4.602   0.677  0.00  0.00    +0.075 C 
ATOM     34  C   UNL     1      -5.041  -5.961   0.035  0.00  0.00    +0.013 C 
ATOM     35  C   UNL     1      -5.732  -7.061   0.844  0.00  0.00    +0.001 C 
ATOM     36  C   UNL     1      -7.241  -6.810   0.862  0.00  0.00    +0.000 C 
ATOM     37  C   UNL     1      -7.524  -5.450   1.503  0.00  0.00    +0.001 C 
ATOM     38  C   UNL     1      -6.834  -4.351   0.694  0.00  0.00    +0.013 C 
ENDBRANCH  30  33
ENDBRANCH  28  29
ENDBRANCH  27  28
ENDBRANCH   6  27
TORSDOF 9
