REMARK  Name = ZINC13298248
REMARK  10 active torsions:
REMARK  status: ('A' for Active; 'I' for Inactive)
REMARK    1  A    between atoms: C_1  and  C_2
REMARK    2  A    between atoms: C_7  and  C_39
REMARK    3  A    between atoms: C_8  and  C_34
REMARK    4  A    between atoms: C_10  and  C_32
REMARK    5  A    between atoms: C_10  and  C_33
REMARK    6  A    between atoms: C_11  and  O_31
REMARK    7  A    between atoms: C_23  and  C_25
REMARK    8  A    between atoms: C_34  and  C_35
REMARK    9  A    between atoms: C_35  and  O_37
REMARK   10  A    between atoms: O_37  and  C_38
REMARK                            x       y       z     vdW  Elec       q    Type
REMARK                         _______ _______ _______ _____ _____    ______ ____
ROOT
ATOM      1  C   UNL     1       0.321   2.054   0.445  0.00  0.00    +0.020 C 
ATOM      2  C   UNL     1       0.367   0.654  -0.172  0.00  0.00    +0.033 C 
ATOM      3  C   UNL     1       1.319   0.675  -1.372  0.00  0.00    +0.015 C 
ATOM      4  C   UNL     1       2.729   1.015  -0.890  0.00  0.00    +0.008 C 
ATOM      5  C   UNL     1       3.253  -0.098   0.024  0.00  0.00    +0.039 C 
ATOM      6  C   UNL     1       4.724   0.150   0.309  0.00  0.00    +0.036 C 
ATOM      7  C   UNL     1       5.512  -1.126   0.593  0.00  0.00    +0.024 C 
ATOM      8  C   UNL     1       4.975  -1.812   1.822  0.00  0.00    +0.024 C 
ATOM      9  C   UNL     1       3.972  -1.062   2.650  0.00  0.00    +0.183 C 
ATOM     10  C   UNL     1       4.024   0.463   2.717  0.00  0.00    +0.118 C 
ATOM     11  C   UNL     1       4.888   0.988   1.571  0.00  0.00    +0.148 C 
ATOM     12  O   UNL     1       5.613   1.951   1.656  0.00  0.00    -0.296 OA
ATOM     13  C   UNL     1       2.594   0.901   2.242  0.00  0.00    +0.056 C 
ATOM     14  C   UNL     1       2.362  -0.241   1.240  0.00  0.00    +0.099 C 
ATOM     15  C   UNL     1       0.899  -0.309   0.853  0.00  0.00    -0.021 C 
ATOM     16  C   UNL     1       0.116  -1.212   1.441  0.00  0.00    +0.094 C 
ATOM     17  C   UNL     1      -1.312  -1.276   1.080  0.00  0.00    +0.333 C 
ATOM     18  O   UNL     1      -1.992  -2.249   1.338  0.00  0.00    -0.246 OA
ATOM     19  O   UNL     1      -1.828  -0.193   0.445  0.00  0.00    -0.453 OA
ATOM     20  C   UNL     1      -1.027   0.284  -0.653  0.00  0.00    +0.220 C 
ATOM     21  O   UNL     1       2.693  -1.399   2.030  0.00  0.00    -0.336 OA
ATOM     22  C   UNL     1       4.329  -3.127   1.381  0.00  0.00    +0.016 C 
ATOM     23  C   UNL     1       6.162  -2.158   2.723  0.00  0.00    +0.016 C 
ATOM     24  C   UNL     1       5.356   0.883  -0.876  0.00  0.00    +0.020 C 
ENDROOT
BRANCH  20  25
ATOM     25  C   UNL     1      -1.683   1.502  -1.252  0.00  0.00    +0.031 A 
ATOM     26  C   UNL     1      -1.799   1.806  -2.627  0.00  0.00    +0.048 A 
ATOM     27  C   UNL     1      -2.451   2.980  -2.714  0.00  0.00    +0.195 A 
ATOM     28  O   UNL     1      -2.734   3.400  -1.470  0.00  0.00    -0.471 OA
ATOM     29  C   UNL     1      -2.276   2.506  -0.580  0.00  0.00    +0.202 A 
ENDBRANCH  20  25
BRANCH   9  30
ATOM     30  O   UNL     1       3.990  -1.574   3.983  0.00  0.00    -0.363 OA
ATOM     31  H   UNL     1       3.367  -1.139   4.581  0.00  0.00    +0.213 HD
ENDBRANCH   9  30
BRANCH   7  32
ATOM     32  C   UNL     1       6.984  -0.772   0.818  0.00  0.00    +0.125 C 
BRANCH  32  33
ATOM     33  C   UNL     1       7.652  -0.534  -0.512  0.00  0.00    +0.307 C 
ATOM     34  O   UNL     1       7.072  -0.806  -1.537  0.00  0.00    -0.251 OA
BRANCH  33  35
ATOM     35  O   UNL     1       8.891  -0.019  -0.558  0.00  0.00    -0.468 OA
ATOM     36  C   UNL     1       9.463   0.181  -1.852  0.00  0.00    +0.280 C 
ENDBRANCH  33  35
ENDBRANCH  32  33
ENDBRANCH   7  32
TORSDOF 5
