REMARK  Name = ZINC16688541
REMARK  10 active torsions:
REMARK  status: ('A' for Active; 'I' for Inactive)
REMARK    1  A    between atoms: C_1  and  C_2
REMARK    2  A    between atoms: C_2  and  O_3
REMARK    3  A    between atoms: O_3  and  C_4
REMARK    4  A    between atoms: C_6  and  C_21
REMARK    5  A    between atoms: C_9  and  O_10
REMARK    6  A    between atoms: O_10  and  C_11
REMARK    7  A    between atoms: C_11  and  C_12
REMARK    8  A    between atoms: C_21  and  N_51
REMARK    9  A    between atoms: C_22  and  C_23
REMARK   10  A    between atoms: C_22  and  N_51
REMARK                            x       y       z     vdW  Elec       q    Type
REMARK                         _______ _______ _______ _____ _____    ______ ____
ROOT
ATOM      1  C   UNL     1      -8.809   0.845   0.569  0.00  0.00    +0.163 A 
ATOM      2  C   UNL     1      -7.571   0.468   0.072  0.00  0.00    +0.051 A 
ATOM      3  C   UNL     1      -7.020   1.146  -0.999  0.00  0.00    -0.060 A 
ATOM      4  C   UNL     1      -7.706   2.195  -1.584  0.00  0.00    +0.021 A 
ATOM      5  C   UNL     1      -8.944   2.572  -1.097  0.00  0.00    +0.063 A 
ATOM      6  C   UNL     1      -9.500   1.900  -0.020  0.00  0.00    +0.176 A 
ATOM      7 BR   UNL     1      -9.879   4.006  -1.901  0.00  0.00    -0.046 Br
ENDROOT
BRANCH   1   8
ATOM      8  O   UNL     1      -9.350   0.182   1.626  0.00  0.00    -0.489 OA
BRANCH   8  10
ATOM      9  C   UNL     1      -9.349  -1.511   3.350  0.00  0.00    +0.048 C 
ATOM     10  C   UNL     1      -8.585  -0.890   2.179  0.00  0.00    +0.226 C 
ENDBRANCH   8  10
ENDBRANCH   1   8
BRANCH   6  11
ATOM     11  O   UNL     1     -10.717   2.269   0.460  0.00  0.00    -0.483 OA
BRANCH  11  12
ATOM     12  C   UNL     1     -11.861   1.630  -0.111  0.00  0.00    +0.266 C 
BRANCH  12  13
ATOM     13  C   UNL     1     -13.111   2.163   0.540  0.00  0.00    +0.008 A 
ATOM     14  C   UNL     1     -13.019   3.125   1.529  0.00  0.00    +0.010 A 
ATOM     15  C   UNL     1     -14.166   3.614   2.127  0.00  0.00    +0.020 A 
ATOM     16  C   UNL     1     -15.406   3.142   1.735  0.00  0.00    +0.042 A 
ATOM     17  C   UNL     1     -15.498   2.179   0.746  0.00  0.00    +0.040 A 
ATOM     18  C   UNL     1     -14.351   1.694   0.145  0.00  0.00    +0.049 A 
ATOM     19 CL   UNL     1     -14.466   0.491  -1.101  0.00  0.00    -0.083 Cl
ATOM     20 CL   UNL     1     -16.846   3.756   2.486  0.00  0.00    -0.083 Cl
ENDBRANCH  12  13
ENDBRANCH  11  12
ENDBRANCH   6  11
BRANCH   3  21
ATOM     21  C   UNL     1      -5.671   0.738  -1.533  0.00  0.00    -0.047 C 
BRANCH  21  22
ATOM     22  N   UNL     1      -4.622   1.500  -0.830  0.00  0.00    +0.383 N 
ATOM     23  H   UNL     1      -4.674   1.299   0.176  0.00  0.00    -0.085 HD
ATOM     24  H   UNL     1      -4.770   2.504  -0.986  0.00  0.00    -0.085 HD
BRANCH  22  25
ATOM     25  C   UNL     1      -3.289   1.120  -1.334  0.00  0.00    -0.050 C 
BRANCH  25  26
ATOM     26  C   UNL     1      -2.223   1.924  -0.587  0.00  0.00    +0.101 C 
ATOM     27  C   UNL     1      -0.833   1.634  -1.185  0.00  0.00    +0.032 C 
ATOM     28  C   UNL     1      -0.013   1.086   0.008  0.00  0.00    +0.030 C 
ATOM     29  C   UNL     1      -0.810   1.621   1.224  0.00  0.00    +0.160 C 
ATOM     30  O   UNL     1      -2.186   1.524   0.793  0.00  0.00    -0.378 OA
ENDBRANCH  25  26
ENDBRANCH  22  25
ENDBRANCH  21  22
ENDBRANCH   3  21
TORSDOF 9
