REMARK  Name = ZINC33812545
REMARK  14 active torsions:
REMARK  status: ('A' for Active; 'I' for Inactive)
REMARK    1  A    between atoms: C_1  and  C_2
REMARK    2  A    between atoms: C_2  and  C_3
REMARK    3  A    between atoms: C_3  and  C_4
REMARK    4  A    between atoms: C_4  and  C_5
REMARK    5  A    between atoms: C_5  and  N_6
REMARK    6  A    between atoms: C_10  and  C_11
REMARK    7  A    between atoms: C_12  and  C_31
REMARK    8  A    between atoms: C_13  and  C_29
REMARK    9  A    between atoms: N_16  and  C_26
REMARK   10  A    between atoms: C_17  and  N_18
REMARK   11  A    between atoms: N_21  and  C_24
REMARK   12  A    between atoms: C_24  and  C_25
REMARK   13  A    between atoms: C_26  and  C_27
REMARK   14  A    between atoms: C_27  and  C_28
REMARK                            x       y       z     vdW  Elec       q    Type
REMARK                         _______ _______ _______ _____ _____    ______ ____
ROOT
ATOM      1  C   UNL     1      -2.920  -6.541  -3.535  0.00  0.00    +0.019 A 
ATOM      2  C   UNL     1      -2.954  -5.138  -3.611  0.00  0.00    -0.017 A 
ATOM      3  C   UNL     1      -2.973  -4.532  -4.864  0.00  0.00    +0.120 A 
ATOM      4  C   UNL     1      -2.957  -5.340  -6.029  0.00  0.00    +0.270 A 
ATOM      5  O   UNL     1      -2.973  -4.816  -7.129  0.00  0.00    -0.266 OA
ATOM      6  N   UNL     1      -2.924  -6.682  -5.930  0.00  0.00    -0.295 N 
ATOM      7  C   UNL     1      -2.899  -7.296  -4.720  0.00  0.00    +0.112 A 
ATOM      8  C   UNL     1      -2.971  -4.304  -2.356  0.00  0.00    +0.046 C 
ENDROOT
BRANCH   1  13
ATOM      9  N   UNL     1       0.319  -6.405  -0.681  0.00  0.00    -0.255 N 
ATOM     10  C   UNL     1      -0.580  -6.406  -1.651  0.00  0.00    +0.258 C 
ATOM     11  O   UNL     1      -0.354  -5.859  -2.715  0.00  0.00    -0.269 OA
ATOM     12  C   UNL     1      -1.823  -7.067  -1.412  0.00  0.00    +0.077 C 
ATOM     13  C   UNL     1      -2.899  -7.210  -2.233  0.00  0.00    +0.032 C 
ATOM     14  S   UNL     1      -1.581  -7.656   0.258  0.00  0.00    -0.061 S 
ATOM     15  C   UNL     1       0.070  -7.017   0.498  0.00  0.00    +0.121 C 
ATOM     16  S   UNL     1       1.081  -7.145   1.874  0.00  0.00    -0.027 S 
BRANCH   9  17
ATOM     17  C   UNL     1       1.606  -5.737  -0.890  0.00  0.00    +0.115 C 
BRANCH  17  18
ATOM     18  C   UNL     1       2.607  -6.731  -1.482  0.00  0.00    +0.019 C 
BRANCH  18  19
ATOM     19  C   UNL     1       3.950  -6.032  -1.700  0.00  0.00    +0.001 C 
BRANCH  19  21
ATOM     20  C   UNL     1       6.295  -6.328  -2.511  0.00  0.00    +0.004 C 
ATOM     21  C   UNL     1       4.951  -7.027  -2.293  0.00  0.00    -0.003 C 
ENDBRANCH  19  21
ENDBRANCH  18  19
ENDBRANCH  17  18
ENDBRANCH   9  17
ENDBRANCH   1  13
BRANCH   7  22
ATOM     22  N   UNL     1      -2.860  -8.658  -4.653  0.00  0.00    -0.320 N 
ATOM     23  C   UNL     1      -1.577  -9.376  -4.603  0.00  0.00    +0.088 C 
ATOM     24  C   UNL     1      -1.619 -10.366  -3.434  0.00  0.00    -0.060 C 
ATOM     25  N   UNL     1      -2.795 -11.235  -3.571  0.00  0.00    +0.382 N 
ATOM     26  C   UNL     1      -4.023 -10.437  -3.458  0.00  0.00    -0.060 C 
ATOM     27  C   UNL     1      -4.099  -9.450  -4.623  0.00  0.00    +0.088 C 
ATOM     28  H   UNL     1      -2.772 -11.689  -4.472  0.00  0.00    -0.082 HD
BRANCH  25  29
ATOM     29  C   UNL     1      -2.776 -12.253  -2.513  0.00  0.00    -0.082 C 
ATOM     30  C   UNL     1      -3.930 -13.234  -2.727  0.00  0.00    -0.017 C 
ENDBRANCH  25  29
ENDBRANCH   7  22
BRANCH   3  31
ATOM     31  C   UNL     1      -3.009  -3.105  -4.975  0.00  0.00    +0.105 C 
ATOM     32  N   UNL     1      -3.038  -1.973  -5.064  0.00  0.00    -0.191 NA
ENDBRANCH   3  31
BRANCH   6  33
ATOM     33  C   UNL     1      -2.908  -7.493  -7.150  0.00  0.00    +0.126 C 
BRANCH  33  34
ATOM     34  C   UNL     1      -1.471  -7.620  -7.660  0.00  0.00    +0.018 C 
ATOM     35  C   UNL     1      -1.455  -8.467  -8.933  0.00  0.00    +0.005 C 
ENDBRANCH  33  34
ENDBRANCH   6  33
TORSDOF 10
