REMARK  Name = ZINC39302076
REMARK  4 active torsions:
REMARK  status: ('A' for Active; 'I' for Inactive)
REMARK    1  A    between atoms: C_4  and  C_7
REMARK    2  A    between atoms: C_9  and  C_30
REMARK    3  A    between atoms: N_10  and  C_12
REMARK    4  A    between atoms: C_17  and  C_18
REMARK                            x       y       z     vdW  Elec       q    Type
REMARK                         _______ _______ _______ _____ _____    ______ ____
ROOT
ATOM      1  C   UNL     1       7.123  -1.615  -0.604  0.00  0.00    +0.078 A 
ATOM      2  C   UNL     1       7.723  -2.866  -0.652  0.00  0.00    +0.028 A 
ATOM      3  C   UNL     1       9.082  -2.972  -0.869  0.00  0.00    +0.002 A 
ATOM      4  C   UNL     1       9.857  -1.836  -1.039  0.00  0.00    +0.001 A 
ATOM      5  C   UNL     1       9.277  -0.586  -0.993  0.00  0.00    +0.015 A 
ATOM      6  C   UNL     1       7.902  -0.463  -0.780  0.00  0.00    +0.062 A 
ENDROOT
BRANCH   6   7
ATOM      7  C   UNL     1       7.275   0.872  -0.736  0.00  0.00    +0.249 C 
ATOM      8  O   UNL     1       6.372   1.094   0.048  0.00  0.00    -0.270 OA
ATOM      9  N   UNL     1       7.702   1.845  -1.565  0.00  0.00    -0.296 N 
ATOM     10  C   UNL     1       8.830   1.737  -2.510  0.00  0.00    +0.109 C 
ATOM     11  C   UNL     1       8.541   2.799  -3.603  0.00  0.00    +0.039 C 
ATOM     12  C   UNL     1       7.898   3.923  -2.775  0.00  0.00    +0.088 C 
ATOM     13  C   UNL     1       7.116   3.192  -1.682  0.00  0.00    +0.126 C 
ATOM     14  C   UNL     1       8.966   4.859  -2.187  0.00  0.00    +0.061 C 
ATOM     15  C   UNL     1       8.842   6.068  -3.157  0.00  0.00    +0.233 C 
ATOM     16  O   UNL     1       7.433   6.082  -3.476  0.00  0.00    -0.464 OA
ATOM     17  C   UNL     1       7.016   4.803  -3.614  0.00  0.00    +0.315 C 
ATOM     18  O   UNL     1       6.090   4.431  -4.296  0.00  0.00    -0.250 OA
ENDBRANCH   6   7
BRANCH   1  22
ATOM     19  C   UNL     1       3.614  -1.087  -0.743  0.00  0.00    +0.094 A 
ATOM     20  C   UNL     1       3.764  -1.572   0.568  0.00  0.00    +0.058 A 
ATOM     21  C   UNL     1       5.089  -1.825   0.769  0.00  0.00    +0.075 A 
ATOM     22  N   UNL     1       5.749  -1.505  -0.386  0.00  0.00    -0.231 N 
ATOM     23  N   UNL     1       4.801  -1.053  -1.312  0.00  0.00    -0.166 NA
BRANCH  19  27
ATOM     24  C   UNL     1      -0.053   0.060  -2.566  0.00  0.00    +0.000 A 
ATOM     25  C   UNL     1       1.128   0.146  -3.281  0.00  0.00    +0.001 A 
ATOM     26  C   UNL     1       2.321  -0.224  -2.694  0.00  0.00    +0.010 A 
ATOM     27  C   UNL     1       2.334  -0.686  -1.379  0.00  0.00    +0.002 A 
ATOM     28  C   UNL     1       1.141  -0.771  -0.664  0.00  0.00    +0.010 A 
ATOM     29  C   UNL     1      -0.046  -0.398  -1.261  0.00  0.00    +0.001 A 
ENDBRANCH  19  27
BRANCH  21  30
ATOM     30  C   UNL     1       5.701  -2.348   2.010  0.00  0.00    +0.000 A 
ATOM     31  C   UNL     1       7.069  -2.191   2.236  0.00  0.00    +0.010 A 
ATOM     32  C   UNL     1       7.634  -2.681   3.396  0.00  0.00    +0.001 A 
ATOM     33  C   UNL     1       6.847  -3.326   4.333  0.00  0.00    +0.000 A 
ATOM     34  C   UNL     1       5.490  -3.485   4.114  0.00  0.00    +0.001 A 
ATOM     35  C   UNL     1       4.912  -2.995   2.961  0.00  0.00    +0.010 A 
ENDBRANCH  21  30
ENDBRANCH   1  22
TORSDOF 4
