REMARK  Name = ZINC16958395
REMARK  10 active torsions:
REMARK  status: ('A' for Active; 'I' for Inactive)
REMARK    1  A    between atoms: C_1  and  C_2
REMARK    2  A    between atoms: C_2  and  O_3
REMARK    3  A    between atoms: O_3  and  C_4
REMARK    4  A    between atoms: C_4  and  C_6
REMARK    5  A    between atoms: C_6  and  C_28
REMARK    6  A    between atoms: C_7  and  N_8
REMARK    7  A    between atoms: N_11  and  C_12
REMARK    8  A    between atoms: C_15  and  S_18
REMARK    9  A    between atoms: S_18  and  N_21
REMARK   10  A    between atoms: C_28  and  C_30
REMARK                            x       y       z     vdW  Elec       q    Type
REMARK                         _______ _______ _______ _____ _____    ______ ____
ROOT
ATOM      1  N   UNL     1      -4.045  -4.184   0.509  0.00  0.00    -0.232 NA
ATOM      2  C   UNL     1      -3.993  -5.506   0.360  0.00  0.00    +0.169 C 
ATOM      3  S   UNL     1      -2.656  -6.347   0.869  0.00  0.00    -0.014 SA
ATOM      4  N   UNL     1      -5.040  -6.169  -0.212  0.00  0.00    -0.293 N 
ATOM      5  H   UNL     1      -5.783  -5.671  -0.588  0.00  0.00    +0.154 HD
ENDROOT
BRANCH   4   6
ATOM      6  C   UNL     1      -5.042  -7.567  -0.255  0.00  0.00    +0.033 A 
ATOM      7  C   UNL     1      -4.586  -8.298   0.835  0.00  0.00    +0.025 A 
ATOM      8  C   UNL     1      -4.589  -9.678   0.789  0.00  0.00    +0.030 A 
ATOM      9  C   UNL     1      -5.045 -10.332  -0.341  0.00  0.00    +0.109 A 
ATOM     10  C   UNL     1      -5.499  -9.608  -1.428  0.00  0.00    +0.030 A 
ATOM     11  C   UNL     1      -5.504  -8.227  -1.386  0.00  0.00    +0.025 A 
BRANCH   9  12
ATOM     12  S   UNL     1      -5.047 -12.094  -0.396  0.00  0.00    +0.073 S 
ATOM     13  O   UNL     1      -5.011 -12.457  -1.769  0.00  0.00    -0.150 OA
ATOM     14  O   UNL     1      -4.066 -12.530   0.534  0.00  0.00    -0.150 OA
BRANCH  12  15
ATOM     15  N   UNL     1      -6.511 -12.600   0.190  0.00  0.00    -0.199 N 
ATOM     16  C   UNL     1      -7.679 -12.296  -0.501  0.00  0.00    +0.138 A 
ATOM     17  C   UNL     1      -8.906 -12.720  -0.001  0.00  0.00    +0.045 A 
ATOM     18  C   UNL     1     -10.059 -12.411  -0.699  0.00  0.00    +0.005 A 
ATOM     19  C   UNL     1      -9.947 -11.686  -1.878  0.00  0.00    +0.020 A 
ATOM     20  C   UNL     1      -8.697 -11.298  -2.316  0.00  0.00    +0.113 A 
ATOM     21  N   UNL     1      -7.613 -11.602  -1.627  0.00  0.00    -0.239 NA
ATOM     22  H   UNL     1      -6.555 -13.108   1.014  0.00  0.00    +0.175 HD
ENDBRANCH  12  15
ENDBRANCH   9  12
ENDBRANCH   4   6
BRANCH   1  24
ATOM     23  C   UNL     1      -3.082  -2.152   1.220  0.00  0.00    +0.124 C 
ATOM     24  C   UNL     1      -3.028  -3.540   1.064  0.00  0.00    +0.132 C 
BRANCH  23  25
ATOM     25  C   UNL     1      -1.960  -1.440   1.833  0.00  0.00    +0.344 C 
ATOM     26  O   UNL     1      -1.013  -2.063   2.275  0.00  0.00    -0.245 OA
BRANCH  25  27
ATOM     27  O   UNL     1      -1.975  -0.093   1.908  0.00  0.00    -0.461 OA
BRANCH  27  29
ATOM     28  C   UNL     1      -1.045   2.047   2.534  0.00  0.00    +0.048 C 
ATOM     29  C   UNL     1      -0.800   0.542   2.415  0.00  0.00    +0.229 C 
ENDBRANCH  27  29
ENDBRANCH  25  27
ENDBRANCH  23  25
BRANCH  23  30
ATOM     30  C   UNL     1      -4.261  -1.411   0.772  0.00  0.00    +0.201 C 
ATOM     31  O   UNL     1      -5.327  -1.561   1.340  0.00  0.00    -0.286 OA
BRANCH  30  32
ATOM     32  C   UNL     1      -4.157  -0.478  -0.372  0.00  0.00    +0.023 A 
ATOM     33  C   UNL     1      -2.971  -0.395  -1.103  0.00  0.00    +0.012 A 
ATOM     34  C   UNL     1      -2.881   0.477  -2.168  0.00  0.00    +0.001 A 
ATOM     35  C   UNL     1      -3.963   1.266  -2.514  0.00  0.00    +0.000 A 
ATOM     36  C   UNL     1      -5.142   1.188  -1.794  0.00  0.00    +0.001 A 
ATOM     37  C   UNL     1      -5.247   0.317  -0.729  0.00  0.00    +0.012 A 
ENDBRANCH  30  32
ENDBRANCH  23  30
ENDBRANCH   1  24
TORSDOF 9
