REMARK  Name = ZINC08765916
REMARK  14 active torsions:
REMARK  status: ('A' for Active; 'I' for Inactive)
REMARK    1  A    between atoms: C_1  and  C_2
REMARK    2  A    between atoms: C_2  and  C_3
REMARK    3  A    between atoms: C_2  and  C_4
REMARK    4  A    between atoms: C_2  and  C_5
REMARK    5  A    between atoms: C_7  and  C_16
REMARK    6  A    between atoms: C_9  and  C_12
REMARK    7  A    between atoms: C_10  and  O_11
REMARK    8  A    between atoms: C_12  and  C_13
REMARK    9  A    between atoms: C_12  and  C_14
REMARK   10  A    between atoms: C_12  and  C_15
REMARK   11  A    between atoms: N_17  and  N_18
REMARK   12  A    between atoms: C_19  and  C_21
REMARK   13  A    between atoms: C_21  and  S_22
REMARK   14  A    between atoms: S_22  and  C_23
REMARK                            x       y       z     vdW  Elec       q    Type
REMARK                         _______ _______ _______ _____ _____    ______ ____
ROOT
ATOM      1  C   UNL     1      -9.100   7.328   0.086  0.00  0.00    +0.138 C 
ATOM      2  N   UNL     1      -8.666   6.105   0.077  0.00  0.00    -0.188 NA
ENDROOT
BRANCH   1   5
ATOM      3  C   UNL     1     -12.374   9.159   0.111  0.00  0.00    +0.000 A 
ATOM      4  C   UNL     1     -11.018   8.913   0.104  0.00  0.00    +0.017 A 
ATOM      5  C   UNL     1     -10.549   7.597   0.094  0.00  0.00    -0.005 A 
ATOM      6  C   UNL     1     -11.459   6.536   0.087  0.00  0.00    +0.017 A 
ATOM      7  C   UNL     1     -12.812   6.791   0.100  0.00  0.00    +0.000 A 
ATOM      8  C   UNL     1     -13.274   8.101   0.109  0.00  0.00    +0.124 A 
BRANCH   3  10
ATOM      9  C   UNL     1     -11.694  11.544   0.121  0.00  0.00    +0.015 C 
ATOM     10  C   UNL     1     -12.881  10.578   0.121  0.00  0.00    -0.009 C 
ATOM     11  C   UNL     1     -13.737  10.823  -1.123  0.00  0.00    +0.015 C 
ATOM     12  C   UNL     1     -13.726  10.809   1.376  0.00  0.00    +0.015 C 
ENDBRANCH   3  10
BRANCH   7  13
ATOM     13  C   UNL     1     -13.794   5.648   0.096  0.00  0.00    -0.009 C 
ATOM     14  C   UNL     1     -13.032   4.321   0.085  0.00  0.00    +0.015 C 
ATOM     15  C   UNL     1     -14.669   5.723   1.349  0.00  0.00    +0.015 C 
ATOM     16  C   UNL     1     -14.678   5.738  -1.149  0.00  0.00    +0.015 C 
ENDBRANCH   7  13
BRANCH   8  17
ATOM     17  O   UNL     1     -14.610   8.349   0.116  0.00  0.00    -0.506 OA
ATOM     18  H   UNL     1     -15.000   8.425  -0.765  0.00  0.00    +0.292 HD
ENDBRANCH   8  17
ENDBRANCH   1   5
BRANCH   2  19
ATOM     19  N   UNL     1      -7.289   5.850   0.069  0.00  0.00    -0.206 N 
ATOM     20  C   UNL     1      -6.839   4.579   0.060  0.00  0.00    +0.242 C 
ATOM     21  O   UNL     1      -7.627   3.657   0.059  0.00  0.00    -0.273 OA
ATOM     22  H   UNL     1      -6.659   6.587   0.070  0.00  0.00    +0.177 HD
BRANCH  20  23
ATOM     23  C   UNL     1      -5.357   4.305   0.051  0.00  0.00    +0.174 C 
BRANCH  23  24
ATOM     24  S   UNL     1      -5.075   2.517   0.040  0.00  0.00    -0.078 S 
BRANCH  24  25
ATOM     25  C   UNL     1      -3.313   2.485   0.031  0.00  0.00    +0.168 A 
ATOM     26  N   UNL     1      -2.548   1.353   0.021  0.00  0.00    -0.333 N 
ATOM     27  H   UNL     1      -2.883   0.411   0.018  0.00  0.00    +0.168 HD
ATOM     28  C   UNL     1      -1.222   1.754   0.017  0.00  0.00    +0.067 A 
ATOM     29  C   UNL     1      -0.013   1.076   0.008  0.00  0.00    +0.028 A 
ATOM     30  C   UNL     1       1.172   1.783   0.000  0.00  0.00    +0.002 A 
ATOM     31  C   UNL     1       1.162   3.170   0.008  0.00  0.00    +0.002 A 
ATOM     32  C   UNL     1      -0.030   3.860   0.022  0.00  0.00    +0.030 A 
ATOM     33  C   UNL     1      -1.238   3.159   0.030  0.00  0.00    +0.090 A 
ATOM     34  N   UNL     1      -2.541   3.544   0.044  0.00  0.00    -0.222 NA
ENDBRANCH  24  25
ENDBRANCH  23  24
ENDBRANCH  20  23
ENDBRANCH   2  19
TORSDOF 8
