REMARK  Name = ZINC08784512
REMARK  7 active torsions:
REMARK  status: ('A' for Active; 'I' for Inactive)
REMARK    1  A    between atoms: C_1  and  C_2
REMARK    2  A    between atoms: C_5  and  N_8
REMARK    3  A    between atoms: C_9  and  C_29
REMARK    4  A    between atoms: C_12  and  S_13
REMARK    5  A    between atoms: S_13  and  C_14
REMARK    6  A    between atoms: C_14  and  C_16
REMARK    7  A    between atoms: C_14  and  C_17
REMARK                            x       y       z     vdW  Elec       q    Type
REMARK                         _______ _______ _______ _____ _____    ______ ____
ROOT
ATOM      1  N   UNL     1       2.961  -5.578   1.168  0.00  0.00    -0.270 N 
ATOM      2  C   UNL     1       2.183  -6.712   1.088  0.00  0.00    +0.169 A 
ATOM      3  N   UNL     1       1.070  -6.373   0.479  0.00  0.00    -0.128 NA
ATOM      4  N   UNL     1       1.095  -5.123   0.181  0.00  0.00    -0.122 NA
ATOM      5  C   UNL     1       2.229  -4.587   0.573  0.00  0.00    +0.197 A 
ENDROOT
BRANCH   1  10
ATOM      6  C   UNL     1       8.123  -5.114   3.480  0.00  0.00    +0.044 C 
ATOM      7  C   UNL     1       6.753  -5.237   2.866  0.00  0.00    -0.050 A 
ATOM      8  C   UNL     1       5.672  -4.612   3.461  0.00  0.00    +0.005 A 
ATOM      9  C   UNL     1       4.414  -4.723   2.900  0.00  0.00    +0.026 A 
ATOM     10  C   UNL     1       4.236  -5.463   1.739  0.00  0.00    +0.051 A 
ATOM     11  C   UNL     1       5.323  -6.093   1.147  0.00  0.00    +0.026 A 
ATOM     12  C   UNL     1       6.579  -5.975   1.710  0.00  0.00    +0.005 A 
ENDBRANCH   1  10
BRANCH   2  13
ATOM     13  C   UNL     1       2.535  -8.056   1.593  0.00  0.00    +0.020 A 
ATOM     14  C   UNL     1       1.841  -9.179   1.139  0.00  0.00    +0.011 A 
ATOM     15  C   UNL     1       2.178 -10.431   1.611  0.00  0.00    +0.001 A 
ATOM     16  C   UNL     1       3.192 -10.574   2.540  0.00  0.00    +0.000 A 
ATOM     17  C   UNL     1       3.880  -9.464   2.998  0.00  0.00    +0.001 A 
ATOM     18  C   UNL     1       3.558  -8.207   2.531  0.00  0.00    +0.011 A 
ENDBRANCH   2  13
BRANCH   5  19
ATOM     19  S   UNL     1       2.712  -2.904   0.376  0.00  0.00    -0.075 S 
BRANCH  19  20
ATOM     20  C   UNL     1       1.252  -2.255  -0.474  0.00  0.00    +0.117 C 
ATOM     21  C   UNL     1       1.127  -2.916  -1.849  0.00  0.00    +0.027 C 
BRANCH  20  22
ATOM     22  C   UNL     1       1.391  -0.764  -0.644  0.00  0.00    +0.124 A 
ATOM     23  N   UNL     1       2.641  -0.232  -0.665  0.00  0.00    -0.309 N 
ATOM     24  H   UNL     1       3.412  -0.812  -0.572  0.00  0.00    +0.170 HD
ATOM     25  C   UNL     1       2.820   1.101  -0.816  0.00  0.00    +0.259 A 
ATOM     26  O   UNL     1       3.933   1.592  -0.836  0.00  0.00    -0.267 OA
ATOM     27  C   UNL     1       1.615   1.934  -0.953  0.00  0.00    +0.065 A 
ATOM     28  C   UNL     1       1.690   3.317  -1.113  0.00  0.00    +0.015 A 
ATOM     29  C   UNL     1       0.529   4.049  -1.236  0.00  0.00    +0.001 A 
ATOM     30  C   UNL     1      -0.709   3.421  -1.204  0.00  0.00    +0.002 A 
ATOM     31  C   UNL     1      -0.804   2.057  -1.042  0.00  0.00    +0.028 A 
ATOM     32  C   UNL     1       0.358   1.292  -0.919  0.00  0.00    +0.078 A 
ATOM     33  N   UNL     1       0.311  -0.054  -0.763  0.00  0.00    -0.233 NA
ENDBRANCH  20  22
ENDBRANCH  19  20
ENDBRANCH   5  19
TORSDOF 5
