REMARK  Name = ZINC67195189
REMARK  7 active torsions:
REMARK  status: ('A' for Active; 'I' for Inactive)
REMARK    1  A    between atoms: C_1  and  N_2
REMARK    2  A    between atoms: N_2  and  S_3
REMARK    3  A    between atoms: S_3  and  C_6
REMARK    4  A    between atoms: C_9  and  N_14
REMARK    5  A    between atoms: C_11  and  O_12
REMARK    6  A    between atoms: O_12  and  C_13
REMARK    7  A    between atoms: C_15  and  C_17
REMARK                            x       y       z     vdW  Elec       q    Type
REMARK                         _______ _______ _______ _____ _____    ______ ____
ROOT
ATOM      1  C   UNL     1      -2.231  -0.502  -1.514  0.00  0.00    +0.147 A 
ATOM      2  C   UNL     1      -2.292  -1.460  -2.509  0.00  0.00    +0.034 A 
ATOM      3  C   UNL     1      -2.944  -1.186  -3.696  0.00  0.00    +0.025 A 
ATOM      4  C   UNL     1      -3.540   0.054  -3.892  0.00  0.00    +0.037 A 
ATOM      5  C   UNL     1      -3.480   1.016  -2.893  0.00  0.00    +0.071 A 
ATOM      6  C   UNL     1      -2.830   0.736  -1.702  0.00  0.00    +0.148 A 
ENDROOT
BRANCH   4   7
ATOM      7  N   UNL     1      -4.200   0.331  -5.093  0.00  0.00    -0.281 N 
ATOM      8  C   UNL     1      -4.848  -0.652  -5.749  0.00  0.00    +0.255 C 
ATOM      9  O   UNL     1      -4.941  -1.758  -5.249  0.00  0.00    -0.269 OA
ATOM     10  H   UNL     1      -4.191   1.232  -5.455  0.00  0.00    +0.155 HD
BRANCH   8  11
ATOM     11  C   UNL     1      -5.439  -0.389  -7.064  0.00  0.00    +0.075 A 
ATOM     12  C   UNL     1      -6.142  -1.246  -7.891  0.00  0.00    +0.024 A 
ATOM     13  C   UNL     1      -6.594  -0.725  -9.094  0.00  0.00    -0.036 A 
ATOM     14  C   UNL     1      -6.300   0.583  -9.344  0.00  0.00    -0.006 A 
ATOM     15  S   UNL     1      -5.449   1.121  -8.011  0.00  0.00    -0.088 S 
ATOM     16  C   UNL     1      -6.673   1.370 -10.566  0.00  0.00    +0.043 C 
ATOM     17  C   UNL     1      -7.109   0.387 -11.661  0.00  0.00    +0.005 C 
ATOM     18  C   UNL     1      -8.106  -0.609 -11.062  0.00  0.00    +0.005 C 
ATOM     19  C   UNL     1      -7.382  -1.555 -10.104  0.00  0.00    +0.036 C 
ENDBRANCH   8  11
ENDBRANCH   4   7
BRANCH   1  20
ATOM     20  S   UNL     1      -1.398  -0.856  -0.002  0.00  0.00    +0.062 S 
ATOM     21  O   UNL     1      -0.876  -2.172  -0.124  0.00  0.00    -0.153 OA
ATOM     22  O   UNL     1      -2.282  -0.481   1.046  0.00  0.00    -0.153 OA
BRANCH  20  24
ATOM     23  C   UNL     1      -0.304   1.609   0.198  0.00  0.00    +0.127 C 
ATOM     24  N   UNL     1      -0.096   0.163   0.090  0.00  0.00    -0.193 NA
ATOM     25  H   UNL     1       0.804  -0.197   0.072  0.00  0.00    +0.148 HD
ENDBRANCH  20  24
ENDBRANCH   1  20
BRANCH   6  26
ATOM     26  O   UNL     1      -2.774   1.674  -0.721  0.00  0.00    -0.493 OA
ATOM     27  C   UNL     1      -3.412   2.926  -0.983  0.00  0.00    +0.277 C 
ENDBRANCH   6  26
TORSDOF 5
