REMARK  Name = ZINC59385871
REMARK  9 active torsions:
REMARK  status: ('A' for Active; 'I' for Inactive)
REMARK    1  A    between atoms: C_1  and  C_2
REMARK    2  A    between atoms: C_3  and  C_18
REMARK    3  A    between atoms: C_4  and  C_10
REMARK    4  A    between atoms: C_15  and  O_16
REMARK    5  A    between atoms: O_16  and  C_17
REMARK    6  A    between atoms: N_20  and  N_21
REMARK    7  A    between atoms: C_22  and  C_23
REMARK    8  A    between atoms: C_26  and  O_30
REMARK    9  A    between atoms: C_28  and  O_29
REMARK                            x       y       z     vdW  Elec       q    Type
REMARK                         _______ _______ _______ _____ _____    ______ ____
ROOT
ATOM      1  C   UNL     1      -0.417   1.585  -0.302  0.00  0.00    +0.061 C 
ATOM      2  C   UNL     1      -0.238   0.096  -0.154  0.00  0.00    +0.019 C 
ATOM      3  C   UNL     1      -1.324  -0.704  -0.133  0.00  0.00    +0.057 C 
ATOM      4  C   UNL     1      -1.100  -2.195   0.017  0.00  0.00    +0.145 C 
ATOM      5  N   UNL     1       0.296  -2.652   0.129  0.00  0.00    -0.288 N 
ATOM      6  C   UNL     1       1.278  -1.729   0.091  0.00  0.00    +0.304 C 
ATOM      7  O   UNL     1       2.433  -2.096   0.183  0.00  0.00    -0.252 OA
ATOM      8  N   UNL     1       1.022  -0.422  -0.048  0.00  0.00    -0.273 N 
ATOM      9  H   UNL     1       0.503  -3.594   0.227  0.00  0.00    +0.151 HD
ATOM     10  H   UNL     1       1.773   0.191  -0.072  0.00  0.00    +0.156 HD
ENDROOT
BRANCH   4  11
ATOM     11  C   UNL     1      -1.838  -2.655   1.248  0.00  0.00    +0.019 A 
ATOM     12  C   UNL     1      -2.233  -1.735   2.201  0.00  0.00    +0.009 A 
ATOM     13  C   UNL     1      -2.910  -2.156   3.330  0.00  0.00    +0.001 A 
ATOM     14  C   UNL     1      -3.194  -3.498   3.509  0.00  0.00    +0.004 A 
ATOM     15  C   UNL     1      -2.802  -4.421   2.559  0.00  0.00    +0.046 A 
ATOM     16  C   UNL     1      -2.127  -4.000   1.422  0.00  0.00    +0.125 A 
BRANCH  16  17
ATOM     17  O   UNL     1      -1.745  -4.905   0.483  0.00  0.00    -0.495 OA
ATOM     18  C   UNL     1      -2.172  -6.256   0.672  0.00  0.00    +0.277 C 
ENDBRANCH  16  17
ENDBRANCH   4  11
BRANCH   3  19
ATOM     19  C   UNL     1      -2.631  -0.168  -0.247  0.00  0.00    +0.263 C 
ATOM     20  O   UNL     1      -2.795   1.039  -0.258  0.00  0.00    -0.269 OA
ATOM     21  N   UNL     1      -3.692  -0.994  -0.344  0.00  0.00    -0.203 N 
ATOM     22  H   UNL     1      -3.569  -1.953  -0.264  0.00  0.00    +0.178 HD
BRANCH  21  23
ATOM     23  N   UNL     1      -4.972  -0.467  -0.561  0.00  0.00    -0.187 NA
ATOM     24  C   UNL     1      -6.006  -1.252  -0.557  0.00  0.00    +0.142 C 
BRANCH  24  25
ATOM     25  C   UNL     1      -7.337  -0.719  -0.894  0.00  0.00    +0.036 A 
ATOM     26  C   UNL     1      -8.453  -1.560  -0.885  0.00  0.00    +0.016 A 
ATOM     27  C   UNL     1      -9.696  -1.056  -1.201  0.00  0.00    +0.046 A 
ATOM     28  C   UNL     1      -9.845   0.286  -1.528  0.00  0.00    +0.120 A 
ATOM     29  C   UNL     1      -8.743   1.129  -1.540  0.00  0.00    +0.091 A 
ATOM     30  C   UNL     1      -7.490   0.637  -1.219  0.00  0.00    +0.129 A 
BRANCH  30  31
ATOM     31  O   UNL     1      -6.412   1.462  -1.224  0.00  0.00    -0.506 OA
ATOM     32  H   UNL     1      -5.960   1.513  -2.078  0.00  0.00    +0.292 HD
ENDBRANCH  30  31
BRANCH  28  33
ATOM     33  O   UNL     1     -11.074   0.774  -1.839  0.00  0.00    -0.507 OA
ATOM     34  H   UNL     1     -11.568   1.108  -1.078  0.00  0.00    +0.292 HD
ENDBRANCH  28  33
ENDBRANCH  24  25
ENDBRANCH  21  23
ENDBRANCH   3  19
TORSDOF 7
