REMARK  Name = ZINC05217081
REMARK  6 active torsions:
REMARK  status: ('A' for Active; 'I' for Inactive)
REMARK    1  A    between atoms: C_1  and  C_2
REMARK    2  A    between atoms: C_2  and  O_3
REMARK    3  A    between atoms: O_3  and  C_4
REMARK    4  A    between atoms: C_6  and  C_11
REMARK    5  A    between atoms: C_9  and  O_10
REMARK    6  A    between atoms: N_17  and  C_18
REMARK                            x       y       z     vdW  Elec       q    Type
REMARK                         _______ _______ _______ _____ _____    ______ ____
ROOT
ATOM      1  C   UNL     1      -6.871   3.031  -2.784  0.00  0.00    +0.028 C 
ATOM      2  C   UNL     1      -5.711   2.937  -2.085  0.00  0.00    +0.078 C 
ATOM      3  C   UNL     1      -4.589   1.994  -2.254  0.00  0.00    +0.256 C 
ATOM      4  O   UNL     1      -4.605   1.136  -3.117  0.00  0.00    -0.269 OA
ATOM      5  N   UNL     1      -3.566   2.125  -1.427  0.00  0.00    -0.260 N 
ATOM      6  C   UNL     1      -3.567   3.104  -0.457  0.00  0.00    +0.166 C 
ATOM      7  N   UNL     1      -2.642   3.369   0.437  0.00  0.00    -0.226 NA
ATOM      8  S   UNL     1      -5.136   3.919  -0.707  0.00  0.00    -0.049 S 
ATOM      9  H   UNL     1      -2.807   1.526  -1.504  0.00  0.00    +0.157 HD
ENDROOT
BRANCH   7  10
ATOM     10  C   UNL     1      -1.496   2.622   0.478  0.00  0.00    +0.067 A 
ATOM     11  C   UNL     1      -1.562   1.230   0.383  0.00  0.00    +0.029 A 
ATOM     12  C   UNL     1      -0.404   0.483   0.431  0.00  0.00    +0.022 A 
ATOM     13  C   UNL     1       0.824   1.110   0.562  0.00  0.00    +0.041 A 
ATOM     14  C   UNL     1       0.897   2.490   0.651  0.00  0.00    +0.022 A 
ATOM     15  C   UNL     1      -0.254   3.248   0.610  0.00  0.00    +0.029 A 
ATOM     16 CL   UNL     1       2.277   0.162   0.615  0.00  0.00    -0.084 Cl
ENDBRANCH   7  10
BRANCH   1  19
ATOM     17  C   UNL     1      -9.942   5.183  -2.784  0.00  0.00    +0.162 A 
ATOM     18  C   UNL     1      -8.952   4.322  -3.212  0.00  0.00    +0.057 A 
ATOM     19  C   UNL     1      -7.928   3.946  -2.334  0.00  0.00    -0.020 A 
ATOM     20  C   UNL     1      -7.918   4.441  -1.025  0.00  0.00    +0.012 A 
ATOM     21  C   UNL     1      -8.907   5.304  -0.608  0.00  0.00    +0.050 A 
ATOM     22  C   UNL     1      -9.922   5.676  -1.480  0.00  0.00    +0.158 A 
BRANCH  22  23
ATOM     23  O   UNL     1     -10.898   6.523  -1.060  0.00  0.00    -0.503 OA
ATOM     24  H   UNL     1     -11.664   6.079  -0.671  0.00  0.00    +0.292 HD
ENDBRANCH  22  23
BRANCH  17  25
ATOM     25  O   UNL     1     -10.938   5.551  -3.634  0.00  0.00    -0.489 OA
BRANCH  25  27
ATOM     26  C   UNL     1     -12.089   5.531  -5.759  0.00  0.00    +0.048 C 
ATOM     27  C   UNL     1     -10.897   5.008  -4.955  0.00  0.00    +0.226 C 
ENDBRANCH  25  27
ENDBRANCH  17  25
ENDBRANCH   1  19
TORSDOF 5
