REMARK  Name = ZINC35839718
REMARK  14 active torsions:
REMARK  status: ('A' for Active; 'I' for Inactive)
REMARK    1  A    between atoms: C_1  and  C_2
REMARK    2  A    between atoms: C_2  and  C_3
REMARK    3  A    between atoms: C_2  and  C_4
REMARK    4  A    between atoms: C_4  and  O_5
REMARK    5  A    between atoms: O_5  and  C_6
REMARK    6  A    between atoms: C_6  and  C_7
REMARK    7  A    between atoms: C_7  and  C_9
REMARK    8  A    between atoms: C_7  and  O_37
REMARK    9  A    between atoms: C_9  and  N_10
REMARK   10  A    between atoms: N_13  and  C_16
REMARK   11  A    between atoms: C_16  and  C_17
REMARK   12  A    between atoms: C_19  and  C_22
REMARK   13  A    between atoms: C_27  and  C_30
REMARK   14  A    between atoms: C_30  and  C_31
REMARK                            x       y       z     vdW  Elec       q    Type
REMARK                         _______ _______ _______ _____ _____    ______ ____
ROOT
ATOM      1  C   UNL     1      -9.376   0.659  -7.689  0.00  0.00    +0.179 A 
ATOM      2  N   UNL     1     -10.489   1.299  -7.488  0.00  0.00    -0.210 NA
ATOM      3  C   UNL     1     -11.518   0.515  -7.907  0.00  0.00    +0.164 A 
ATOM      4  C   UNL     1     -10.976  -0.641  -8.377  0.00  0.00    +0.230 A 
ATOM      5  O   UNL     1      -9.645  -0.533  -8.239  0.00  0.00    -0.449 OA
ENDROOT
BRANCH   3   6
ATOM      6  C   UNL     1     -12.952   0.854  -7.861  0.00  0.00    +0.268 C 
ATOM      7  O   UNL     1     -13.785   0.018  -8.157  0.00  0.00    -0.268 OA
ATOM      8  N   UNL     1     -13.341   2.090  -7.489  0.00  0.00    -0.296 N 
ATOM      9  C   UNL     1     -14.758   2.474  -7.533  0.00  0.00    +0.108 C 
ATOM     10  C   UNL     1     -14.896   3.759  -8.355  0.00  0.00    +0.023 C 
ATOM     11  C   UNL     1     -13.972   4.832  -7.775  0.00  0.00    -0.004 C 
ATOM     12  C   UNL     1     -12.520   4.358  -7.861  0.00  0.00    +0.023 C 
ATOM     13  C   UNL     1     -12.356   3.077  -7.027  0.00  0.00    +0.108 C 
BRANCH  11  14
ATOM     14  C   UNL     1     -14.133   6.128  -8.572  0.00  0.00    +0.038 C 
BRANCH  14  15
ATOM     15  C   UNL     1     -13.316   7.219  -7.928  0.00  0.00    -0.047 A 
ATOM     16  C   UNL     1     -13.880   8.017  -6.949  0.00  0.00    +0.003 A 
ATOM     17  C   UNL     1     -13.131   9.017  -6.358  0.00  0.00    +0.000 A 
ATOM     18  C   UNL     1     -11.819   9.220  -6.745  0.00  0.00    +0.000 A 
ATOM     19  C   UNL     1     -11.256   8.421  -7.723  0.00  0.00    +0.000 A 
ATOM     20  C   UNL     1     -12.003   7.418  -8.311  0.00  0.00    +0.003 A 
ENDBRANCH  14  15
ENDBRANCH  11  14
ENDBRANCH   3   6
BRANCH   1  21
ATOM     21  C   UNL     1      -7.999   1.179  -7.362  0.00  0.00    +0.019 C 
BRANCH  21  25
ATOM     22  N   UNL     1      -5.902  -0.466  -4.103  0.00  0.00    -0.303 NA
ATOM     23  C   UNL     1      -5.986   0.998  -4.199  0.00  0.00    +0.066 C 
ATOM     24  C   UNL     1      -6.352   1.392  -5.632  0.00  0.00    -0.063 C 
ATOM     25  N   UNL     1      -7.640   0.786  -5.993  0.00  0.00    +0.387 N 
ATOM     26  C   UNL     1      -7.534  -0.677  -5.916  0.00  0.00    -0.063 C 
ATOM     27  C   UNL     1      -7.178  -1.088  -4.485  0.00  0.00    +0.066 C 
ATOM     28  H   UNL     1      -8.352   1.105  -5.354  0.00  0.00    -0.081 HD
BRANCH  22  29
ATOM     29  C   UNL     1      -5.497  -0.883  -2.753  0.00  0.00    +0.117 C 
BRANCH  29  30
ATOM     30  C   UNL     1      -4.966  -2.317  -2.800  0.00  0.00    +0.154 C 
BRANCH  30  31
ATOM     31  O   UNL     1      -3.836  -2.377  -3.672  0.00  0.00    -0.388 OA
ATOM     32  H   UNL     1      -3.100  -1.809  -3.404  0.00  0.00    +0.210 HD
ENDBRANCH  30  31
BRANCH  30  33
ATOM     33  C   UNL     1      -4.549  -2.752  -1.394  0.00  0.00    +0.192 C 
BRANCH  33  34
ATOM     34  O   UNL     1      -4.163  -4.128  -1.416  0.00  0.00    -0.377 OA
BRANCH  34  35
ATOM     35  C   UNL     1      -3.753  -4.637  -0.146  0.00  0.00    +0.163 C 
BRANCH  35  37
ATOM     36  C   UNL     1      -2.132  -6.227  -1.187  0.00  0.00    +0.009 C 
ATOM     37  C   UNL     1      -3.364  -6.110  -0.288  0.00  0.00    +0.009 C 
ATOM     38  C   UNL     1      -3.045  -6.689   1.092  0.00  0.00    +0.009 C 
ENDBRANCH  35  37
ENDBRANCH  34  35
ENDBRANCH  33  34
ENDBRANCH  30  33
ENDBRANCH  29  30
ENDBRANCH  22  29
ENDBRANCH  21  25
ENDBRANCH   1  21
TORSDOF 12
