REMARK  Name = ZINC45339201
REMARK  5 active torsions:
REMARK  status: ('A' for Active; 'I' for Inactive)
REMARK    1  A    between atoms: C_1  and  C_2
REMARK    2  A    between atoms: C_7  and  C_8
REMARK    3  A    between atoms: C_22  and  C_24
REMARK    4  A    between atoms: C_26  and  C_34
REMARK    5  A    between atoms: C_28  and  C_30
REMARK                            x       y       z     vdW  Elec       q    Type
REMARK                         _______ _______ _______ _____ _____    ______ ____
ROOT
ATOM      1  C   UNL     1       0.213  -0.021   2.132  0.00  0.00    +0.091 C 
ATOM      2  C   UNL     1      -0.625   0.965   2.954  0.00  0.00    -0.055 C 
ATOM      3  N   UNL     1       0.265   1.799   3.771  0.00  0.00    +0.381 N 
ATOM      4  C   UNL     1       0.971   0.966   4.752  0.00  0.00    -0.063 C 
ATOM      5  C   UNL     1       1.888  -0.019   4.019  0.00  0.00    +0.091 C 
ATOM      6  N   UNL     1       1.083  -0.776   3.046  0.00  0.00    -0.282 N 
ATOM      7  C   UNL     1       1.137  -2.122   2.998  0.00  0.00    +0.306 C 
ATOM      8  O   UNL     1       0.907  -2.702   1.955  0.00  0.00    -0.252 OA
ATOM      9  N   UNL     1       1.446  -2.824   4.106  0.00  0.00    -0.275 N 
ATOM     10  C   UNL     1       1.130  -2.312   5.452  0.00  0.00    +0.114 C 
ATOM     11  C   UNL     1       0.159  -3.294   6.113  0.00  0.00    +0.046 C 
ATOM     12  C   UNL     1       0.622  -4.705   5.907  0.00  0.00    -0.027 C 
ATOM     13  C   UNL     1       1.464  -5.078   4.996  0.00  0.00    -0.004 C 
ATOM     14  C   UNL     1       2.105  -4.135   4.023  0.00  0.00    +0.131 C 
ATOM     15  H   UNL     1       0.938   2.256   3.174  0.00  0.00    -0.086 HD
ATOM     16  H   UNL     1      -0.280   2.497   4.254  0.00  0.00    -0.086 HD
ENDROOT
BRANCH   1  23
ATOM     17  C   UNL     1      -0.167   0.253  -0.719  0.00  0.00    +0.044 C 
ATOM     18  C   UNL     1      -0.880  -0.840   0.035  0.00  0.00    -0.043 A 
ATOM     19  C   UNL     1      -1.711  -1.715  -0.639  0.00  0.00    +0.042 A 
ATOM     20  C   UNL     1      -2.366  -2.719   0.053  0.00  0.00    +0.124 A 
ATOM     21  C   UNL     1      -2.188  -2.846   1.421  0.00  0.00    +0.039 A 
ATOM     22  C   UNL     1      -1.356  -1.970   2.092  0.00  0.00    +0.008 A 
ATOM     23  C   UNL     1      -0.698  -0.971   1.399  0.00  0.00    -0.026 A 
ATOM     24  F   UNL     1      -3.179  -3.574  -0.605  0.00  0.00    -0.205 F 
ENDBRANCH   1  23
BRANCH  14  25
ATOM     25  C   UNL     1       3.566  -3.986   4.362  0.00  0.00    -0.022 A 
ATOM     26  C   UNL     1       3.944  -3.567   5.624  0.00  0.00    +0.018 A 
ATOM     27  C   UNL     1       5.284  -3.431   5.935  0.00  0.00    +0.056 A 
ATOM     28  C   UNL     1       6.246  -3.714   4.984  0.00  0.00    +0.024 A 
ATOM     29  C   UNL     1       5.869  -4.133   3.722  0.00  0.00    +0.056 A 
ATOM     30  C   UNL     1       4.529  -4.274   3.412  0.00  0.00    +0.018 A 
BRANCH  29  31
ATOM     31  C   UNL     1       6.918  -4.441   2.685  0.00  0.00    +0.417 C 
ATOM     32  F   UNL     1       8.189  -4.229   3.230  0.00  0.00    -0.166 F 
ATOM     33  F   UNL     1       6.799  -5.776   2.283  0.00  0.00    -0.166 F 
ATOM     34  F   UNL     1       6.740  -3.603   1.579  0.00  0.00    -0.166 F 
ENDBRANCH  29  31
BRANCH  27  35
ATOM     35  C   UNL     1       5.695  -2.974   7.311  0.00  0.00    +0.417 C 
ATOM     36  F   UNL     1       5.856  -4.086   8.143  0.00  0.00    -0.166 F 
ATOM     37  F   UNL     1       6.904  -2.275   7.228  0.00  0.00    -0.166 F 
ATOM     38  F   UNL     1       4.707  -2.135   7.838  0.00  0.00    -0.166 F 
ENDBRANCH  27  35
ENDBRANCH  14  25
TORSDOF 4
