REMARK  Name = ZINC40404721
REMARK  14 active torsions:
REMARK  status: ('A' for Active; 'I' for Inactive)
REMARK    1  A    between atoms: C_1  and  C_2
REMARK    2  A    between atoms: C_5  and  C_9
REMARK    3  A    between atoms: C_6  and  C_8
REMARK    4  A    between atoms: C_18  and  C_20
REMARK    5  A    between atoms: C_20  and  N_21
REMARK    6  A    between atoms: N_21  and  C_22
REMARK    7  A    between atoms: N_21  and  C_26
REMARK    8  A    between atoms: C_22  and  C_23
REMARK    9  A    between atoms: C_23  and  C_24
REMARK   10  A    between atoms: C_23  and  C_25
REMARK   11  A    between atoms: C_26  and  C_27
REMARK   12  A    between atoms: C_27  and  C_28
REMARK   13  A    between atoms: C_27  and  C_29
REMARK   14  A    between atoms: C_27  and  O_31
REMARK                            x       y       z     vdW  Elec       q    Type
REMARK                         _______ _______ _______ _____ _____    ______ ____
ROOT
ATOM      1  C   UNL     1       0.202  -4.268   2.314  0.00  0.00    +0.004 A 
ATOM      2  C   UNL     1       1.394  -4.901   2.195  0.00  0.00    +0.056 A 
ATOM      3  S   UNL     1       0.934  -6.614   2.010  0.00  0.00    -0.076 S 
ATOM      4  C   UNL     1      -0.829  -6.441   2.097  0.00  0.00    +0.116 A 
ATOM      5  C   UNL     1      -1.020  -5.061   2.272  0.00  0.00    +0.080 A 
ATOM      6  C   UNL     1      -2.382  -4.632   2.380  0.00  0.00    +0.260 A 
ATOM      7  O   UNL     1      -2.649  -3.452   2.529  0.00  0.00    -0.267 OA
ATOM      8  N   UNL     1      -3.362  -5.551   2.313  0.00  0.00    -0.312 N 
ATOM      9  H   UNL     1      -4.287  -5.267   2.385  0.00  0.00    +0.170 HD
ATOM     10  C   UNL     1      -3.083  -6.870   2.146  0.00  0.00    +0.094 A 
ATOM     11  N   UNL     1      -1.851  -7.290   2.034  0.00  0.00    -0.229 NA
ENDROOT
BRANCH   1  16
ATOM     12  C   UNL     1      -0.029   1.446   2.994  0.00  0.00    +0.044 C 
ATOM     13  C   UNL     1       0.032  -0.050   2.816  0.00  0.00    -0.050 A 
ATOM     14  C   UNL     1       0.520  -0.584   1.637  0.00  0.00    +0.004 A 
ATOM     15  C   UNL     1       0.578  -1.952   1.468  0.00  0.00    +0.009 A 
ATOM     16  C   UNL     1       0.143  -2.797   2.489  0.00  0.00    -0.014 A 
ATOM     17  C   UNL     1      -0.348  -2.253   3.675  0.00  0.00    -0.042 A 
ATOM     18  C   UNL     1      -0.396  -0.882   3.834  0.00  0.00    +0.007 A 
ATOM     19  C   UNL     1      -0.820  -3.159   4.782  0.00  0.00    +0.044 C 
ENDBRANCH   1  16
BRANCH  10  20
ATOM     20  C   UNL     1      -4.214  -7.863   2.076  0.00  0.00    -0.003 C 
BRANCH  20  21
ATOM     21  N   UNL     1      -3.683  -9.184   1.712  0.00  0.00    +0.387 N 
ATOM     22  H   UNL     1      -2.795  -9.326   2.168  0.00  0.00    -0.081 HD
BRANCH  21  23
ATOM     23  C   UNL     1      -3.504  -9.256   0.256  0.00  0.00    -0.075 C 
BRANCH  23  24
ATOM     24  C   UNL     1      -2.302  -8.401  -0.152  0.00  0.00    -0.034 C 
ATOM     25  C   UNL     1      -1.022  -9.015   0.418  0.00  0.00    +0.005 C 
ATOM     26  C   UNL     1      -2.208  -8.351  -1.679  0.00  0.00    +0.005 C 
ENDBRANCH  23  24
ENDBRANCH  21  23
BRANCH  21  27
ATOM     27  C   UNL     1      -4.627 -10.225   2.141  0.00  0.00    -0.039 C 
BRANCH  27  28
ATOM     28  C   UNL     1      -4.587 -10.353   3.666  0.00  0.00    +0.067 C 
ATOM     29  C   UNL     1      -3.143 -10.574   4.121  0.00  0.00    +0.044 C 
BRANCH  28  30
ATOM     30  C   UNL     1      -5.433 -11.524   4.094  0.00  0.00    -0.003 C 
ATOM     31  C   UNL     1      -6.455 -11.336   4.892  0.00  0.00    +0.006 C 
ENDBRANCH  28  30
BRANCH  28  32
ATOM     32  O   UNL     1      -5.095  -9.156   4.257  0.00  0.00    -0.387 OA
ATOM     33  H   UNL     1      -6.008  -8.953   4.012  0.00  0.00    +0.210 HD
ENDBRANCH  28  32
ENDBRANCH  27  28
ENDBRANCH  21  27
ENDBRANCH  20  21
ENDBRANCH  10  20
TORSDOF 9
