REMARK  Name = ZINC32968131
REMARK  5 active torsions:
REMARK  status: ('A' for Active; 'I' for Inactive)
REMARK    1  A    between atoms: C_1  and  C_2
REMARK    2  A    between atoms: C_5  and  S_8
REMARK    3  A    between atoms: S_8  and  C_9
REMARK    4  A    between atoms: C_12  and  C_14
REMARK    5  A    between atoms: C_24  and  C_26
REMARK                            x       y       z     vdW  Elec       q    Type
REMARK                         _______ _______ _______ _____ _____    ______ ____
ROOT
ATOM      1  C   UNL     1      -0.028  -3.807   5.116  0.00  0.00    +0.063 C 
ATOM      2  C   UNL     1       0.372  -2.477   5.215  0.00  0.00    +0.087 C 
ATOM      3  C   UNL     1       0.229  -1.700   6.478  0.00  0.00    +0.176 C 
ATOM      4  N   UNL     1       0.300  -2.236   7.671  0.00  0.00    -0.280 NA
ATOM      5  N   UNL     1       0.013  -0.347   6.257  0.00  0.00    -0.142 N 
ATOM      6  C   UNL     1       0.390   0.252   5.080  0.00  0.00    +0.168 C 
ATOM      7  N   UNL     1       0.878  -0.409   4.034  0.00  0.00    -0.156 NA
ATOM      8  C   UNL     1       0.970  -1.750   4.075  0.00  0.00    +0.273 C 
ATOM      9  O   UNL     1       1.536  -2.361   3.181  0.00  0.00    -0.268 OA
ATOM     10  C   UNL     1       0.139   1.624   5.234  0.00  0.00    +0.091 C 
ATOM     11  C   UNL     1      -0.426   1.821   6.445  0.00  0.00    +0.134 C 
ATOM     12  O   UNL     1      -0.557   0.640   7.072  0.00  0.00    -0.375 OA
ATOM     13  C   UNL     1      -0.843   3.156   7.004  0.00  0.00    +0.089 C 
ATOM     14  H   UNL     1       0.453  -3.190   7.766  0.00  0.00    +0.188 HD
ENDROOT
BRANCH   1  18
ATOM     15  C   UNL     1      -0.053  -4.727   1.687  0.00  0.00    +0.167 A 
ATOM     16  C   UNL     1      -0.301  -5.960   2.255  0.00  0.00    +0.057 A 
ATOM     17  C   UNL     1      -0.326  -5.778   3.633  0.00  0.00    +0.050 A 
ATOM     18  C   UNL     1      -0.089  -4.427   3.865  0.00  0.00    +0.130 A 
ATOM     19  O   UNL     1       0.077  -3.819   2.667  0.00  0.00    -0.449 OA
BRANCH  15  20
ATOM     20  S   UNL     1       0.080  -4.399  -0.040  0.00  0.00    -0.052 S 
BRANCH  20  25
ATOM     21  C   UNL     1      -5.452  -2.563  -1.608  0.00  0.00    +0.044 C 
ATOM     22  C   UNL     1      -4.071  -3.021  -1.216  0.00  0.00    -0.050 A 
ATOM     23  C   UNL     1      -3.044  -2.986  -2.142  0.00  0.00    +0.004 A 
ATOM     24  C   UNL     1      -1.777  -3.405  -1.787  0.00  0.00    +0.015 A 
ATOM     25  C   UNL     1      -1.535  -3.863  -0.497  0.00  0.00    +0.016 A 
ATOM     26  C   UNL     1      -2.569  -3.897   0.430  0.00  0.00    +0.015 A 
ATOM     27  C   UNL     1      -3.832  -3.471   0.070  0.00  0.00    +0.004 A 
ENDBRANCH  20  25
ENDBRANCH  15  20
ENDBRANCH   1  18
TORSDOF 3
