REMARK  Name = ZINC63340083
REMARK  8 active torsions:
REMARK  status: ('A' for Active; 'I' for Inactive)
REMARK    1  A    between atoms: C_1  and  C_2
REMARK    2  A    between atoms: C_4  and  C_15
REMARK    3  A    between atoms: N_7  and  C_9
REMARK    4  A    between atoms: N_17  and  C_18
REMARK    5  A    between atoms: C_18  and  C_19
REMARK    6  A    between atoms: C_19  and  C_20
REMARK    7  A    between atoms: C_23  and  O_29
REMARK    8  A    between atoms: O_29  and  C_30
REMARK                            x       y       z     vdW  Elec       q    Type
REMARK                         _______ _______ _______ _____ _____    ______ ____
ROOT
ATOM      1  C   UNL     1      -2.025  -0.823  -1.256  0.00  0.00    +0.233 C 
ATOM      2  O   UNL     1      -2.027  -1.939  -1.732  0.00  0.00    -0.274 OA
ATOM      3  N   UNL     1      -2.552   0.206  -1.949  0.00  0.00    -0.314 N 
ATOM      4  H   UNL     1      -2.550   1.098  -1.569  0.00  0.00    +0.149 HD
ENDROOT
BRANCH   1   7
ATOM      5  C   UNL     1      -0.019   1.526   0.010  0.00  0.00    +0.028 C 
ATOM      6  C   UNL     1       0.002  -0.004   0.002  0.00  0.00    +0.099 C 
ATOM      7  C   UNL     1      -1.433  -0.587   0.110  0.00  0.00    +0.178 C 
ATOM      8  N   UNL     1      -1.179  -1.871   0.809  0.00  0.00    -0.212 NA
ATOM      9  N   UNL     1       0.037  -1.780   1.427  0.00  0.00    -0.200 N 
ATOM     10  N   UNL     1       0.602  -0.543   1.254  0.00  0.00    -0.221 NA
ATOM     11  H   UNL     1      -1.200  -2.645   0.163  0.00  0.00    +0.147 HD
ATOM     12  H   UNL     1       0.402   0.059   2.039  0.00  0.00    +0.146 HD
BRANCH   9  13
ATOM     13  C   UNL     1       0.632  -2.821   2.144  0.00  0.00    +0.062 A 
ATOM     14  C   UNL     1       1.871  -2.633   2.744  0.00  0.00    +0.026 A 
ATOM     15  C   UNL     1       2.455  -3.664   3.453  0.00  0.00    +0.002 A 
ATOM     16  C   UNL     1       1.810  -4.881   3.566  0.00  0.00    +0.000 A 
ATOM     17  C   UNL     1       0.576  -5.071   2.970  0.00  0.00    +0.002 A 
ATOM     18  C   UNL     1      -0.017  -4.043   2.264  0.00  0.00    +0.026 A 
ENDBRANCH   9  13
ENDBRANCH   1   7
BRANCH   3  19
ATOM     19  C   UNL     1      -3.127  -0.023  -3.277  0.00  0.00    +0.108 C 
BRANCH  19  20
ATOM     20  C   UNL     1      -3.651   1.299  -3.841  0.00  0.00    +0.052 C 
BRANCH  20  21
ATOM     21  C   UNL     1      -4.243   1.063  -5.207  0.00  0.00    -0.040 C 
ATOM     22  C   UNL     1      -5.544   0.844  -5.502  0.00  0.00    +0.002 A 
ATOM     23  C   UNL     1      -6.752   0.760  -4.674  0.00  0.00    +0.055 A 
ATOM     24  C   UNL     1      -7.949   0.522  -5.263  0.00  0.00    +0.121 A 
ATOM     25  C   UNL     1      -8.081   0.350  -6.652  0.00  0.00    +0.047 A 
ATOM     26  C   UNL     1      -7.028   0.409  -7.495  0.00  0.00    +0.029 A 
ATOM     27  C   UNL     1      -5.685   0.662  -6.965  0.00  0.00    +0.043 A 
ATOM     28  N   UNL     1      -4.518   0.765  -7.550  0.00  0.00    -0.380 N 
ATOM     29  C   UNL     1      -3.502   1.031  -6.525  0.00  0.00    +0.144 C 
ATOM     30  H   UNL     1      -4.352   0.684  -8.503  0.00  0.00    +0.160 HD
BRANCH  24  31
ATOM     31  O   UNL     1      -9.060   0.447  -4.484  0.00  0.00    -0.495 OA
ATOM     32  C   UNL     1     -10.301   0.195  -5.146  0.00  0.00    +0.277 C 
ENDBRANCH  24  31
ENDBRANCH  20  21
ENDBRANCH  19  20
ENDBRANCH   3  19
TORSDOF 6
