REMARK  Name = ZINC36345598
REMARK  10 active torsions:
REMARK  status: ('A' for Active; 'I' for Inactive)
REMARK    1  A    between atoms: C_1  and  C_2
REMARK    2  A    between atoms: C_2  and  O_3
REMARK    3  A    between atoms: O_3  and  C_4
REMARK    4  A    between atoms: C_4  and  C_6
REMARK    5  A    between atoms: N_9  and  C_12
REMARK    6  A    between atoms: C_12  and  C_13
REMARK    7  A    between atoms: C_16  and  C_29
REMARK    8  A    between atoms: C_19  and  C_21
REMARK    9  A    between atoms: C_23  and  C_28
REMARK   10  A    between atoms: C_26  and  C_27
REMARK                            x       y       z     vdW  Elec       q    Type
REMARK                         _______ _______ _______ _____ _____    ______ ____
ROOT
ATOM      1  C   UNL     1       2.502  -6.021  -5.773  0.00  0.00    +0.219 C 
ATOM      2  O   UNL     1       2.160  -6.522  -4.723  0.00  0.00    -0.276 OA
ATOM      3  N   UNL     1       2.862  -6.805  -6.809  0.00  0.00    -0.187 N 
ATOM      4  C   UNL     1       2.879  -8.277  -6.802  0.00  0.00    +0.137 C 
ATOM      5  C   UNL     1       3.361  -8.639  -8.221  0.00  0.00    +0.087 C 
ATOM      6  C   UNL     1       3.568  -7.298  -8.888  0.00  0.00    +0.069 C 
ATOM      7  N   UNL     1       3.272  -6.355  -8.062  0.00  0.00    -0.181 NA
ENDROOT
BRANCH   4   8
ATOM      8  C   UNL     1       1.496  -8.822  -6.553  0.00  0.00    -0.021 A 
ATOM      9  C   UNL     1       0.398  -8.206  -7.125  0.00  0.00    +0.009 A 
ATOM     10  C   UNL     1      -0.872  -8.703  -6.900  0.00  0.00    +0.050 A 
ATOM     11  C   UNL     1      -1.048  -9.820  -6.100  0.00  0.00    +0.166 A 
ATOM     12  C   UNL     1       0.058 -10.441  -5.524  0.00  0.00    +0.167 A 
ATOM     13  C   UNL     1       1.329  -9.941  -5.758  0.00  0.00    +0.055 A 
ATOM     14  O   UNL     1      -0.373 -11.507  -4.789  0.00  0.00    -0.453 OA
ATOM     15  C   UNL     1      -1.783 -11.290  -4.588  0.00  0.00    +0.466 C 
ATOM     16  O   UNL     1      -2.172 -10.498  -5.726  0.00  0.00    -0.453 OA
ENDBRANCH   4   8
BRANCH   6  17
ATOM     17  C   UNL     1       4.033  -7.099 -10.274  0.00  0.00    +0.001 A 
ATOM     18  C   UNL     1       4.436  -8.194 -11.042  0.00  0.00    +0.013 A 
ATOM     19  C   UNL     1       4.869  -8.001 -12.337  0.00  0.00    -0.050 A 
ATOM     20  C   UNL     1       4.905  -6.727 -12.876  0.00  0.00    +0.003 A 
ATOM     21  C   UNL     1       4.508  -5.638 -12.121  0.00  0.00    +0.004 A 
ATOM     22  C   UNL     1       4.066  -5.817 -10.826  0.00  0.00    -0.042 A 
ATOM     23  C   UNL     1       3.626  -4.631 -10.008  0.00  0.00    +0.044 C 
ATOM     24  C   UNL     1       5.305  -9.181 -13.168  0.00  0.00    +0.044 C 
ENDBRANCH   6  17
BRANCH   1  25
ATOM     25  C   UNL     1       2.526  -4.521  -5.920  0.00  0.00    +0.021 C 
BRANCH  25  29
ATOM     26  C   UNL     1       2.435  -2.113  -2.405  0.00  0.00    +0.094 C 
ATOM     27  C   UNL     1       1.476  -1.800  -3.558  0.00  0.00    -0.004 C 
ATOM     28  C   UNL     1       2.002  -2.445  -4.842  0.00  0.00    -0.077 C 
ATOM     29  N   UNL     1       2.095  -3.899  -4.661  0.00  0.00    +0.385 N 
ATOM     30  C   UNL     1       3.067  -4.209  -3.606  0.00  0.00    -0.077 C 
ATOM     31  C   UNL     1       2.581  -3.632  -2.274  0.00  0.00    -0.004 C 
ATOM     32  H   UNL     1       1.190  -4.263  -4.401  0.00  0.00    -0.081 HD
BRANCH  26  33
ATOM     33  C   UNL     1       1.883  -1.547  -1.123  0.00  0.00    +0.310 C 
ATOM     34  O   UNL     1       1.632  -2.282  -0.197  0.00  0.00    -0.251 OA
BRANCH  33  35
ATOM     35  O   UNL     1       1.671  -0.227  -1.008  0.00  0.00    -0.465 OA
BRANCH  35  37
ATOM     36  C   UNL     1       0.973   1.759   0.178  0.00  0.00    +0.048 C 
ATOM     37  C   UNL     1       1.146   0.240   0.236  0.00  0.00    +0.229 C 
ENDBRANCH  35  37
ENDBRANCH  33  35
ENDBRANCH  26  33
ENDBRANCH  25  29
ENDBRANCH   1  25
TORSDOF 7
