REMARK  Name = ZINC24072122
REMARK  13 active torsions:
REMARK  status: ('A' for Active; 'I' for Inactive)
REMARK    1  A    between atoms: C_1  and  N_2
REMARK    2  A    between atoms: N_2  and  C_3
REMARK    3  A    between atoms: N_2  and  C_13
REMARK    4  A    between atoms: C_3  and  C_4
REMARK    5  A    between atoms: C_7  and  O_11
REMARK    6  A    between atoms: O_11  and  C_12
REMARK    7  A    between atoms: C_13  and  C_14
REMARK    8  A    between atoms: C_17  and  C_27
REMARK    9  A    between atoms: C_20  and  C_22
REMARK   10  A    between atoms: C_30  and  O_35
REMARK   11  A    between atoms: C_31  and  O_33
REMARK   12  A    between atoms: O_33  and  C_34
REMARK   13  A    between atoms: O_35  and  C_36
REMARK                            x       y       z     vdW  Elec       q    Type
REMARK                         _______ _______ _______ _____ _____    ______ ____
ROOT
ATOM      1  C   UNL     1       1.340   7.623   1.844  0.00  0.00    +0.219 C 
ATOM      2  O   UNL     1       1.532   6.853   2.761  0.00  0.00    -0.276 OA
ATOM      3  N   UNL     1       0.094   7.801   1.362  0.00  0.00    -0.187 N 
ATOM      4  C   UNL     1      -1.118   7.126   1.854  0.00  0.00    +0.137 C 
ATOM      5  C   UNL     1      -2.240   7.693   0.962  0.00  0.00    +0.087 C 
ATOM      6  C   UNL     1      -1.517   8.651   0.036  0.00  0.00    +0.075 C 
ATOM      7  N   UNL     1      -0.257   8.653   0.317  0.00  0.00    -0.180 NA
ENDROOT
BRANCH   4   8
ATOM      8  C   UNL     1      -1.003   5.634   1.677  0.00  0.00    -0.021 A 
ATOM      9  C   UNL     1      -0.368   5.119   0.562  0.00  0.00    +0.009 A 
ATOM     10  C   UNL     1      -0.259   3.751   0.395  0.00  0.00    +0.050 A 
ATOM     11  C   UNL     1      -0.787   2.893   1.346  0.00  0.00    +0.162 A 
ATOM     12  C   UNL     1      -1.432   3.411   2.465  0.00  0.00    +0.162 A 
ATOM     13  C   UNL     1      -1.532   4.784   2.629  0.00  0.00    +0.055 A 
BRANCH  12  14
ATOM     14  O   UNL     1      -1.957   2.573   3.399  0.00  0.00    -0.491 OA
ATOM     15  C   UNL     1      -2.603   3.176   4.521  0.00  0.00    +0.277 C 
ENDBRANCH  12  14
BRANCH  11  16
ATOM     16  O   UNL     1      -0.682   1.547   1.184  0.00  0.00    -0.491 OA
ATOM     17  C   UNL     1      -0.013   1.086   0.008  0.00  0.00    +0.277 C 
ENDBRANCH  11  16
ENDBRANCH   4   8
BRANCH   6  18
ATOM     18  C   UNL     1      -2.152   9.452  -1.015  0.00  0.00    +0.035 A 
ATOM     19  C   UNL     1      -1.574  10.346  -1.900  0.00  0.00    +0.017 A 
ATOM     20  C   UNL     1      -2.386  10.985  -2.807  0.00  0.00    +0.008 A 
ATOM     21  C   UNL     1      -3.719  10.721  -2.808  0.00  0.00    +0.046 A 
ATOM     22  S   UNL     1      -3.870   9.522  -1.494  0.00  0.00    -0.095 S 
ENDBRANCH   6  18
BRANCH   1  23
ATOM     23  C   UNL     1       2.495   8.382   1.244  0.00  0.00    +0.021 C 
BRANCH  23  25
ATOM     24  C   UNL     1       3.710   8.468   3.337  0.00  0.00    -0.095 C 
ATOM     25  N   UNL     1       3.736   8.016   1.939  0.00  0.00    +0.386 N 
ATOM     26  H   UNL     1       3.812   6.918   1.940  0.00  0.00    -0.081 HD
BRANCH  25  27
ATOM     27  C   UNL     1       4.911   8.548   1.236  0.00  0.00    -0.043 C 
BRANCH  27  28
ATOM     28  C   UNL     1       6.163   7.955   1.828  0.00  0.00    -0.061 A 
ATOM     29  C   UNL     1       6.678   6.778   1.317  0.00  0.00    +0.005 A 
ATOM     30  C   UNL     1       7.826   6.231   1.857  0.00  0.00    +0.049 A 
ATOM     31  C   UNL     1       8.463   6.863   2.914  0.00  0.00    +0.155 A 
ATOM     32  C   UNL     1       7.945   8.046   3.427  0.00  0.00    +0.165 A 
ATOM     33  C   UNL     1       6.798   8.591   2.879  0.00  0.00    +0.044 A 
ATOM     34  F   UNL     1       8.563   8.664   4.457  0.00  0.00    -0.202 F 
BRANCH  31  35
ATOM     35  O   UNL     1       9.593   6.327   3.447  0.00  0.00    -0.492 OA
ATOM     36  C   UNL     1      10.069   5.110   2.869  0.00  0.00    +0.277 C 
ENDBRANCH  31  35
ENDBRANCH  27  28
ENDBRANCH  25  27
ENDBRANCH  23  25
ENDBRANCH   1  23
TORSDOF 9
