REMARK  Name = ZINC14925520
REMARK  7 active torsions:
REMARK  status: ('A' for Active; 'I' for Inactive)
REMARK    1  A    between atoms: C_1  and  C_2
REMARK    2  A    between atoms: C_5  and  N_9
REMARK    3  A    between atoms: C_10  and  C_12
REMARK    4  A    between atoms: C_12  and  C_14
REMARK    5  A    between atoms: C_12  and  N_51
REMARK    6  A    between atoms: N_17  and  C_20
REMARK    7  A    between atoms: C_25  and  N_26
REMARK                            x       y       z     vdW  Elec       q    Type
REMARK                         _______ _______ _______ _____ _____    ______ ____
ROOT
ATOM      1  C   UNL     1       3.751   2.653  -1.143  0.00  0.00    -0.059 C 
ATOM      2  C   UNL     1       4.928   3.631  -1.115  0.00  0.00    +0.086 C 
ATOM      3  N   UNL     1       6.185   2.878  -1.001  0.00  0.00    -0.332 N 
ATOM      4  C   UNL     1       6.198   2.065   0.223  0.00  0.00    +0.086 C 
ATOM      5  C   UNL     1       5.021   1.087   0.196  0.00  0.00    -0.059 C 
ATOM      6  N   UNL     1       3.763   1.857   0.103  0.00  0.00    +0.389 N 
ATOM      7  H   UNL     1       3.702   2.494   0.906  0.00  0.00    -0.081 HD
ENDROOT
BRANCH   3   8
ATOM      8  C   UNL     1       7.288   3.735  -1.045  0.00  0.00    +0.060 A 
ATOM      9  C   UNL     1       7.423   4.744  -0.101  0.00  0.00    +0.027 A 
ATOM     10  C   UNL     1       8.514   5.589  -0.147  0.00  0.00    +0.022 A 
ATOM     11  C   UNL     1       9.473   5.430  -1.132  0.00  0.00    +0.043 A 
ATOM     12  C   UNL     1       9.341   4.425  -2.074  0.00  0.00    +0.054 A 
ATOM     13  C   UNL     1       8.254   3.574  -2.030  0.00  0.00    +0.148 A 
ATOM     14 CL   UNL     1      10.844   6.494  -1.187  0.00  0.00    -0.083 Cl
BRANCH  13  15
ATOM     15  N   UNL     1       8.116   2.496  -3.034  0.00  0.00    +0.058 N 
ATOM     16  O   UNL     1       8.911   2.415  -3.954  0.00  0.00    -0.126 OA
ATOM     17  O   UNL     1       7.208   1.689  -2.941  0.00  0.00    -0.126 OA
ENDBRANCH  13  15
ENDBRANCH   3   8
BRANCH   6  18
ATOM     18  C   UNL     1       2.605   0.939   0.128  0.00  0.00    +0.017 C 
ATOM     19  C   UNL     1       2.620   0.024  -1.098  0.00  0.00    -0.004 C 
BRANCH  18  21
ATOM     20  N   UNL     1       0.139   1.135   0.171  0.00  0.00    -0.286 N 
ATOM     21  C   UNL     1       1.336   1.753   0.131  0.00  0.00    +0.203 C 
ATOM     22  O   UNL     1       1.393   2.964   0.098  0.00  0.00    -0.277 OA
ATOM     23  H   UNL     1       0.091   0.167   0.129  0.00  0.00    +0.155 HD
BRANCH  20  28
ATOM     24  C   UNL     1      -4.622   4.197   0.559  0.00  0.00    +0.044 C 
ATOM     25  C   UNL     1      -3.358   3.383   0.457  0.00  0.00    -0.049 A 
ATOM     26  C   UNL     1      -2.275   3.877  -0.249  0.00  0.00    +0.005 A 
ATOM     27  C   UNL     1      -1.115   3.134  -0.345  0.00  0.00    +0.024 A 
ATOM     28  C   UNL     1      -1.035   1.890   0.267  0.00  0.00    +0.047 A 
ATOM     29  C   UNL     1      -2.126   1.395   0.971  0.00  0.00    +0.039 A 
ATOM     30  C   UNL     1      -3.282   2.145   1.067  0.00  0.00    +0.020 A 
ATOM     31 BR   UNL     1      -2.026  -0.301   1.802  0.00  0.00    -0.048 Br
ENDBRANCH  20  28
ENDBRANCH  18  21
ENDBRANCH   6  18
TORSDOF 5
