REMARK  Name = ZINC36577981
REMARK  13 active torsions:
REMARK  status: ('A' for Active; 'I' for Inactive)
REMARK    1  A    between atoms: C_1  and  C_2
REMARK    2  A    between atoms: C_2  and  C_3
REMARK    3  A    between atoms: C_3  and  N_4
REMARK    4  A    between atoms: N_4  and  C_5
REMARK    5  A    between atoms: C_5  and  C_7
REMARK    6  A    between atoms: C_5  and  C_14
REMARK    7  A    between atoms: C_12  and  C_13
REMARK    8  A    between atoms: N_16  and  C_17
REMARK    9  A    between atoms: C_17  and  S_18
REMARK   10  A    between atoms: S_18  and  C_21
REMARK   11  A    between atoms: C_24  and  C_27
REMARK   12  A    between atoms: C_28  and  C_30
REMARK   13  A    between atoms: C_33  and  N_36
REMARK                            x       y       z     vdW  Elec       q    Type
REMARK                         _______ _______ _______ _____ _____    ______ ____
ROOT
ATOM      1  C   UNL     1      -1.241  -2.919   2.295  0.00  0.00    +0.193 C 
ENDROOT
BRANCH   1   2
ATOM      2  C   UNL     1       0.129  -2.987   2.918  0.00  0.00    -0.015 A 
ATOM      3  C   UNL     1       0.886  -1.837   3.051  0.00  0.00    +0.006 A 
ATOM      4  C   UNL     1       2.142  -1.899   3.623  0.00  0.00    +0.000 A 
ATOM      5  C   UNL     1       2.643  -3.110   4.063  0.00  0.00    +0.000 A 
ATOM      6  C   UNL     1       1.886  -4.259   3.932  0.00  0.00    +0.004 A 
ATOM      7  C   UNL     1       0.627  -4.197   3.364  0.00  0.00    -0.045 A 
ATOM      8  C   UNL     1      -0.201  -5.449   3.225  0.00  0.00    +0.044 C 
ENDBRANCH   1   2
BRANCH   1   9
ATOM      9  C   UNL     1      -2.282  -2.809   3.379  0.00  0.00    +0.239 C 
ATOM     10  O   UNL     1      -3.260  -2.111   3.212  0.00  0.00    -0.273 OA
ATOM     11  N   UNL     1      -2.126  -3.486   4.534  0.00  0.00    -0.294 N 
ATOM     12  H   UNL     1      -1.295  -3.953   4.714  0.00  0.00    +0.150 HD
BRANCH  11  13
ATOM     13  C   UNL     1      -3.211  -3.515   5.518  0.00  0.00    +0.278 C 
BRANCH  13  14
ATOM     14  S   UNL     1      -4.205  -5.013   5.278  0.00  0.00    +0.013 S 
ATOM     15  O   UNL     1      -5.224  -5.088   6.265  0.00  0.00    -0.168 OA
ATOM     16  O   UNL     1      -4.516  -5.179   3.901  0.00  0.00    -0.168 OA
BRANCH  14  17
ATOM     17  C   UNL     1      -3.114  -6.345   5.655  0.00  0.00    +0.090 A 
ATOM     18  C   UNL     1      -2.339  -6.908   4.658  0.00  0.00    +0.027 A 
ATOM     19  C   UNL     1      -1.484  -7.952   4.954  0.00  0.00    +0.005 A 
ATOM     20  C   UNL     1      -1.403  -8.434   6.247  0.00  0.00    -0.050 A 
ATOM     21  C   UNL     1      -2.177  -7.872   7.244  0.00  0.00    +0.005 A 
ATOM     22  C   UNL     1      -3.030  -6.824   6.949  0.00  0.00    +0.027 A 
ATOM     23  C   UNL     1      -0.471  -9.574   6.569  0.00  0.00    +0.044 C 
ENDBRANCH  14  17
ENDBRANCH  13  14
ENDBRANCH  11  13
ENDBRANCH   1   9
BRANCH   1  24
ATOM     24  N   UNL     1      -1.322  -1.748   1.419  0.00  0.00    -0.282 N 
ATOM     25  C   UNL     1      -0.570  -1.688   0.302  0.00  0.00    +0.247 C 
ATOM     26  O   UNL     1      -0.891  -0.949  -0.608  0.00  0.00    -0.270 OA
BRANCH  25  27
ATOM     27  C   UNL     1       0.645  -2.521   0.184  0.00  0.00    +0.037 A 
ATOM     28  C   UNL     1       0.719  -3.751   0.840  0.00  0.00    +0.015 A 
ATOM     29  C   UNL     1       1.856  -4.523   0.725  0.00  0.00    +0.033 A 
ATOM     30  C   UNL     1       2.922  -4.082  -0.038  0.00  0.00    +0.126 A 
ATOM     31  C   UNL     1       2.856  -2.864  -0.691  0.00  0.00    +0.033 A 
ATOM     32  C   UNL     1       1.722  -2.084  -0.589  0.00  0.00    +0.015 A 
BRANCH  30  33
ATOM     33  N   UNL     1       4.139  -4.916  -0.157  0.00  0.00    +0.056 N 
ATOM     34  O   UNL     1       4.200  -5.981   0.413  0.00  0.00    -0.126 OA
ATOM     35  O   UNL     1       5.072  -4.533  -0.823  0.00  0.00    -0.126 OA
ENDBRANCH  30  33
ENDBRANCH  25  27
BRANCH  24  36
ATOM     36  C   UNL     1      -2.220  -0.641   1.758  0.00  0.00    +0.109 C 
BRANCH  36  38
ATOM     37  C   UNL     1      -4.541   0.246   1.496  0.00  0.00    +0.005 C 
ATOM     38  C   UNL     1      -3.554  -0.826   1.031  0.00  0.00    +0.016 C 
ENDBRANCH  36  38
ENDBRANCH  24  36
ENDBRANCH   1  24
TORSDOF 10
