REMARK  Name = ZINC39935966
REMARK  10 active torsions:
REMARK  status: ('A' for Active; 'I' for Inactive)
REMARK    1  A    between atoms: C_1  and  C_2
REMARK    2  A    between atoms: C_2  and  C_4
REMARK    3  A    between atoms: C_2  and  N_32
REMARK    4  A    between atoms: C_8  and  S_17
REMARK    5  A    between atoms: N_9  and  C_10
REMARK    6  A    between atoms: S_17  and  C_18
REMARK    7  A    between atoms: C_18  and  C_19
REMARK    8  A    between atoms: C_19  and  C_21
REMARK    9  A    between atoms: N_32  and  C_33
REMARK   10  A    between atoms: N_32  and  C_34
REMARK                            x       y       z     vdW  Elec       q    Type
REMARK                         _______ _______ _______ _____ _____    ______ ____
ROOT
ATOM      1  C   UNL     1      -1.170  -0.598   0.265  0.00  0.00    +0.168 C 
ATOM      2  N   UNL     1      -1.121  -2.070   0.273  0.00  0.00    -0.248 N 
ATOM      3  N   UNL     1      -1.948  -2.494  -0.775  0.00  0.00    -0.162 NA
ATOM      4  C   UNL     1      -2.475  -1.493  -1.395  0.00  0.00    +0.180 C 
ATOM      5  N   UNL     1      -2.077  -0.277  -0.851  0.00  0.00    -0.260 N 
ATOM      6  H   UNL     1      -0.616  -2.633   0.881  0.00  0.00    +0.170 HD
ENDROOT
BRANCH   5   7
ATOM      7  C   UNL     1      -2.458   0.999  -1.277  0.00  0.00    +0.037 A 
ATOM      8  C   UNL     1      -2.076   1.457  -2.531  0.00  0.00    +0.025 A 
ATOM      9  C   UNL     1      -2.454   2.718  -2.949  0.00  0.00    +0.022 A 
ATOM     10  C   UNL     1      -3.215   3.524  -2.120  0.00  0.00    +0.041 A 
ATOM     11  C   UNL     1      -3.597   3.070  -0.870  0.00  0.00    +0.022 A 
ATOM     12  C   UNL     1      -3.227   1.808  -0.449  0.00  0.00    +0.025 A 
ATOM     13 CL   UNL     1      -3.689   5.108  -2.650  0.00  0.00    -0.084 Cl
ENDBRANCH   5   7
BRANCH   1  15
ATOM     14  C   UNL     1       0.733  -0.492  -1.350  0.00  0.00    -0.010 C 
ATOM     15  C   UNL     1       0.221  -0.015   0.011  0.00  0.00    -0.032 C 
BRANCH  15  16
ATOM     16  N   UNL     1       0.147   1.452   0.019  0.00  0.00    +0.380 N 
ATOM     17  C   UNL     1      -0.403   1.907   1.303  0.00  0.00    -0.096 C 
ATOM     18  C   UNL     1       1.493   2.012  -0.163  0.00  0.00    -0.096 C 
ATOM     19  H   UNL     1      -0.451   1.763  -0.732  0.00  0.00    -0.082 HD
ENDBRANCH  15  16
ENDBRANCH   1  15
BRANCH   4  20
ATOM     20  S   UNL     1      -3.570  -1.647  -2.767  0.00  0.00    -0.081 S 
BRANCH  20  21
ATOM     21  C   UNL     1      -3.716  -3.439  -3.013  0.00  0.00    +0.156 C 
BRANCH  21  22
ATOM     22  C   UNL     1      -4.638  -3.714  -4.172  0.00  0.00    +0.173 C 
ATOM     23  O   UNL     1      -5.147  -2.792  -4.774  0.00  0.00    -0.291 OA
BRANCH  22  24
ATOM     24  C   UNL     1      -4.920  -5.098  -4.574  0.00  0.00    +0.022 A 
ATOM     25  C   UNL     1      -4.337  -6.164  -3.876  0.00  0.00    +0.013 A 
ATOM     26  C   UNL     1      -4.597  -7.452  -4.248  0.00  0.00    +0.030 A 
ATOM     27  C   UNL     1      -5.442  -7.712  -5.320  0.00  0.00    +0.087 A 
ATOM     28  C   UNL     1      -6.031  -6.659  -6.026  0.00  0.00    +0.157 A 
ATOM     29  C   UNL     1      -5.776  -5.354  -5.651  0.00  0.00    +0.060 A 
ATOM     30  O   UNL     1      -6.792  -7.207  -7.005  0.00  0.00    -0.408 OA
ATOM     31  C   UNL     1      -6.699  -8.544  -6.935  0.00  0.00    +0.419 A 
ATOM     32  O   UNL     1      -7.264  -9.326  -7.675  0.00  0.00    -0.223 OA
ATOM     33  N   UNL     1      -5.884  -8.886  -5.918  0.00  0.00    -0.288 N 
ATOM     34  H   UNL     1      -5.647  -9.788  -5.652  0.00  0.00    +0.172 HD
ENDBRANCH  22  24
ENDBRANCH  21  22
ENDBRANCH  20  21
ENDBRANCH   4  20
TORSDOF 7
