REMARK  Name = ZINC35992822
REMARK  10 active torsions:
REMARK  status: ('A' for Active; 'I' for Inactive)
REMARK    1  A    between atoms: C_1  and  C_2
REMARK    2  A    between atoms: C_2  and  N_3
REMARK    3  A    between atoms: C_4  and  C_23
REMARK    4  A    between atoms: C_5  and  C_18
REMARK    5  A    between atoms: C_6  and  C_11
REMARK    6  A    between atoms: C_18  and  O_20
REMARK    7  A    between atoms: O_20  and  C_21
REMARK    8  A    between atoms: C_21  and  C_22
REMARK    9  A    between atoms: C_23  and  N_24
REMARK   10  A    between atoms: C_31  and  C_33
REMARK                            x       y       z     vdW  Elec       q    Type
REMARK                         _______ _______ _______ _____ _____    ______ ____
ROOT
ATOM      1  N   UNL     1       1.099  -0.319  -1.608  0.00  0.00    -0.261 N 
ATOM      2  C   UNL     1       0.245  -0.771  -2.573  0.00  0.00    +0.010 C 
ATOM      3  C   UNL     1       0.705  -1.441  -3.652  0.00  0.00    +0.076 C 
ATOM      4  C   UNL     1       2.199  -1.674  -3.753  0.00  0.00    +0.143 C 
ATOM      5  N   UNL     1       3.032  -1.146  -2.660  0.00  0.00    -0.288 N 
ATOM      6  C   UNL     1       2.426  -0.492  -1.649  0.00  0.00    +0.307 C 
ATOM      7  O   UNL     1       3.105  -0.049  -0.744  0.00  0.00    -0.252 OA
ATOM      8  H   UNL     1       3.995  -1.263  -2.668  0.00  0.00    +0.151 HD
ENDROOT
BRANCH   4   9
ATOM      9  C   UNL     1       2.433  -3.160  -3.838  0.00  0.00    -0.022 A 
ATOM     10  C   UNL     1       2.400  -3.931  -2.692  0.00  0.00    +0.008 A 
ATOM     11  C   UNL     1       2.614  -5.295  -2.769  0.00  0.00    +0.038 A 
ATOM     12  C   UNL     1       2.861  -5.888  -3.995  0.00  0.00    +0.123 A 
ATOM     13  C   UNL     1       2.893  -5.114  -5.143  0.00  0.00    +0.038 A 
ATOM     14  C   UNL     1       2.674  -3.752  -5.064  0.00  0.00    +0.008 A 
ATOM     15  F   UNL     1       3.071  -7.220  -4.072  0.00  0.00    -0.205 F 
ENDBRANCH   4   9
BRANCH   1  17
ATOM     16  C   UNL     1       0.587   1.907  -0.732  0.00  0.00    +0.025 C 
ATOM     17  C   UNL     1       0.531   0.401  -0.465  0.00  0.00    +0.111 C 
ENDBRANCH   1  17
BRANCH   3  18
ATOM     18  C   UNL     1      -0.178  -1.911  -4.652  0.00  0.00    +0.339 C 
ATOM     19  O   UNL     1      -1.365  -1.650  -4.587  0.00  0.00    -0.245 OA
BRANCH  18  20
ATOM     20  O   UNL     1       0.296  -2.648  -5.678  0.00  0.00    -0.462 OA
BRANCH  20  21
ATOM     21  C   UNL     1      -0.652  -3.088  -6.653  0.00  0.00    +0.229 C 
ATOM     22  C   UNL     1       0.066  -3.903  -7.731  0.00  0.00    +0.048 C 
ENDBRANCH  20  21
ENDBRANCH  18  20
ENDBRANCH   3  18
BRANCH   2  23
ATOM     23  C   UNL     1      -1.234  -0.517  -2.433  0.00  0.00    -0.026 C 
BRANCH  23  24
ATOM     24  N   UNL     1      -1.889  -1.721  -1.904  0.00  0.00    +0.384 N 
ATOM     25  C   UNL     1      -3.335  -1.535  -1.992  0.00  0.00    -0.077 C 
ATOM     26  C   UNL     1      -4.003  -2.882  -2.163  0.00  0.00    +0.000 C 
ATOM     27  C   UNL     1      -4.411  -3.431  -0.784  0.00  0.00    +0.106 C 
ATOM     28  N   UNL     1      -3.371  -3.153   0.227  0.00  0.00    -0.299 N 
ATOM     29  C   UNL     1      -1.958  -3.293  -0.055  0.00  0.00    +0.089 C 
ATOM     30  C   UNL     1      -1.397  -1.961  -0.602  0.00  0.00    -0.059 C 
ATOM     31  C   UNL     1      -3.752  -2.753   1.457  0.00  0.00    +0.247 C 
ATOM     32  O   UNL     1      -2.916  -2.415   2.272  0.00  0.00    -0.270 OA
ATOM     33  H   UNL     1      -1.635  -2.503  -2.489  0.00  0.00    -0.081 HD
BRANCH  31  34
ATOM     34  C   UNL     1      -5.186  -2.725   1.814  0.00  0.00    +0.040 A 
ATOM     35  C   UNL     1      -6.050  -3.705   1.322  0.00  0.00    +0.013 A 
ATOM     36  C   UNL     1      -7.388  -3.675   1.659  0.00  0.00    +0.004 A 
ATOM     37  C   UNL     1      -7.875  -2.675   2.482  0.00  0.00    +0.038 A 
ATOM     38  C   UNL     1      -7.024  -1.699   2.974  0.00  0.00    +0.124 A 
ATOM     39  C   UNL     1      -5.681  -1.722   2.648  0.00  0.00    +0.051 A 
ATOM     40  F   UNL     1      -7.507  -0.726   3.777  0.00  0.00    -0.205 F 
ENDBRANCH  31  34
ENDBRANCH  23  24
ENDBRANCH   2  23
TORSDOF 8
