REMARK  Name = ZINC67230809
REMARK  12 active torsions:
REMARK  status: ('A' for Active; 'I' for Inactive)
REMARK    1  A    between atoms: C_1  and  C_2
REMARK    2  A    between atoms: C_2  and  N_3
REMARK    3  A    between atoms: N_3  and  C_4
REMARK    4  A    between atoms: C_4  and  C_5
REMARK    5  A    between atoms: N_7  and  C_8
REMARK    6  A    between atoms: C_8  and  C_9
REMARK    7  A    between atoms: C_8  and  C_10
REMARK    8  A    between atoms: C_11  and  C_13
REMARK    9  A    between atoms: C_13  and  N_14
REMARK   10  A    between atoms: C_16  and  C_23
REMARK   11  A    between atoms: C_20  and  C_21
REMARK   12  A    between atoms: C_20  and  C_22
REMARK                            x       y       z     vdW  Elec       q    Type
REMARK                         _______ _______ _______ _____ _____    ______ ____
ROOT
ATOM      1  C   UNL     1      -1.274  -0.497   2.484  0.00  0.00    +0.181 C 
ENDROOT
BRANCH   1   2
ATOM      2  N   UNL     1      -2.159  -0.833   3.607  0.00  0.00    -0.284 NA
ATOM      3  C   UNL     1      -3.307   0.083   3.666  0.00  0.00    +0.122 C 
ATOM      4  C   UNL     1      -4.232  -0.339   4.811  0.00  0.00    +0.162 C 
ATOM      5  O   UNL     1      -3.490  -0.357   6.034  0.00  0.00    -0.369 OA
ATOM      6  C   UNL     1      -2.365  -1.240   6.012  0.00  0.00    +0.182 C 
ATOM      7  C   UNL     1      -1.422  -0.827   4.879  0.00  0.00    +0.040 C 
ATOM      8  C   UNL     1      -0.256  -1.815   4.799  0.00  0.00    +0.030 C 
ATOM      9  C   UNL     1      -0.883   0.580   5.150  0.00  0.00    +0.030 C 
BRANCH   4  10
ATOM     10  C   UNL     1      -5.370   0.642   4.926  0.00  0.00    -0.018 A 
ATOM     11  C   UNL     1      -5.178   1.851   5.567  0.00  0.00    +0.006 A 
ATOM     12  C   UNL     1      -6.222   2.751   5.672  0.00  0.00    +0.000 A 
ATOM     13  C   UNL     1      -7.458   2.441   5.137  0.00  0.00    +0.000 A 
ATOM     14  C   UNL     1      -7.650   1.232   4.495  0.00  0.00    +0.000 A 
ATOM     15  C   UNL     1      -6.605   0.334   4.386  0.00  0.00    +0.006 A 
ENDBRANCH   4  10
ENDBRANCH   1   2
BRANCH   1  17
ATOM     16  N   UNL     1      -1.372  -0.511   0.012  0.00  0.00    -0.292 N 
ATOM     17  C   UNL     1      -1.993  -0.751   1.184  0.00  0.00    +0.230 C 
ATOM     18  O   UNL     1      -3.131  -1.171   1.193  0.00  0.00    -0.274 OA
BRANCH  16  20
ATOM     19  C   UNL     1      -0.019   1.526   0.010  0.00  0.00    +0.024 C 
ATOM     20  C   UNL     1       0.002  -0.004   0.002  0.00  0.00    +0.105 C 
ENDBRANCH  16  20
BRANCH  16  21
ATOM     21  C   UNL     1      -2.072  -0.758  -1.251  0.00  0.00    +0.203 C 
BRANCH  21  22
ATOM     22  C   UNL     1      -1.820  -2.175  -1.696  0.00  0.00    +0.231 C 
ATOM     23  O   UNL     1      -1.125  -2.908  -1.024  0.00  0.00    -0.274 OA
ATOM     24  N   UNL     1      -2.367  -2.630  -2.841  0.00  0.00    -0.312 N 
ATOM     25  H   UNL     1      -2.923  -2.044  -3.378  0.00  0.00    +0.149 HD
BRANCH  24  26
ATOM     26  C   UNL     1      -2.122  -4.008  -3.274  0.00  0.00    +0.067 C 
ATOM     27  C   UNL     1      -3.126  -4.941  -2.595  0.00  0.00    +0.027 C 
ATOM     28  C   UNL     1      -2.284  -4.102  -4.792  0.00  0.00    +0.027 C 
ENDBRANCH  24  26
ENDBRANCH  21  22
ENDBRANCH  16  21
ENDBRANCH   1  17
TORSDOF 7
