REMARK  Name = ZINC19717886
REMARK  13 active torsions:
REMARK  status: ('A' for Active; 'I' for Inactive)
REMARK    1  A    between atoms: C_1  and  C_2
REMARK    2  A    between atoms: C_3  and  C_29
REMARK    3  A    between atoms: N_5  and  C_8
REMARK    4  A    between atoms: C_6  and  C_7
REMARK    5  A    between atoms: C_8  and  C_9
REMARK    6  A    between atoms: C_9  and  C_11
REMARK    7  A    between atoms: C_9  and  C_12
REMARK    8  A    between atoms: C_14  and  N_19
REMARK    9  A    between atoms: C_16  and  C_18
REMARK   10  A    between atoms: N_19  and  C_20
REMARK   11  A    between atoms: C_20  and  C_21
REMARK   12  A    between atoms: C_26  and  O_27
REMARK   13  A    between atoms: O_27  and  C_28
REMARK                            x       y       z     vdW  Elec       q    Type
REMARK                         _______ _______ _______ _____ _____    ______ ____
ROOT
ATOM      1  C   UNL     1      -6.032   2.160  -0.803  0.00  0.00    +0.051 A 
ATOM      2  C   UNL     1      -4.881   1.452  -0.519  0.00  0.00    +0.067 A 
ATOM      3  C   UNL     1      -3.998   1.176  -1.564  0.00  0.00    +0.123 A 
ATOM      4  N   UNL     1      -4.301   1.593  -2.790  0.00  0.00    -0.218 NA
ATOM      5  C   UNL     1      -5.414   2.261  -3.017  0.00  0.00    +0.128 A 
ATOM      6  N   UNL     1      -6.265   2.542  -2.051  0.00  0.00    -0.237 NA
ATOM      7  C   UNL     1      -5.721   2.716  -4.420  0.00  0.00    +0.088 C 
ENDROOT
BRANCH   1   8
ATOM      8  C   UNL     1      -7.015   2.490   0.291  0.00  0.00    +0.056 C 
ATOM      9  C   UNL     1      -6.257   2.766   1.591  0.00  0.00    +0.016 C 
BRANCH   8  10
ATOM     10  C   UNL     1      -7.966   1.309   0.495  0.00  0.00    +0.153 C 
BRANCH  10  15
ATOM     11  C   UNL     1     -10.411   1.969   4.820  0.00  0.00    +0.047 C 
ATOM     12  C   UNL     1     -10.064   1.964   3.354  0.00  0.00    -0.007 A 
ATOM     13  C   UNL     1     -10.872   2.437   2.315  0.00  0.00    +0.063 A 
ATOM     14  N   UNL     1     -10.231   2.264   1.188  0.00  0.00    -0.176 NA
ATOM     15  N   UNL     1      -8.993   1.673   1.474  0.00  0.00    -0.267 N 
ATOM     16  C   UNL     1      -8.918   1.494   2.809  0.00  0.00    +0.039 A 
ATOM     17  C   UNL     1      -7.762   0.885   3.560  0.00  0.00    +0.065 C 
ATOM     18  C   UNL     1     -12.244   3.042   2.468  0.00  0.00    +0.068 C 
ENDBRANCH  10  15
ENDBRANCH   8  10
ENDBRANCH   1   8
BRANCH   3  19
ATOM     19  N   UNL     1      -2.828   0.473  -1.329  0.00  0.00    -0.325 N 
ATOM     20  H   UNL     1      -2.140   0.256  -2.160  0.00  0.00    +0.148 HD
BRANCH  19  21
ATOM     21  C   UNL     1      -2.505   0.019   0.025  0.00  0.00    +0.142 C 
BRANCH  21  22
ATOM     22  C   UNL     1      -1.189  -0.715   0.010  0.00  0.00    +0.011 A 
ATOM     23  C   UNL     1      -1.167  -2.096   0.002  0.00  0.00    +0.009 A 
ATOM     24  C   UNL     1       0.040  -2.770  -0.013  0.00  0.00    +0.001 A 
ATOM     25  C   UNL     1       1.228  -2.064  -0.021  0.00  0.00    +0.004 A 
ATOM     26  C   UNL     1       1.212  -0.682  -0.019  0.00  0.00    +0.046 A 
ATOM     27  C   UNL     1       0.002  -0.004   0.002  0.00  0.00    +0.125 A 
BRANCH  27  28
ATOM     28  O   UNL     1      -0.016   1.355   0.009  0.00  0.00    -0.495 OA
ATOM     29  C   UNL     1       1.248   2.021   0.001  0.00  0.00    +0.277 C 
ENDBRANCH  27  28
ENDBRANCH  21  22
ENDBRANCH  19  21
ENDBRANCH   3  19
TORSDOF 7
