REMARK  Name = ZINC39457726
REMARK  5 active torsions:
REMARK  status: ('A' for Active; 'I' for Inactive)
REMARK    1  A    between atoms: C_1  and  C_2
REMARK    2  A    between atoms: C_10  and  S_18
REMARK    3  A    between atoms: S_18  and  C_21
REMARK    4  A    between atoms: C_21  and  C_22
REMARK    5  A    between atoms: C_21  and  C_23
REMARK                            x       y       z     vdW  Elec       q    Type
REMARK                         _______ _______ _______ _____ _____    ______ ____
ROOT
ATOM      1  C   UNL     1      -0.734   1.311   2.546  0.00  0.00    +0.066 C 
ATOM      2  C   UNL     1      -0.565  -0.100   2.046  0.00  0.00    +0.048 A 
ATOM      3  C   UNL     1      -0.339  -0.461   0.758  0.00  0.00    +0.043 A 
ATOM      4  C   UNL     1      -0.240  -1.853   0.719  0.00  0.00    -0.004 A 
ATOM      5  C   UNL     1      -0.400  -2.305   2.005  0.00  0.00    +0.089 A 
ATOM      6  N   UNL     1      -0.608  -1.226   2.813  0.00  0.00    -0.254 N 
ATOM      7 CL   UNL     1      -0.881  -1.278   4.500  0.00  0.00    +0.019 Cl
ATOM      8  C   UNL     1      -0.311  -3.733   2.359  0.00  0.00    +0.102 A 
ATOM      9  C   UNL     1       0.802  -4.487   1.761  0.00  0.00    +0.070 A 
ATOM     10  C   UNL     1       0.914  -5.841   2.025  0.00  0.00    +0.110 A 
ATOM     11  C   UNL     1      -0.041  -6.424   2.880  0.00  0.00    +0.026 A 
ATOM     12  C   UNL     1       0.018  -7.797   3.183  0.00  0.00    +0.012 A 
ATOM     13  C   UNL     1      -0.903  -8.342   4.025  0.00  0.00    +0.001 A 
ATOM     14  C   UNL     1      -1.907  -7.559   4.590  0.00  0.00    +0.002 A 
ATOM     15  C   UNL     1      -1.999  -6.229   4.313  0.00  0.00    +0.028 A 
ATOM     16  C   UNL     1      -1.070  -5.627   3.444  0.00  0.00    +0.074 A 
ATOM     17  N   UNL     1      -1.169  -4.322   3.159  0.00  0.00    -0.244 NA
ATOM     18  C   UNL     1       1.761  -3.765   0.927  0.00  0.00    +0.167 C 
ATOM     19  O   UNL     1       2.865  -3.518   1.366  0.00  0.00    -0.292 OA
ATOM     20  C   UNL     1       1.403  -3.320  -0.472  0.00  0.00    +0.084 C 
ATOM     21  C   UNL     1      -0.018  -2.739  -0.474  0.00  0.00    +0.046 C 
ATOM     22 BR   UNL     1      -0.185   0.710  -0.718  0.00  0.00    -0.048 Br
ENDROOT
BRANCH  10  23
ATOM     23  S   UNL     1       2.208  -6.803   1.315  0.00  0.00    +0.001 S 
ATOM     24  O   UNL     1       1.593  -8.035   0.964  0.00  0.00    -0.169 OA
ATOM     25  O   UNL     1       2.775  -5.967   0.316  0.00  0.00    -0.169 OA
BRANCH  23  26
ATOM     26  C   UNL     1       3.394  -7.058   2.664  0.00  0.00    +0.130 C 
ATOM     27  C   UNL     1       4.555  -7.921   2.166  0.00  0.00    +0.032 C 
ATOM     28  C   UNL     1       3.929  -5.704   3.134  0.00  0.00    +0.032 C 
ENDBRANCH  23  26
ENDBRANCH  10  23
TORSDOF 2
