REMARK  Name = ZINC08871750
REMARK  8 active torsions:
REMARK  status: ('A' for Active; 'I' for Inactive)
REMARK    1  A    between atoms: C_1  and  C_2
REMARK    2  A    between atoms: C_2  and  C_3
REMARK    3  A    between atoms: C_3  and  N_4
REMARK    4  A    between atoms: C_8  and  C_9
REMARK    5  A    between atoms: C_10  and  N_21
REMARK    6  A    between atoms: C_15  and  C_20
REMARK    7  A    between atoms: C_26  and  C_27
REMARK    8  A    between atoms: C_26  and  N_65
REMARK                            x       y       z     vdW  Elec       q    Type
REMARK                         _______ _______ _______ _____ _____    ______ ____
ROOT
ATOM      1  C   UNL     1       4.663  -3.580  -5.620  0.00  0.00    +0.081 A 
ATOM      2  C   UNL     1       4.894  -2.392  -4.888  0.00  0.00    +0.136 A 
ATOM      3  N   UNL     1       5.755  -1.496  -5.351  0.00  0.00    -0.214 NA
ATOM      4  C   UNL     1       6.409  -1.683  -6.498  0.00  0.00    +0.142 A 
ATOM      5  C   UNL     1       7.310  -0.697  -6.939  0.00  0.00    +0.047 A 
ATOM      6  C   UNL     1       7.984  -0.879  -8.110  0.00  0.00    +0.008 A 
ATOM      7  C   UNL     1       7.770  -2.045  -8.858  0.00  0.00    -0.034 A 
ATOM      8  C   UNL     1       6.900  -2.982  -8.418  0.00  0.00    +0.099 A 
ATOM      9  N   UNL     1       6.221  -2.809  -7.249  0.00  0.00    -0.267 N 
ATOM     10  C   UNL     1       5.359  -3.765  -6.839  0.00  0.00    +0.267 A 
ATOM     11  O   UNL     1       5.187  -4.771  -7.504  0.00  0.00    -0.267 OA
ATOM     12  C   UNL     1       8.511  -2.255 -10.153  0.00  0.00    +0.045 C 
ENDROOT
BRANCH   1  17
ATOM     13  N   UNL     1       3.427  -6.346  -1.969  0.00  0.00    -0.255 N 
ATOM     14  C   UNL     1       3.063  -5.984  -3.187  0.00  0.00    +0.258 C 
ATOM     15  O   UNL     1       2.039  -6.412  -3.688  0.00  0.00    -0.269 OA
ATOM     16  C   UNL     1       3.903  -5.078  -3.896  0.00  0.00    +0.077 C 
ATOM     17  C   UNL     1       3.755  -4.557  -5.149  0.00  0.00    +0.037 C 
ATOM     18  S   UNL     1       5.208  -4.817  -2.703  0.00  0.00    -0.061 S 
ATOM     19  C   UNL     1       4.563  -5.870  -1.412  0.00  0.00    +0.121 C 
ATOM     20  S   UNL     1       5.221  -6.199   0.134  0.00  0.00    -0.027 S 
BRANCH  13  21
ATOM     21  C   UNL     1       2.586  -7.276  -1.211  0.00  0.00    +0.115 C 
BRANCH  21  23
ATOM     22  C   UNL     1       2.150  -9.684  -0.706  0.00  0.00    +0.005 C 
ATOM     23  C   UNL     1       3.028  -8.712  -1.498  0.00  0.00    +0.016 C 
ENDBRANCH  21  23
ENDBRANCH  13  21
ENDBRANCH   1  17
BRANCH   2  24
ATOM     24  N   UNL     1       4.234  -2.169  -3.700  0.00  0.00    -0.318 N 
ATOM     25  C   UNL     1       4.781  -0.995  -3.005  0.00  0.00    +0.088 C 
ATOM     26  C   UNL     1       4.076  -0.830  -1.656  0.00  0.00    -0.059 C 
ATOM     27  C   UNL     1       2.084  -1.857  -2.571  0.00  0.00    -0.059 C 
ATOM     28  C   UNL     1       2.789  -2.022  -3.920  0.00  0.00    +0.088 C 
ATOM     29  N   UNL     1       2.627  -0.660  -1.893  0.00  0.00    +0.384 N 
ATOM     30  H   UNL     1       2.481   0.159  -2.494  0.00  0.00    -0.081 HD
BRANCH  29  31
ATOM     31  C   UNL     1       1.927  -0.445  -0.609  0.00  0.00    -0.043 C 
BRANCH  31  32
ATOM     32  C   UNL     1       0.499  -0.057  -0.893  0.00  0.00    -0.064 A 
ATOM     33  C   UNL     1      -0.477  -1.032  -0.985  0.00  0.00    +0.002 A 
ATOM     34  C   UNL     1      -1.787  -0.676  -1.245  0.00  0.00    +0.000 A 
ATOM     35  C   UNL     1      -2.122   0.655  -1.413  0.00  0.00    +0.000 A 
ATOM     36  C   UNL     1      -1.146   1.629  -1.320  0.00  0.00    +0.000 A 
ATOM     37  C   UNL     1       0.164   1.273  -1.060  0.00  0.00    +0.002 A 
ENDBRANCH  31  32
ENDBRANCH  29  31
ENDBRANCH   2  24
TORSDOF 6
