REMARK  Name = ZINC12493516
REMARK  9 active torsions:
REMARK  status: ('A' for Active; 'I' for Inactive)
REMARK    1  A    between atoms: C_1  and  C_2
REMARK    2  A    between atoms: N_11  and  C_12
REMARK    3  A    between atoms: C_12  and  C_13
REMARK    4  A    between atoms: C_13  and  N_57
REMARK    5  A    between atoms: C_14  and  N_57
REMARK    6  A    between atoms: C_15  and  N_57
REMARK    7  A    between atoms: C_16  and  C_18
REMARK    8  A    between atoms: N_23  and  S_24
REMARK    9  A    between atoms: S_24  and  C_27
REMARK                            x       y       z     vdW  Elec       q    Type
REMARK                         _______ _______ _______ _____ _____    ______ ____
ROOT
ATOM      1  C   UNL     1       0.654   3.652   0.967  0.00  0.00    +0.046 C 
ATOM      2  C   UNL     1       1.187   2.270   1.247  0.00  0.00    -0.023 A 
ATOM      3  C   UNL     1       0.319   1.264   1.582  0.00  0.00    +0.025 A 
ATOM      4  C   UNL     1       0.767  -0.024   1.842  0.00  0.00    +0.042 A 
ATOM      5  C   UNL     1       2.122  -0.296   1.772  0.00  0.00    +0.037 A 
ATOM      6  C   UNL     1       2.998   0.706   1.437  0.00  0.00    +0.042 A 
ATOM      7  C   UNL     1       2.577   2.026   1.160  0.00  0.00    +0.083 A 
ATOM      8  N   UNL     1       3.559   2.899   0.845  0.00  0.00    -0.224 NA
ATOM      9  C   UNL     1       4.824   2.551   0.798  0.00  0.00    +0.168 A 
ATOM     10  S   UNL     1       4.758   0.818   1.226  0.00  0.00    -0.052 S 
ATOM     11  N   UNL     1       5.928   3.331   0.493  0.00  0.00    -0.251 N 
ATOM     12  C   UNL     1       5.771   4.635   0.193  0.00  0.00    +0.240 C 
ATOM     13  O   UNL     1       4.677   5.150   0.284  0.00  0.00    -0.273 OA
ATOM     14 CL   UNL     1      -0.360  -1.278   2.257  0.00  0.00    -0.083 Cl
ENDROOT
BRANCH  12  15
ATOM     15  C   UNL     1       6.954   5.453  -0.255  0.00  0.00    +0.166 C 
ATOM     16  C   UNL     1       7.439   6.374   0.892  0.00  0.00    +0.031 C 
ATOM     17  C   UNL     1       8.153   7.504   0.105  0.00  0.00    +0.019 C 
ATOM     18  C   UNL     1       7.286   7.641  -1.165  0.00  0.00    +0.110 C 
ATOM     19  N   UNL     1       6.561   6.372  -1.339  0.00  0.00    -0.164 NA
BRANCH  19  20
ATOM     20  S   UNL     1       5.484   6.032  -2.550  0.00  0.00    +0.068 S 
ATOM     21  O   UNL     1       5.958   6.694  -3.714  0.00  0.00    -0.152 OA
ATOM     22  O   UNL     1       5.256   4.630  -2.509  0.00  0.00    -0.152 OA
BRANCH  20  23
ATOM     23  C   UNL     1       3.958   6.802  -2.120  0.00  0.00    +0.143 A 
ATOM     24  C   UNL     1       3.575   8.091  -2.288  0.00  0.00    +0.036 A 
ATOM     25  C   UNL     1       2.314   8.476  -1.874  0.00  0.00    +0.010 A 
ATOM     26  C   UNL     1       1.501   7.554  -1.301  0.00  0.00    +0.047 A 
ATOM     27  S   UNL     1       2.518   6.088  -1.343  0.00  0.00    -0.077 S 
ENDBRANCH  20  23
ENDBRANCH  19  20
ENDBRANCH  12  15
BRANCH  11  28
ATOM     28  C   UNL     1       7.267   2.736   0.498  0.00  0.00    +0.097 C 
BRANCH  28  29
ATOM     29  C   UNL     1       7.570   2.151  -0.882  0.00  0.00    -0.060 C 
BRANCH  29  32
ATOM     30  C   UNL     1       9.149   0.779  -2.102  0.00  0.00    -0.097 C 
ATOM     31  C   UNL     1       9.945   2.585  -0.701  0.00  0.00    -0.097 C 
ATOM     32  N   UNL     1       8.915   1.537  -0.855  0.00  0.00    +0.377 N 
ATOM     33  H   UNL     1       8.971   0.893  -0.058  0.00  0.00    -0.083 HD
ENDBRANCH  29  32
ENDBRANCH  28  29
ENDBRANCH  11  28
TORSDOF 6
