REMARK  Name = ZINC63642948
REMARK  8 active torsions:
REMARK  status: ('A' for Active; 'I' for Inactive)
REMARK    1  A    between atoms: C_1  and  C_2
REMARK    2  A    between atoms: C_2  and  O_3
REMARK    3  A    between atoms: O_3  and  C_4
REMARK    4  A    between atoms: C_4  and  C_6
REMARK    5  A    between atoms: C_18  and  N_20
REMARK    6  A    between atoms: C_21  and  C_23
REMARK    7  A    between atoms: C_23  and  S_24
REMARK    8  A    between atoms: S_24  and  C_25
REMARK                            x       y       z     vdW  Elec       q    Type
REMARK                         _______ _______ _______ _____ _____    ______ ____
ROOT
ATOM      1  N   UNL     1       3.243  -1.063  -1.373  0.00  0.00    -0.302 N 
ATOM      2  C   UNL     1       4.408  -1.284  -0.732  0.00  0.00    +0.224 C 
ATOM      3  O   UNL     1       5.207  -2.077  -1.183  0.00  0.00    -0.275 OA
ATOM      4  H   UNL     1       2.604  -0.428  -1.013  0.00  0.00    +0.150 HD
ENDROOT
BRANCH   1  14
ATOM      5  C   UNL     1       1.494  -2.313  -2.598  0.00  0.00    +0.132 C 
ATOM      6  C   UNL     1       1.408  -3.830  -2.569  0.00  0.00    +0.018 C 
ATOM      7  C   UNL     1       0.180  -4.347  -3.317  0.00  0.00    +0.005 C 
ATOM      8  C   UNL     1      -0.489  -5.456  -2.537  0.00  0.00    +0.000 C 
ATOM      9  C   UNL     1       0.524  -6.439  -1.907  0.00  0.00    +0.000 C 
ATOM     10  C   UNL     1       1.640  -6.759  -2.888  0.00  0.00    +0.001 C 
ATOM     11  C   UNL     1       2.835  -5.827  -2.721  0.00  0.00    +0.014 C 
ATOM     12  C   UNL     1       2.636  -4.461  -3.311  0.00  0.00    +0.052 C 
ATOM     13  S   UNL     1       3.956  -3.309  -2.741  0.00  0.00    -0.134 S 
ATOM     14  C   UNL     1       2.942  -1.781  -2.614  0.00  0.00    +0.145 C 
BRANCH   5  15
ATOM     15  C   UNL     1       0.793  -1.767  -1.381  0.00  0.00    +0.313 C 
ATOM     16  O   UNL     1       0.327  -2.523  -0.562  0.00  0.00    -0.250 OA
BRANCH  15  17
ATOM     17  O   UNL     1       0.687  -0.440  -1.207  0.00  0.00    -0.465 OA
BRANCH  17  19
ATOM     18  C   UNL     1      -0.011   1.537  -0.005  0.00  0.00    +0.048 C 
ATOM     19  C   UNL     1       0.010   0.007  -0.031  0.00  0.00    +0.229 C 
ENDBRANCH  17  19
ENDBRANCH  15  17
ENDBRANCH   5  15
ENDBRANCH   1  14
BRANCH   2  20
ATOM     20  C   UNL     1       4.717  -0.545   0.544  0.00  0.00    +0.169 C 
BRANCH  20  21
ATOM     21  S   UNL     1       6.345  -1.057   1.159  0.00  0.00    -0.118 S 
BRANCH  21  22
ATOM     22  C   UNL     1       6.616  -0.059   2.458  0.00  0.00    +0.014 C 
ATOM     23  C   UNL     1       5.731   0.864   3.007  0.00  0.00    +0.009 A 
ATOM     24  C   UNL     1       4.411   1.235   2.671  0.00  0.00    +0.011 A 
ATOM     25  C   UNL     1       3.773   2.189   3.397  0.00  0.00    +0.001 A 
ATOM     26  C   UNL     1       4.393   2.820   4.477  0.00  0.00    +0.002 A 
ATOM     27  C   UNL     1       5.659   2.514   4.855  0.00  0.00    +0.026 A 
ATOM     28  C   UNL     1       6.387   1.527   4.144  0.00  0.00    +0.044 A 
ATOM     29  N   UNL     1       7.610   1.057   4.309  0.00  0.00    -0.379 N 
ATOM     30  C   UNL     1       7.873   0.031   3.295  0.00  0.00    +0.155 C 
ATOM     31  H   UNL     1       8.234   1.341   4.995  0.00  0.00    +0.160 HD
ENDBRANCH  21  22
ENDBRANCH  20  21
ENDBRANCH   2  20
TORSDOF 7
