REMARK  Name = ZINC20347925
REMARK  13 active torsions:
REMARK  status: ('A' for Active; 'I' for Inactive)
REMARK    1  A    between atoms: C_1  and  C_2
REMARK    2  A    between atoms: C_5  and  C_8
REMARK    3  A    between atoms: C_8  and  C_10
REMARK    4  A    between atoms: C_10  and  S_11
REMARK    5  A    between atoms: S_11  and  C_12
REMARK    6  A    between atoms: C_13  and  C_37
REMARK    7  A    between atoms: C_14  and  C_32
REMARK    8  A    between atoms: C_16  and  C_20
REMARK    9  A    between atoms: C_17  and  C_19
REMARK   10  A    between atoms: N_22  and  C_23
REMARK   11  A    between atoms: C_24  and  C_31
REMARK   12  A    between atoms: C_26  and  C_30
REMARK   13  A    between atoms: C_28  and  C_29
REMARK                            x       y       z     vdW  Elec       q    Type
REMARK                         _______ _______ _______ _____ _____    ______ ____
ROOT
ATOM      1  C   UNL     1      -2.582   3.203   2.900  0.00  0.00    +0.080 C 
ATOM      2  C   UNL     1      -2.042   2.624   4.006  0.00  0.00    +0.072 C 
ATOM      3  C   UNL     1      -0.718   1.917   3.947  0.00  0.00    +0.134 C 
ATOM      4  C   UNL     1       0.030   2.285   2.698  0.00  0.00    +0.047 C 
ATOM      5  C   UNL     1      -0.582   2.868   1.655  0.00  0.00    +0.015 C 
ATOM      6  N   UNL     1      -1.917   3.164   1.696  0.00  0.00    -0.312 N 
ATOM      7  C   UNL     1       0.215   3.207   0.421  0.00  0.00    +0.061 C 
ATOM      8  H   UNL     1      -2.459   3.373   0.761  0.00  0.00    +0.152 HD
ENDROOT
BRANCH   3   9
ATOM      9  C   UNL     1      -0.950   0.428   3.967  0.00  0.00    +0.118 A 
ATOM     10  C   UNL     1      -0.509  -0.424   4.910  0.00  0.00    +0.045 A 
ATOM     11  C   UNL     1      -0.951  -1.714   4.535  0.00  0.00    +0.041 A 
ATOM     12  C   UNL     1      -1.635  -1.572   3.385  0.00  0.00    +0.195 A 
ATOM     13  O   UNL     1      -1.636  -0.272   3.049  0.00  0.00    -0.467 OA
ENDBRANCH   3   9
BRANCH   4  14
ATOM     14  C   UNL     1       1.416   2.009   2.618  0.00  0.00    +0.247 C 
ATOM     15  O   UNL     1       2.058   2.390   1.655  0.00  0.00    -0.270 OA
ATOM     16  N   UNL     1       2.025   1.325   3.606  0.00  0.00    -0.281 N 
ATOM     17  H   UNL     1       1.431   0.901   4.429  0.00  0.00    +0.155 HD
BRANCH  16  18
ATOM     18  C   UNL     1       3.413   1.155   3.586  0.00  0.00    +0.040 A 
ATOM     19  C   UNL     1       4.025   0.559   2.491  0.00  0.00    -0.029 A 
ATOM     20  C   UNL     1       5.396   0.395   2.472  0.00  0.00    +0.008 A 
ATOM     21  C   UNL     1       6.159   0.816   3.546  0.00  0.00    -0.050 A 
ATOM     22  C   UNL     1       5.552   1.405   4.640  0.00  0.00    +0.008 A 
ATOM     23  C   UNL     1       4.182   1.575   4.663  0.00  0.00    -0.029 A 
ATOM     24  C   UNL     1       3.522   2.218   5.856  0.00  0.00    +0.045 C 
ATOM     25  C   UNL     1       7.654   0.631   3.524  0.00  0.00    +0.044 C 
ATOM     26  C   UNL     1       3.194   0.095   1.322  0.00  0.00    +0.045 C 
ENDBRANCH  16  18
ENDBRANCH   4  14
BRANCH   2  27
ATOM     27  C   UNL     1      -2.748   2.692   5.250  0.00  0.00    +0.098 C 
ATOM     28  N   UNL     1      -3.309   2.744   6.236  0.00  0.00    -0.191 NA
ENDBRANCH   2  27
BRANCH   1  29
ATOM     29  S   UNL     1      -4.143   4.012   3.010  0.00  0.00    -0.101 S 
BRANCH  29  30
ATOM     30  C   UNL     1      -4.335   4.561   1.296  0.00  0.00    +0.155 C 
BRANCH  30  31
ATOM     31  C   UNL     1      -5.640   5.301   1.148  0.00  0.00    +0.173 C 
ATOM     32  O   UNL     1      -6.368   5.442   2.107  0.00  0.00    -0.291 OA
BRANCH  31  37
ATOM     33  C   UNL     1      -7.162   7.449  -3.962  0.00  0.00    +0.044 C 
ATOM     34  C   UNL     1      -6.763   6.886  -2.622  0.00  0.00    -0.050 A 
ATOM     35  C   UNL     1      -7.598   7.049  -1.530  0.00  0.00    +0.004 A 
ATOM     36  C   UNL     1      -7.240   6.537  -0.301  0.00  0.00    +0.011 A 
ATOM     37  C   UNL     1      -6.029   5.851  -0.160  0.00  0.00    +0.018 A 
ATOM     38  C   UNL     1      -5.189   5.694  -1.267  0.00  0.00    +0.011 A 
ATOM     39  C   UNL     1      -5.564   6.208  -2.490  0.00  0.00    +0.004 A 
ENDBRANCH  31  37
ENDBRANCH  30  31
ENDBRANCH  29  30
ENDBRANCH   1  29
TORSDOF 8
