REMARK  Name = ZINC33281164
REMARK  11 active torsions:
REMARK  status: ('A' for Active; 'I' for Inactive)
REMARK    1  A    between atoms: C_1  and  C_2
REMARK    2  A    between atoms: C_2  and  C_3
REMARK    3  A    between atoms: C_5  and  C_8
REMARK    4  A    between atoms: C_8  and  N_9
REMARK    5  A    between atoms: C_15  and  C_36
REMARK    6  A    between atoms: N_19  and  C_23
REMARK    7  A    between atoms: C_23  and  C_24
REMARK    8  A    between atoms: N_26  and  C_27
REMARK    9  A    between atoms: C_28  and  C_35
REMARK   10  A    between atoms: C_30  and  C_34
REMARK   11  A    between atoms: C_32  and  C_33
REMARK                            x       y       z     vdW  Elec       q    Type
REMARK                         _______ _______ _______ _____ _____    ______ ____
ROOT
ATOM      1  N   UNL     1       3.694  -5.203   3.754  0.00  0.00    -0.288 N 
ATOM      2  C   UNL     1       4.198  -6.195   2.977  0.00  0.00    +0.203 A 
ATOM      3  N   UNL     1       5.470  -6.281   2.708  0.00  0.00    -0.235 NA
ATOM      4  C   UNL     1       6.348  -5.390   3.203  0.00  0.00    +0.103 A 
ATOM      5  C   UNL     1       7.803  -5.227   3.089  0.00  0.00    +0.026 A 
ATOM      6  C   UNL     1       8.803  -5.940   2.425  0.00  0.00    +0.015 A 
ATOM      7  C   UNL     1      10.104  -5.529   2.512  0.00  0.00    -0.050 A 
ATOM      8  C   UNL     1      10.440  -4.407   3.256  0.00  0.00    +0.005 A 
ATOM      9  C   UNL     1       9.469  -3.689   3.919  0.00  0.00    +0.027 A 
ATOM     10  C   UNL     1       8.137  -4.090   3.844  0.00  0.00    +0.052 A 
ATOM     11  N   UNL     1       6.979  -3.579   4.389  0.00  0.00    -0.325 N 
ATOM     12  C   UNL     1       5.896  -4.350   4.012  0.00  0.00    +0.134 A 
ATOM     13  C   UNL     1       4.511  -4.270   4.288  0.00  0.00    +0.279 A 
ATOM     14  O   UNL     1       4.066  -3.378   4.990  0.00  0.00    -0.265 OA
ATOM     15  C   UNL     1      11.181  -6.301   1.793  0.00  0.00    +0.044 C 
ENDROOT
BRANCH   1  16
ATOM     16  C   UNL     1       2.255  -5.148   4.021  0.00  0.00    +0.225 C 
BRANCH  16  19
ATOM     17  C   UNL     1       0.589  -3.653   1.214  0.00  0.00    +0.172 A 
ATOM     18  N   UNL     1       1.083  -4.743   1.829  0.00  0.00    -0.195 NA
ATOM     19  C   UNL     1       1.579  -4.313   2.964  0.00  0.00    +0.247 A 
ATOM     20  O   UNL     1       1.367  -2.994   3.006  0.00  0.00    -0.336 OA
ATOM     21  N   UNL     1       0.799  -2.636   1.996  0.00  0.00    -0.061 NA
BRANCH  17  23
ATOM     22  C   UNL     1       0.956  -3.381  -1.223  0.00  0.00    +0.012 C 
ATOM     23  C   UNL     1      -0.089  -3.618  -0.131  0.00  0.00    +0.076 C 
ENDBRANCH  17  23
ENDBRANCH  16  19
ENDBRANCH   1  16
BRANCH  11  24
ATOM     24  C   UNL     1       6.905  -2.391   5.243  0.00  0.00    +0.218 C 
BRANCH  24  25
ATOM     25  C   UNL     1       7.061  -2.799   6.686  0.00  0.00    +0.237 C 
ATOM     26  O   UNL     1       7.218  -3.967   6.972  0.00  0.00    -0.274 OA
ATOM     27  N   UNL     1       7.026  -1.866   7.657  0.00  0.00    -0.284 N 
ATOM     28  H   UNL     1       6.944  -0.801   7.395  0.00  0.00    +0.155 HD
BRANCH  27  29
ATOM     29  C   UNL     1       7.095  -2.252   9.001  0.00  0.00    +0.039 A 
ATOM     30  C   UNL     1       6.223  -3.214   9.494  0.00  0.00    -0.029 A 
ATOM     31  C   UNL     1       6.296  -3.596  10.819  0.00  0.00    +0.008 A 
ATOM     32  C   UNL     1       7.229  -3.014  11.657  0.00  0.00    -0.050 A 
ATOM     33  C   UNL     1       8.096  -2.053  11.170  0.00  0.00    +0.008 A 
ATOM     34  C   UNL     1       8.031  -1.670   9.845  0.00  0.00    -0.029 A 
ATOM     35  C   UNL     1       8.976  -0.622   9.316  0.00  0.00    +0.045 C 
ATOM     36  C   UNL     1       7.303  -3.430  13.104  0.00  0.00    +0.044 C 
ATOM     37  C   UNL     1       5.201  -3.844   8.582  0.00  0.00    +0.045 C 
ENDBRANCH  27  29
ENDBRANCH  24  25
ENDBRANCH  11  24
TORSDOF 6
