REMARK  Name = ZINC04123697
REMARK  2 active torsions:
REMARK  status: ('A' for Active; 'I' for Inactive)
REMARK    1  A    between atoms: C_5  and  C_7
REMARK    2  A    between atoms: C_20  and  N_23
REMARK                            x       y       z     vdW  Elec       q    Type
REMARK                         _______ _______ _______ _____ _____    ______ ____
ROOT
ATOM      1  C   UNL     1      -2.552   3.874   0.048  0.00  0.00    +0.108 C 
ATOM      2  C   UNL     1      -3.036   4.035   1.474  0.00  0.00    +0.029 C 
ATOM      3  C   UNL     1      -3.219   2.770   2.320  0.00  0.00    +0.033 C 
ATOM      4  C   UNL     1      -2.947   3.304   3.729  0.00  0.00    -0.030 C 
ATOM      5  C   UNL     1      -2.156   4.369   3.664  0.00  0.00    -0.023 C 
ATOM      6  C   UNL     1      -1.806   4.612   2.243  0.00  0.00    +0.049 C 
ATOM      7  C   UNL     1      -1.577   5.975   1.714  0.00  0.00    -0.017 A 
ATOM      8  C   UNL     1      -1.095   6.991   2.512  0.00  0.00    +0.006 A 
ATOM      9  C   UNL     1      -0.876   8.251   1.988  0.00  0.00    +0.003 A 
ATOM     10  C   UNL     1      -1.142   8.491   0.652  0.00  0.00    +0.034 A 
ATOM     11  C   UNL     1      -1.629   7.483  -0.151  0.00  0.00    +0.147 A 
ATOM     12  C   UNL     1      -1.863   6.207   0.366  0.00  0.00    +0.062 A 
ATOM     13  N   UNL     1      -2.376   5.226  -0.507  0.00  0.00    -0.335 N 
ATOM     14  H   UNL     1      -1.869   5.195  -1.379  0.00  0.00    +0.147 HD
ENDROOT
BRANCH   1  19
ATOM     15  C   UNL     1       1.156   3.166   0.008  0.00  0.00    +0.000 A 
ATOM     16  C   UNL     1       1.174   1.783   0.000  0.00  0.00    +0.003 A 
ATOM     17  C   UNL     1      -0.013   1.076   0.008  0.00  0.00    +0.039 A 
ATOM     18  C   UNL     1      -1.221   1.752   0.017  0.00  0.00    +0.128 A 
ATOM     19  C   UNL     1      -1.238   3.136   0.031  0.00  0.00    +0.008 A 
ATOM     20  C   UNL     1      -0.050   3.842   0.023  0.00  0.00    +0.008 A 
ATOM     21  F   UNL     1      -2.382   1.062   0.019  0.00  0.00    -0.205 F 
ENDBRANCH   1  19
BRANCH  11  22
ATOM     22  N   UNL     1      -1.907   7.755  -1.579  0.00  0.00    +0.058 N 
ATOM     23  O   UNL     1      -1.706   8.866  -2.037  0.00  0.00    -0.126 OA
ATOM     24  O   UNL     1      -2.338   6.870  -2.295  0.00  0.00    -0.126 OA
ENDBRANCH  11  22
TORSDOF 2
