REMARK  Name = ZINC15076786
REMARK  6 active torsions:
REMARK  status: ('A' for Active; 'I' for Inactive)
REMARK    1  A    between atoms: C_1  and  C_2
REMARK    2  A    between atoms: C_5  and  C_28
REMARK    3  A    between atoms: C_6  and  C_8
REMARK    4  A    between atoms: C_9  and  C_14
REMARK    5  A    between atoms: C_14  and  N_52
REMARK    6  A    between atoms: C_15  and  N_52
REMARK                            x       y       z     vdW  Elec       q    Type
REMARK                         _______ _______ _______ _____ _____    ______ ____
ROOT
ATOM      1  C   UNL     1      -1.213   2.278  -0.375  0.00  0.00    -0.043 C 
ENDROOT
BRANCH   1   3
ATOM      2  C   UNL     1       0.008  -0.002  -0.120  0.00  0.00    +0.094 A 
ATOM      3  C   UNL     1      -0.002   1.406  -0.165  0.00  0.00    -0.019 A 
ATOM      4  C   UNL     1       1.267   1.835   0.006  0.00  0.00    +0.107 A 
ATOM      5  N   UNL     1       2.057   0.750   0.156  0.00  0.00    -0.284 N 
ATOM      6  H   UNL     1       3.047   0.760   0.300  0.00  0.00    +0.188 HD
ATOM      7  N   UNL     1       1.250  -0.392   0.074  0.00  0.00    -0.174 NA
BRANCH   2  13
ATOM      8  C   UNL     1      -4.667  -1.214   1.146  0.00  0.00    +0.044 C 
ATOM      9  C   UNL     1      -3.420  -1.475   0.341  0.00  0.00    -0.050 A 
ATOM     10  C   UNL     1      -3.376  -2.544  -0.535  0.00  0.00    +0.003 A 
ATOM     11  C   UNL     1      -2.235  -2.789  -1.277  0.00  0.00    +0.004 A 
ATOM     12  C   UNL     1      -1.133  -1.967  -1.147  0.00  0.00    -0.041 A 
ATOM     13  C   UNL     1      -1.173  -0.889  -0.265  0.00  0.00    +0.005 A 
ATOM     14  C   UNL     1      -2.324  -0.650   0.484  0.00  0.00    +0.013 A 
ATOM     15  C   UNL     1       0.110  -2.236  -1.955  0.00  0.00    +0.044 C 
ENDBRANCH   2  13
ENDBRANCH   1   3
BRANCH   1  16
ATOM     16  N   UNL     1      -1.939   2.413   0.902  0.00  0.00    +0.385 N 
ATOM     17  H   UNL     1      -1.319   2.839   1.601  0.00  0.00    -0.085 HD
ATOM     18  H   UNL     1      -2.231   1.483   1.226  0.00  0.00    -0.085 HD
BRANCH  16  19
ATOM     19  C   UNL     1      -3.131   3.263   0.727  0.00  0.00    -0.054 C 
ATOM     20  C   UNL     1      -4.163   2.912   1.802  0.00  0.00    -0.013 C 
ATOM     21  C   UNL     1      -5.374   3.838   1.658  0.00  0.00    +0.017 C 
ATOM     22  C   UNL     1      -4.913   5.293   1.773  0.00  0.00    +0.108 C 
ATOM     23  N   UNL     1      -3.928   5.580   0.723  0.00  0.00    -0.301 N 
ATOM     24  C   UNL     1      -2.736   4.735   0.868  0.00  0.00    +0.092 C 
ATOM     25  C   UNL     1      -3.587   6.921   0.716  0.00  0.00    +0.218 A 
ATOM     26  N   UNL     1      -2.314   7.266   0.838  0.00  0.00    -0.223 NA
ATOM     27  C   UNL     1      -1.954   8.539   0.829  0.00  0.00    +0.116 A 
ATOM     28  C   UNL     1      -2.928   9.516   0.701  0.00  0.00    +0.039 A 
ATOM     29  C   UNL     1      -4.251   9.121   0.581  0.00  0.00    +0.116 A 
ATOM     30  N   UNL     1      -4.543   7.830   0.592  0.00  0.00    -0.223 NA
ENDBRANCH  16  19
ENDBRANCH   1  16
TORSDOF 4
