REMARK  Name = ZINC39353217
REMARK  8 active torsions:
REMARK  status: ('A' for Active; 'I' for Inactive)
REMARK    1  A    between atoms: C_1  and  C_2
REMARK    2  A    between atoms: C_4  and  C_18
REMARK    3  A    between atoms: C_5  and  C_17
REMARK    4  A    between atoms: N_6  and  C_7
REMARK    5  A    between atoms: C_10  and  S_13
REMARK    6  A    between atoms: S_13  and  N_16
REMARK    7  A    between atoms: C_19  and  C_20
REMARK    8  A    between atoms: C_19  and  C_22
REMARK                            x       y       z     vdW  Elec       q    Type
REMARK                         _______ _______ _______ _____ _____    ______ ____
ROOT
ATOM      1  C   UNL     1       0.368   1.604  -0.430  0.00  0.00    +0.064 C 
ATOM      2  C   UNL     1       0.387   0.102  -0.320  0.00  0.00    +0.022 A 
ATOM      3  C   UNL     1       0.104  -0.756  -1.316  0.00  0.00    +0.031 A 
ATOM      4  C   UNL     1       0.248  -2.107  -0.759  0.00  0.00    -0.003 A 
ATOM      5  C   UNL     1       0.617  -1.938   0.559  0.00  0.00    +0.028 A 
ATOM      6  N   UNL     1       0.700  -0.606   0.806  0.00  0.00    -0.317 N 
ATOM      7  C   UNL     1       0.884  -3.041   1.552  0.00  0.00    +0.064 C 
ENDROOT
BRANCH   6   8
ATOM      8  C   UNL     1       1.054  -0.039   2.038  0.00  0.00    +0.047 A 
ATOM      9  C   UNL     1       2.332  -0.225   2.548  0.00  0.00    +0.028 A 
ATOM     10  C   UNL     1       2.677   0.336   3.762  0.00  0.00    +0.030 A 
ATOM     11  C   UNL     1       1.752   1.081   4.469  0.00  0.00    +0.105 A 
ATOM     12  C   UNL     1       0.479   1.268   3.964  0.00  0.00    +0.030 A 
ATOM     13  C   UNL     1       0.129   0.715   2.747  0.00  0.00    +0.028 A 
BRANCH  11  14
ATOM     14  S   UNL     1       2.197   1.795   6.018  0.00  0.00    +0.056 S 
ATOM     15  O   UNL     1       0.987   1.988   6.738  0.00  0.00    -0.153 OA
ATOM     16  O   UNL     1       3.272   1.019   6.529  0.00  0.00    -0.153 OA
BRANCH  14  17
ATOM     17  N   UNL     1       2.807   3.302   5.705  0.00  0.00    -0.204 NA
ATOM     18  H   UNL     1       2.710   4.010   6.361  0.00  0.00    +0.144 HD
ATOM     19  H   UNL     1       3.262   3.476   4.867  0.00  0.00    +0.144 HD
ENDBRANCH  14  17
ENDBRANCH  11  14
ENDBRANCH   6   8
BRANCH   4  20
ATOM     20  C   UNL     1       0.043  -3.379  -1.464  0.00  0.00    +0.028 C 
ATOM     21  C   UNL     1      -0.634  -3.402  -2.633  0.00  0.00    +0.072 C 
BRANCH  21  22
ATOM     22  C   UNL     1      -0.715  -4.677  -3.432  0.00  0.00    +0.216 C 
ATOM     23  N   UNL     1      -0.188  -4.459  -4.785  0.00  0.00    -0.359 N 
ATOM     24  C   UNL     1      -1.152  -4.704  -5.624  0.00  0.00    +0.060 A 
ATOM     25  C   UNL     1      -1.236  -4.660  -7.090  0.00  0.00    +0.027 A 
ATOM     26  C   UNL     1      -2.397  -4.973  -7.700  0.00  0.00    +0.002 A 
ATOM     27  C   UNL     1      -3.551  -5.346  -6.988  0.00  0.00    +0.002 A 
ATOM     28  C   UNL     1      -3.583  -5.418  -5.642  0.00  0.00    +0.027 A 
ATOM     29  C   UNL     1      -2.373  -5.099  -4.870  0.00  0.00    +0.060 A 
ATOM     30  N   UNL     1      -2.116  -5.083  -3.594  0.00  0.00    -0.359 N 
ATOM     31  H   UNL     1       0.714  -4.182  -5.012  0.00  0.00    +0.162 HD
ATOM     32  H   UNL     1      -2.737  -5.299  -2.881  0.00  0.00    +0.162 HD
ENDBRANCH  21  22
BRANCH  21  33
ATOM     33  C   UNL     1      -1.274  -2.215  -3.114  0.00  0.00    +0.099 C 
ATOM     34  N   UNL     1      -1.782  -1.273  -3.494  0.00  0.00    -0.191 NA
ENDBRANCH  21  33
ENDBRANCH   4  20
TORSDOF 6
