REMARK  Name = ZINC38744024
REMARK  9 active torsions:
REMARK  status: ('A' for Active; 'I' for Inactive)
REMARK    1  A    between atoms: C_1  and  C_2
REMARK    2  A    between atoms: C_5  and  C_8
REMARK    3  A    between atoms: C_8  and  N_9
REMARK    4  A    between atoms: N_9  and  C_10
REMARK    5  A    between atoms: N_9  and  C_11
REMARK    6  A    between atoms: C_11  and  N_12
REMARK    7  A    between atoms: N_15  and  C_27
REMARK    8  A    between atoms: C_16  and  C_18
REMARK    9  A    between atoms: C_27  and  C_28
REMARK                            x       y       z     vdW  Elec       q    Type
REMARK                         _______ _______ _______ _____ _____    ______ ____
ROOT
ATOM      1  N   UNL     1       5.355  -3.674   0.360  0.00  0.00    -0.257 N 
ATOM      2  C   UNL     1       6.210  -4.443  -0.346  0.00  0.00    +0.177 A 
ATOM      3  S   UNL     1       5.853  -5.958  -1.059  0.00  0.00    -0.011 S 
ATOM      4  N   UNL     1       7.395  -3.803  -0.389  0.00  0.00    -0.301 N 
ATOM      5  C   UNL     1       7.272  -2.615   0.304  0.00  0.00    +0.165 A 
ATOM      6  N   UNL     1       6.051  -2.523   0.754  0.00  0.00    -0.152 NA
ENDROOT
BRANCH   5   7
ATOM      7  C   UNL     1       8.341  -1.614   0.498  0.00  0.00    +0.044 A 
ATOM      8  C   UNL     1       8.271  -0.402   1.332  0.00  0.00    +0.010 A 
ATOM      9  C   UNL     1       7.283   0.161   2.138  0.00  0.00    +0.011 A 
ATOM     10  C   UNL     1       7.538   1.338   2.806  0.00  0.00    +0.001 A 
ATOM     11  C   UNL     1       8.771   1.962   2.680  0.00  0.00    +0.002 A 
ATOM     12  C   UNL     1       9.757   1.417   1.887  0.00  0.00    +0.026 A 
ATOM     13  C   UNL     1       9.519   0.229   1.204  0.00  0.00    +0.047 A 
ATOM     14  N   UNL     1      10.286  -0.542   0.357  0.00  0.00    -0.360 N 
ATOM     15  C   UNL     1       9.582  -1.636  -0.052  0.00  0.00    +0.095 A 
ATOM     16  H   UNL     1      11.197  -0.338   0.093  0.00  0.00    +0.165 HD
ENDBRANCH   5   7
BRANCH   1  17
ATOM     17  C   UNL     1       3.954  -3.983   0.655  0.00  0.00    +0.071 C 
BRANCH  17  18
ATOM     18  N   UNL     1       3.082  -3.164  -0.197  0.00  0.00    +0.393 N 
ATOM     19  C   UNL     1       3.275  -3.543  -1.603  0.00  0.00    -0.093 C 
ATOM     20  H   UNL     1       3.313  -2.190  -0.077  0.00  0.00    -0.079 HD
BRANCH  18  21
ATOM     21  C   UNL     1       1.679  -3.386   0.181  0.00  0.00    -0.031 C 
BRANCH  21  26
ATOM     22  C   UNL     1      -0.304   1.083  -0.313  0.00  0.00    +0.085 C 
ATOM     23  C   UNL     1      -0.190  -0.419  -0.275  0.00  0.00    +0.091 C 
ATOM     24  C   UNL     1      -1.233  -1.221  -0.281  0.00  0.00    +0.017 C 
ATOM     25  C   UNL     1      -0.709  -2.647  -0.248  0.00  0.00    +0.073 C 
ATOM     26  C   UNL     1       0.780  -2.442  -0.620  0.00  0.00    +0.160 C 
ATOM     27  O   UNL     1       0.994  -1.071  -0.238  0.00  0.00    -0.495 OA
ENDBRANCH  21  26
ENDBRANCH  18  21
ENDBRANCH  17  18
ENDBRANCH   1  17
BRANCH   4  28
ATOM     28  C   UNL     1       8.607  -4.285  -1.056  0.00  0.00    +0.157 C 
BRANCH  28  29
ATOM     29  C   UNL     1       8.595  -3.839  -2.520  0.00  0.00    +0.138 C 
ATOM     30  C   UNL     1       9.806  -4.444  -3.261  0.00  0.00    +0.035 C 
ATOM     31  C   UNL     1      10.246  -3.274  -4.183  0.00  0.00    +0.031 C 
ATOM     32  C   UNL     1       9.915  -2.054  -3.288  0.00  0.00    +0.160 C 
ATOM     33  O   UNL     1       8.707  -2.413  -2.594  0.00  0.00    -0.375 OA
ENDBRANCH  28  29
ENDBRANCH   4  28
TORSDOF 7
