REMARK  Name = ZINC09334335
REMARK  10 active torsions:
REMARK  status: ('A' for Active; 'I' for Inactive)
REMARK    1  A    between atoms: C_1  and  C_2
REMARK    2  A    between atoms: C_2  and  N_3
REMARK    3  A    between atoms: N_3  and  C_4
REMARK    4  A    between atoms: N_3  and  C_6
REMARK    5  A    between atoms: C_4  and  C_5
REMARK    6  A    between atoms: C_9  and  C_12
REMARK    7  A    between atoms: C_17  and  C_36
REMARK    8  A    between atoms: C_17  and  C_37
REMARK    9  A    between atoms: C_23  and  C_28
REMARK   10  A    between atoms: C_28  and  C_30
REMARK                            x       y       z     vdW  Elec       q    Type
REMARK                         _______ _______ _______ _____ _____    ______ ____
ROOT
ATOM      1  C   UNL     1      -5.866  -2.106   3.593  0.00  0.00    +0.116 C 
ATOM      2  C   UNL     1      -4.929  -2.966   4.372  0.00  0.00    +0.124 C 
ATOM      3  C   UNL     1      -4.630  -2.571   5.627  0.00  0.00    +0.144 C 
ATOM      4  C   UNL     1      -3.691  -3.335   6.513  0.00  0.00    +0.081 C 
ATOM      5  C   UNL     1      -2.668  -4.061   5.634  0.00  0.00    -0.023 C 
ATOM      6  C   UNL     1      -3.429  -4.976   4.674  0.00  0.00    +0.058 C 
ATOM      7  C   UNL     1      -4.378  -4.145   3.819  0.00  0.00    +0.032 C 
ATOM      8  N   UNL     1      -4.603  -4.613   2.645  0.00  0.00    -0.254 NA
ATOM      9  C   UNL     1      -5.095  -4.147   1.490  0.00  0.00    +0.085 A 
ATOM     10  C   UNL     1      -4.533  -4.550   0.277  0.00  0.00    +0.041 A 
ATOM     11  C   UNL     1      -5.085  -4.129  -0.932  0.00  0.00    +0.024 A 
ATOM     12  C   UNL     1      -6.209  -3.295  -0.944  0.00  0.00    +0.013 A 
ATOM     13  C   UNL     1      -6.759  -2.873   0.247  0.00  0.00    +0.026 A 
ATOM     14  C   UNL     1      -6.208  -3.267   1.453  0.00  0.00    +0.053 A 
ATOM     15  N   UNL     1      -6.695  -2.828   2.662  0.00  0.00    -0.334 N 
ATOM     16  C   UNL     1      -1.853  -3.040   4.837  0.00  0.00    +0.011 C 
ATOM     17  C   UNL     1      -1.733  -4.896   6.511  0.00  0.00    +0.011 C 
ATOM     18  O   UNL     1      -5.199  -1.443   6.104  0.00  0.00    -0.297 OA
ATOM     19  H   UNL     1      -7.619  -3.009   2.893  0.00  0.00    +0.147 HD
ENDROOT
BRANCH   1  23
ATOM     20  C   UNL     1      -3.577   0.779   1.425  0.00  0.00    +0.030 A 
ATOM     21  C   UNL     1      -3.278  -0.573   1.314  0.00  0.00    +0.023 A 
ATOM     22  C   UNL     1      -4.017  -1.502   2.020  0.00  0.00    +0.007 A 
ATOM     23  C   UNL     1      -5.059  -1.089   2.829  0.00  0.00    -0.026 A 
ATOM     24  C   UNL     1      -5.363   0.256   2.938  0.00  0.00    +0.007 A 
ATOM     25  C   UNL     1      -4.625   1.191   2.238  0.00  0.00    +0.023 A 
BRANCH  20  26
ATOM     26  N   UNL     1      -2.830   1.722   0.716  0.00  0.00    -0.330 N 
BRANCH  26  28
ATOM     27  C   UNL     1      -2.249   1.019  -1.553  0.00  0.00    +0.024 C 
ATOM     28  C   UNL     1      -1.725   1.286  -0.141  0.00  0.00    +0.102 C 
ENDBRANCH  26  28
BRANCH  26  29
ATOM     29  C   UNL     1      -3.150   3.147   0.830  0.00  0.00    +0.102 C 
ATOM     30  C   UNL     1      -4.171   3.527  -0.244  0.00  0.00    +0.024 C 
ENDBRANCH  26  29
ENDBRANCH  20  26
ENDBRANCH   1  23
BRANCH  11  31
ATOM     31  C   UNL     1      -4.480  -4.564  -2.204  0.00  0.00    +0.193 C 
ATOM     32  O   UNL     1      -3.593  -5.396  -2.203  0.00  0.00    -0.287 OA
BRANCH  31  33
ATOM     33  C   UNL     1      -4.952  -3.989  -3.481  0.00  0.00    +0.022 A 
ATOM     34  C   UNL     1      -4.965  -4.769  -4.639  0.00  0.00    +0.012 A 
ATOM     35  C   UNL     1      -5.412  -4.228  -5.826  0.00  0.00    +0.001 A 
ATOM     36  C   UNL     1      -5.837  -2.912  -5.874  0.00  0.00    +0.000 A 
ATOM     37  C   UNL     1      -5.822  -2.131  -4.731  0.00  0.00    +0.001 A 
ATOM     38  C   UNL     1      -5.383  -2.662  -3.536  0.00  0.00    +0.012 A 
ENDBRANCH  31  33
ENDBRANCH  11  31
TORSDOF 6
