REMARK  Name = ZINC00648620
REMARK  9 active torsions:
REMARK  status: ('A' for Active; 'I' for Inactive)
REMARK    1  A    between atoms: C_1  and  C_2
REMARK    2  A    between atoms: C_5  and  O_8
REMARK    3  A    between atoms: O_8  and  C_9
REMARK    4  A    between atoms: C_9  and  C_10
REMARK    5  A    between atoms: C_12  and  C_18
REMARK    6  A    between atoms: C_15  and  O_16
REMARK    7  A    between atoms: O_16  and  C_17
REMARK    8  A    between atoms: C_20  and  C_31
REMARK    9  A    between atoms: C_21  and  N_30
REMARK                            x       y       z     vdW  Elec       q    Type
REMARK                         _______ _______ _______ _____ _____    ______ ____
ROOT
ATOM      1  C   UNL     1      -1.425   3.409   2.465  0.00  0.00    +0.032 A 
ATOM      2  C   UNL     1      -1.531   4.776   2.627  0.00  0.00    +0.015 A 
ATOM      3  C   UNL     1      -1.003   5.630   1.677  0.00  0.00    -0.034 A 
ATOM      4  C   UNL     1      -0.367   5.117   0.561  0.00  0.00    +0.008 A 
ATOM      5  C   UNL     1      -0.253   3.751   0.396  0.00  0.00    +0.046 A 
ATOM      6  C   UNL     1      -0.787   2.892   1.346  0.00  0.00    +0.126 A 
ENDROOT
BRANCH   3   7
ATOM      7  C   UNL     1      -1.120   7.122   1.857  0.00  0.00    +0.101 C 
ATOM      8  C   UNL     1      -1.884   7.705   0.701  0.00  0.00    +0.098 C 
ATOM      9  C   UNL     1      -1.230   8.336  -0.304  0.00  0.00    +0.198 C 
ATOM     10  O   UNL     1       0.107   8.455  -0.302  0.00  0.00    -0.445 OA
ATOM     11  C   UNL     1       0.788   8.349   0.854  0.00  0.00    +0.115 C 
ATOM     12  C   UNL     1       0.261   7.728   1.924  0.00  0.00    +0.046 C 
ATOM     13  C   UNL     1       0.972   7.624   3.135  0.00  0.00    +0.163 C 
ATOM     14  O   UNL     1       0.469   7.041   4.074  0.00  0.00    -0.292 OA
ATOM     15  C   UNL     1       2.344   8.223   3.287  0.00  0.00    +0.080 C 
ATOM     16  C   UNL     1       2.468   9.421   2.339  0.00  0.00    +0.016 C 
ATOM     17  C   UNL     1       2.175   8.946   0.915  0.00  0.00    +0.075 C 
BRANCH   9  18
ATOM     18  N   UNL     1      -1.950   8.867  -1.345  0.00  0.00    -0.328 N 
ATOM     19  H   UNL     1      -2.917   8.788  -1.356  0.00  0.00    +0.145 HD
ATOM     20  H   UNL     1      -1.492   9.322  -2.070  0.00  0.00    +0.145 HD
ENDBRANCH   9  18
BRANCH   8  21
ATOM     21  C   UNL     1      -3.311   7.592   0.661  0.00  0.00    +0.101 C 
ATOM     22  N   UNL     1      -4.443   7.503   0.630  0.00  0.00    -0.191 NA
ENDBRANCH   8  21
ENDBRANCH   3   7
BRANCH   6  23
ATOM     23  O   UNL     1      -0.682   1.547   1.184  0.00  0.00    -0.495 OA
ATOM     24  C   UNL     1      -0.013   1.086   0.008  0.00  0.00    +0.277 C 
ENDBRANCH   6  23
BRANCH   1  25
ATOM     25  C   UNL     1      -2.001   2.479   3.501  0.00  0.00    +0.268 C 
BRANCH  25  26
ATOM     26  O   UNL     1      -2.600   3.245   4.548  0.00  0.00    -0.487 OA
BRANCH  26  31
ATOM     27  C   UNL     1      -4.963   0.380   8.783  0.00  0.00    +0.044 C 
ATOM     28  C   UNL     1      -4.331   1.147   7.650  0.00  0.00    -0.050 A 
ATOM     29  C   UNL     1      -4.349   2.529   7.657  0.00  0.00    +0.007 A 
ATOM     30  C   UNL     1      -3.770   3.234   6.620  0.00  0.00    +0.046 A 
ATOM     31  C   UNL     1      -3.170   2.554   5.570  0.00  0.00    +0.121 A 
ATOM     32  C   UNL     1      -3.158   1.166   5.562  0.00  0.00    +0.046 A 
ATOM     33  C   UNL     1      -3.733   0.466   6.605  0.00  0.00    +0.007 A 
ENDBRANCH  26  31
ENDBRANCH  25  26
ENDBRANCH   1  25
TORSDOF 7
