REMARK  Name = ZINC16841702
REMARK  8 active torsions:
REMARK  status: ('A' for Active; 'I' for Inactive)
REMARK    1  A    between atoms: C_1  and  C_2
REMARK    2  A    between atoms: C_2  and  C_3
REMARK    3  A    between atoms: C_6  and  C_9
REMARK    4  A    between atoms: C_12  and  S_18
REMARK    5  A    between atoms: S_18  and  C_19
REMARK    6  A    between atoms: C_19  and  C_20
REMARK    7  A    between atoms: N_22  and  C_23
REMARK    8  A    between atoms: C_28  and  C_29
REMARK                            x       y       z     vdW  Elec       q    Type
REMARK                         _______ _______ _______ _____ _____    ______ ____
ROOT
ATOM      1  C   UNL     1      -0.845   1.728   6.151  0.00  0.00    +0.094 A 
ATOM      2  C   UNL     1      -1.086   1.880   4.784  0.00  0.00    +0.060 A 
ATOM      3  C   UNL     1      -0.092   1.197   4.107  0.00  0.00    +0.099 A 
ATOM      4  C   UNL     1       0.192   0.991   2.735  0.00  0.00    +0.123 A 
ATOM      5  N   UNL     1       1.242   0.266   2.392  0.00  0.00    -0.245 NA
ATOM      6  C   UNL     1       2.045  -0.268   3.318  0.00  0.00    +0.132 A 
ATOM      7  C   UNL     1       1.813  -0.098   4.634  0.00  0.00    +0.132 A 
ATOM      8  N   UNL     1       0.736   0.640   5.051  0.00  0.00    -0.235 N 
ATOM      9  N   UNL     1       0.241   0.989   6.310  0.00  0.00    -0.166 NA
ENDROOT
BRANCH   1  13
ATOM     10  C   UNL     1      -3.210   3.369   9.282  0.00  0.00    -0.048 A 
ATOM     11  C   UNL     1      -2.094   2.611   9.586  0.00  0.00    +0.004 A 
ATOM     12  C   UNL     1      -1.323   2.076   8.574  0.00  0.00    +0.010 A 
ATOM     13  C   UNL     1      -1.671   2.301   7.244  0.00  0.00    +0.002 A 
ATOM     14  C   UNL     1      -2.793   3.070   6.943  0.00  0.00    +0.010 A 
ATOM     15  C   UNL     1      -3.560   3.596   7.963  0.00  0.00    +0.004 A 
BRANCH  10  17
ATOM     16  C   UNL     1      -3.517   5.340  10.755  0.00  0.00    +0.009 C 
ATOM     17  C   UNL     1      -4.047   3.951  10.391  0.00  0.00    +0.032 C 
ENDBRANCH  10  17
ENDBRANCH   1  13
BRANCH   4  18
ATOM     18  S   UNL     1      -0.849   1.688   1.497  0.00  0.00    -0.094 S 
BRANCH  18  19
ATOM     19  C   UNL     1      -0.004   1.100   0.008  0.00  0.00    +0.172 C 
BRANCH  19  20
ATOM     20  C   UNL     1      -0.739   1.590  -1.213  0.00  0.00    +0.227 C 
ATOM     21  O   UNL     1      -1.736   2.270  -1.089  0.00  0.00    -0.275 OA
ATOM     22  N   UNL     1      -0.288   1.272  -2.443  0.00  0.00    -0.284 N 
ATOM     23  H   UNL     1       0.544   0.784  -2.544  0.00  0.00    +0.155 HD
BRANCH  22  24
ATOM     24  C   UNL     1      -1.022   1.647  -3.575  0.00  0.00    +0.045 A 
ATOM     25  C   UNL     1      -1.723   2.845  -3.585  0.00  0.00    +0.025 A 
ATOM     26  C   UNL     1      -2.445   3.213  -4.703  0.00  0.00    +0.022 A 
ATOM     27  C   UNL     1      -2.471   2.387  -5.813  0.00  0.00    +0.042 A 
ATOM     28  C   UNL     1      -1.774   1.192  -5.806  0.00  0.00    +0.034 A 
ATOM     29  C   UNL     1      -1.045   0.823  -4.692  0.00  0.00    +0.077 A 
ATOM     30 CL   UNL     1      -3.380   2.851  -7.218  0.00  0.00    -0.084 Cl
BRANCH  29  31
ATOM     31  C   UNL     1      -0.281  -0.476  -4.687  0.00  0.00    +0.419 C 
ATOM     32  F   UNL     1      -0.457  -1.125  -5.914  0.00  0.00    -0.166 F 
ATOM     33  F   UNL     1       1.079  -0.217  -4.488  0.00  0.00    -0.166 F 
ATOM     34  F   UNL     1      -0.756  -1.293  -3.655  0.00  0.00    -0.166 F 
ENDBRANCH  29  31
ENDBRANCH  22  24
ENDBRANCH  19  20
ENDBRANCH  18  19
ENDBRANCH   4  18
TORSDOF 7
