REMARK  Name = ZINC33051558
REMARK  8 active torsions:
REMARK  status: ('A' for Active; 'I' for Inactive)
REMARK    1  A    between atoms: C_1  and  C_2
REMARK    2  A    between atoms: N_5  and  C_7
REMARK    3  A    between atoms: C_18  and  C_31
REMARK    4  A    between atoms: N_24  and  C_25
REMARK    5  A    between atoms: C_25  and  C_26
REMARK    6  A    between atoms: C_34  and  C_37
REMARK    7  A    between atoms: C_37  and  C_38
REMARK    8  A    between atoms: C_37  and  C_39
REMARK                            x       y       z     vdW  Elec       q    Type
REMARK                         _______ _______ _______ _____ _____    ______ ____
ROOT
ATOM      1  C   UNL     1       0.995   9.099   1.292  0.00  0.00    +0.068 C 
ATOM      2  C   UNL     1       0.471   7.826   0.679  0.00  0.00    +0.067 A 
ATOM      3  C   UNL     1      -0.610   7.727  -0.191  0.00  0.00    +0.035 A 
ATOM      4  C   UNL     1      -0.775   6.405  -0.494  0.00  0.00    +0.146 A 
ATOM      5  N   UNL     1       0.193   5.708   0.130  0.00  0.00    -0.215 N 
ATOM      6  N   UNL     1       0.952   6.622   0.880  0.00  0.00    -0.169 NA
ATOM      7  N   UNL     1      -1.849   5.984  -1.287  0.00  0.00    -0.303 N 
ATOM      8  C   UNL     1      -1.895   5.103  -2.312  0.00  0.00    +0.093 A 
ATOM      9  C   UNL     1      -3.155   5.103  -2.804  0.00  0.00    +0.020 A 
ATOM     10  C   UNL     1      -3.913   6.008  -2.029  0.00  0.00    +0.025 A 
ATOM     11  C   UNL     1      -3.099   6.514  -1.090  0.00  0.00    +0.050 A 
ATOM     12  C   UNL     1      -3.428   7.451   0.036  0.00  0.00    +0.155 C 
ATOM     13  N   UNL     1      -2.836   8.791  -0.182  0.00  0.00    -0.269 N 
ATOM     14  C   UNL     1      -1.471   8.816  -0.761  0.00  0.00    +0.151 C 
ATOM     15  C   UNL     1      -3.499   9.922   0.128  0.00  0.00    +0.304 C 
ATOM     16  O   UNL     1      -4.617   9.861   0.601  0.00  0.00    -0.253 OA
ATOM     17  N   UNL     1      -2.923  11.122  -0.086  0.00  0.00    -0.292 N 
ATOM     18  H   UNL     1      -1.911  11.177  -0.514  0.00  0.00    +0.151 HD
ENDROOT
BRANCH   5  19
ATOM     19  C   UNL     1       0.400   4.324   0.051  0.00  0.00    +0.068 A 
ATOM     20  C   UNL     1       1.691   3.812   0.077  0.00  0.00    +0.028 A 
ATOM     21  C   UNL     1       1.892   2.448  -0.001  0.00  0.00    +0.002 A 
ATOM     22  C   UNL     1       0.811   1.593  -0.104  0.00  0.00    +0.000 A 
ATOM     23  C   UNL     1      -0.475   2.100  -0.136  0.00  0.00    +0.002 A 
ATOM     24  C   UNL     1      -0.683   3.463  -0.053  0.00  0.00    +0.028 A 
ENDBRANCH   5  19
BRANCH  12  25
ATOM     25  C   UNL     1      -2.894   6.880   1.324  0.00  0.00    -0.021 A 
ATOM     26  C   UNL     1      -2.975   5.521   1.563  0.00  0.00    +0.006 A 
ATOM     27  C   UNL     1      -2.481   4.996   2.743  0.00  0.00    +0.004 A 
ATOM     28  C   UNL     1      -1.914   5.831   3.687  0.00  0.00    -0.045 A 
ATOM     29  C   UNL     1      -1.837   7.191   3.450  0.00  0.00    +0.004 A 
ATOM     30  C   UNL     1      -2.327   7.715   2.268  0.00  0.00    +0.006 A 
BRANCH  28  31
ATOM     31  C   UNL     1      -1.380   5.260   4.975  0.00  0.00    +0.013 C 
ATOM     32  C   UNL     1      -2.511   4.561   5.731  0.00  0.00    +0.012 C 
ATOM     33  C   UNL     1      -0.274   4.249   4.665  0.00  0.00    +0.012 C 
ENDBRANCH  28  31
ENDBRANCH  12  25
BRANCH  17  34
ATOM     34  C   UNL     1      -3.644  12.351   0.251  0.00  0.00    +0.180 C 
BRANCH  34  35
ATOM     35  C   UNL     1      -2.786  13.545  -0.082  0.00  0.00    +0.122 A 
ATOM     36  C   UNL     1      -2.764  14.193  -1.261  0.00  0.00    +0.046 A 
ATOM     37  C   UNL     1      -1.824  15.241  -1.135  0.00  0.00    +0.041 A 
ATOM     38  C   UNL     1      -1.327  15.170   0.114  0.00  0.00    +0.195 A 
ATOM     39  O   UNL     1      -1.918  14.145   0.748  0.00  0.00    -0.466 OA
ENDBRANCH  34  35
ENDBRANCH  17  34
TORSDOF 5
