REMARK  Name = ZINC12042774
REMARK  8 active torsions:
REMARK  status: ('A' for Active; 'I' for Inactive)
REMARK    1  A    between atoms: C_1  and  C_2
REMARK    2  A    between atoms: C_3  and  C_30
REMARK    3  A    between atoms: C_5  and  N_22
REMARK    4  A    between atoms: C_6  and  C_7
REMARK    5  A    between atoms: C_7  and  C_9
REMARK    6  A    between atoms: C_7  and  N_16
REMARK    7  A    between atoms: N_16  and  C_17
REMARK    8  A    between atoms: C_23  and  C_25
REMARK                            x       y       z     vdW  Elec       q    Type
REMARK                         _______ _______ _______ _____ _____    ______ ____
ROOT
ATOM      1  C   UNL     1      -2.407  -0.424  -0.008  0.00  0.00    +0.135 C 
ENDROOT
BRANCH   1   7
ATOM      2  C   UNL     1      -2.003  -2.434   2.063  0.00  0.00    +0.045 C 
ATOM      3  C   UNL     1      -3.394  -1.992   1.688  0.00  0.00    -0.033 A 
ATOM      4  C   UNL     1      -4.474  -2.523   2.308  0.00  0.00    -0.008 A 
ATOM      5  S   UNL     1      -5.822  -1.673   1.504  0.00  0.00    -0.078 S 
ATOM      6  C   UNL     1      -4.856  -0.660   0.395  0.00  0.00    +0.078 A 
ATOM      7  C   UNL     1      -3.584  -1.038   0.704  0.00  0.00    +0.009 A 
ATOM      8  C   UNL     1      -4.525  -3.564   3.397  0.00  0.00    +0.052 C 
BRANCH   6   9
ATOM      9  N   UNL     1      -5.292   0.276  -0.546  0.00  0.00    -0.273 N 
ATOM     10  C   UNL     1      -6.609   0.431  -0.782  0.00  0.00    +0.284 C 
ATOM     11  O   UNL     1      -7.420  -0.245  -0.175  0.00  0.00    -0.266 OA
ATOM     12  H   UNL     1      -4.646   0.814  -1.029  0.00  0.00    +0.156 HD
BRANCH  10  13
ATOM     13  C   UNL     1      -7.066   1.413  -1.770  0.00  0.00    +0.189 A 
ATOM     14  C   UNL     1      -8.365   1.671  -2.104  0.00  0.00    +0.054 A 
ATOM     15  C   UNL     1      -8.338   2.676  -3.083  0.00  0.00    +0.042 A 
ATOM     16  C   UNL     1      -7.041   2.985  -3.301  0.00  0.00    +0.196 A 
ATOM     17  O   UNL     1      -6.278   2.226  -2.503  0.00  0.00    -0.458 OA
ENDBRANCH  10  13
ENDBRANCH   6   9
ENDBRANCH   1   7
BRANCH   1  18
ATOM     18  C   UNL     1      -2.320  -0.981  -1.406  0.00  0.00    -0.023 A 
ATOM     19  C   UNL     1      -2.995  -0.359  -2.440  0.00  0.00    +0.007 A 
ATOM     20  C   UNL     1      -2.911  -0.865  -3.723  0.00  0.00    +0.020 A 
ATOM     21  C   UNL     1      -2.160  -2.001  -3.971  0.00  0.00    +0.041 A 
ATOM     22  C   UNL     1      -1.489  -2.625  -2.935  0.00  0.00    +0.020 A 
ATOM     23  C   UNL     1      -1.569  -2.115  -1.653  0.00  0.00    +0.007 A 
ATOM     24 CL   UNL     1      -2.059  -2.641  -5.582  0.00  0.00    -0.084 Cl
ENDBRANCH   1  18
BRANCH   1  25
ATOM     25  N   UNL     1      -2.577   1.029  -0.070  0.00  0.00    -0.320 N 
ATOM     26  H   UNL     1      -3.454   1.421   0.068  0.00  0.00    +0.148 HD
BRANCH  25  27
ATOM     27  C   UNL     1      -1.483   1.847  -0.327  0.00  0.00    +0.097 A 
ATOM     28  C   UNL     1      -0.228   1.278  -0.524  0.00  0.00    +0.041 A 
ATOM     29  C   UNL     1       0.851   2.103  -0.784  0.00  0.00    +0.005 A 
ATOM     30  C   UNL     1       0.639   3.475  -0.834  0.00  0.00    +0.018 A 
ATOM     31  C   UNL     1      -0.631   3.971  -0.624  0.00  0.00    +0.084 A 
ATOM     32  N   UNL     1      -1.715   3.191  -0.365  0.00  0.00    -0.350 N 
ATOM     33  H   UNL     1      -2.648   3.588  -0.209  0.00  0.00    +0.166 HD
ENDBRANCH  25  27
ENDBRANCH   1  25
TORSDOF 6
