REMARK  Name = ZINC03898771
REMARK  6 active torsions:
REMARK  status: ('A' for Active; 'I' for Inactive)
REMARK    1  A    between atoms: C_1  and  O_2
REMARK    2  A    between atoms: O_2  and  C_3
REMARK    3  A    between atoms: C_5  and  C_10
REMARK    4  A    between atoms: C_8  and  O_9
REMARK    5  A    between atoms: N_11  and  N_12
REMARK    6  A    between atoms: C_13  and  C_15
REMARK                            x       y       z     vdW  Elec       q    Type
REMARK                         _______ _______ _______ _____ _____    ______ ____
ROOT
ATOM      1  N   UNL     1       1.188   2.011   0.002  0.00  0.00    -0.207 N 
ATOM      2  C   UNL     1       1.170   3.358   0.009  0.00  0.00    +0.238 C 
ATOM      3  O   UNL     1       0.111   3.950   0.022  0.00  0.00    -0.273 OA
ATOM      4  H   UNL     1       2.035   1.537  -0.009  0.00  0.00    +0.177 HD
ENDROOT
BRANCH   2   5
ATOM      5  C   UNL     1       2.465   4.129   0.001  0.00  0.00    +0.049 C 
ATOM      6  C   UNL     1       3.284   3.764   1.240  0.00  0.00    +0.019 C 
ATOM      7  C   UNL     1       4.598   4.547   1.232  0.00  0.00    -0.009 C 
ATOM      8  C   UNL     1       4.298   6.047   1.243  0.00  0.00    +0.007 C 
ATOM      9  C   UNL     1       3.479   6.413   0.003  0.00  0.00    -0.009 C 
ATOM     10  C   UNL     1       2.165   5.630   0.012  0.00  0.00    +0.019 C 
ATOM     11  C   UNL     1       4.274   6.061  -1.256  0.00  0.00    +0.007 C 
ATOM     12  C   UNL     1       4.574   4.560  -1.266  0.00  0.00    -0.009 C 
ATOM     13  C   UNL     1       5.393   4.195  -0.027  0.00  0.00    +0.007 C 
ATOM     14  C   UNL     1       3.260   3.777  -1.258  0.00  0.00    +0.019 C 
ENDBRANCH   2   5
BRANCH   1  16
ATOM     15  C   UNL     1       0.002  -0.004   0.002  0.00  0.00    +0.138 C 
ATOM     16  N   UNL     1      -0.015   1.294   0.009  0.00  0.00    -0.188 NA
BRANCH  15  19
ATOM     17  C   UNL     1      -2.438  -2.858   0.011  0.00  0.00    +0.162 A 
ATOM     18  C   UNL     1      -1.248  -2.156   0.002  0.00  0.00    +0.058 A 
ATOM     19  C   UNL     1      -1.264  -0.758   0.010  0.00  0.00    -0.002 A 
ATOM     20  C   UNL     1      -2.485  -0.078   0.031  0.00  0.00    +0.013 A 
ATOM     21  C   UNL     1      -3.668  -0.786   0.033  0.00  0.00    +0.050 A 
ATOM     22  C   UNL     1      -3.651  -2.173   0.026  0.00  0.00    +0.158 A 
BRANCH  17  24
ATOM     23  C   UNL     1      -1.146  -4.854  -0.013  0.00  0.00    +0.277 C 
ATOM     24  O   UNL     1      -2.425  -4.218   0.003  0.00  0.00    -0.491 OA
ENDBRANCH  17  24
BRANCH  22  25
ATOM     25  O   UNL     1      -4.821  -2.866   0.034  0.00  0.00    -0.503 OA
ATOM     26  H   UNL     1      -5.151  -3.070   0.919  0.00  0.00    +0.292 HD
ENDBRANCH  22  25
ENDBRANCH  15  19
ENDBRANCH   1  16
TORSDOF 5
