REMARK  Name = ZINC14545550
REMARK  9 active torsions:
REMARK  status: ('A' for Active; 'I' for Inactive)
REMARK    1  A    between atoms: C_1  and  C_2
REMARK    2  A    between atoms: C_2  and  O_3
REMARK    3  A    between atoms: O_3  and  C_4
REMARK    4  A    between atoms: C_9  and  C_10
REMARK    5  A    between atoms: C_21  and  S_26
REMARK    6  A    between atoms: S_26  and  N_29
REMARK    7  A    between atoms: N_29  and  C_30
REMARK    8  A    between atoms: C_31  and  C_37
REMARK    9  A    between atoms: C_35  and  C_36
REMARK                            x       y       z     vdW  Elec       q    Type
REMARK                         _______ _______ _______ _____ _____    ______ ____
ROOT
ATOM      1  C   UNL     1       2.683   1.607  -0.127  0.00  0.00    +0.108 C 
ATOM      2  C   UNL     1       1.768   2.429  -1.017  0.00  0.00    +0.029 C 
ATOM      3  C   UNL     1       1.981   2.320  -2.532  0.00  0.00    +0.033 C 
ATOM      4  C   UNL     1       0.571   2.589  -3.061  0.00  0.00    -0.030 C 
ATOM      5  C   UNL     1      -0.329   2.260  -2.142  0.00  0.00    -0.023 C 
ATOM      6  C   UNL     1       0.382   1.721  -0.954  0.00  0.00    +0.049 C 
ATOM      7  C   UNL     1      -0.159   1.904   0.410  0.00  0.00    -0.018 A 
ATOM      8  C   UNL     1      -1.495   2.036   0.674  0.00  0.00    +0.034 A 
ATOM      9  C   UNL     1      -1.945   2.173   1.975  0.00  0.00    +0.109 A 
ATOM     10  C   UNL     1      -1.043   2.160   3.023  0.00  0.00    +0.030 A 
ATOM     11  C   UNL     1       0.306   2.017   2.774  0.00  0.00    +0.025 A 
ATOM     12  C   UNL     1       0.770   1.884   1.471  0.00  0.00    +0.031 A 
ATOM     13  N   UNL     1       2.145   1.756   1.242  0.00  0.00    -0.336 N 
ATOM     14  H   UNL     1       2.756   1.764   1.996  0.00  0.00    +0.147 HD
ENDROOT
BRANCH   1  20
ATOM     15  C   UNL     1       4.910   1.802  -1.263  0.00  0.00    +0.125 A 
ATOM     16  C   UNL     1       6.205   2.298  -1.325  0.00  0.00    +0.046 A 
ATOM     17  C   UNL     1       6.679   3.115  -0.317  0.00  0.00    +0.004 A 
ATOM     18  C   UNL     1       5.862   3.444   0.750  0.00  0.00    +0.001 A 
ATOM     19  C   UNL     1       4.570   2.957   0.810  0.00  0.00    +0.009 A 
ATOM     20  C   UNL     1       4.091   2.139  -0.195  0.00  0.00    +0.015 A 
BRANCH  15  21
ATOM     21  O   UNL     1       4.443   0.993  -2.250  0.00  0.00    -0.492 OA
BRANCH  21  23
ATOM     22  C   UNL     1       4.644  -0.226  -4.327  0.00  0.00    +0.048 C 
ATOM     23  C   UNL     1       5.342   0.690  -3.319  0.00  0.00    +0.225 C 
ENDBRANCH  21  23
ENDBRANCH  15  21
ENDBRANCH   1  20
BRANCH   9  24
ATOM     24  S   UNL     1      -3.667   2.365   2.296  0.00  0.00    +0.072 S 
ATOM     25  O   UNL     1      -4.350   1.905   1.138  0.00  0.00    -0.150 OA
ATOM     26  O   UNL     1      -3.902   1.819   3.587  0.00  0.00    -0.150 OA
BRANCH  24  27
ATOM     27  N   UNL     1      -3.966   3.990   2.407  0.00  0.00    -0.216 N 
ATOM     28  H   UNL     1      -4.248   4.374   3.252  0.00  0.00    +0.174 HD
BRANCH  27  29
ATOM     29  C   UNL     1      -3.813   4.807   1.285  0.00  0.00    +0.054 A 
ATOM     30  C   UNL     1      -2.703   5.633   1.171  0.00  0.00    -0.028 A 
ATOM     31  C   UNL     1      -2.552   6.436   0.058  0.00  0.00    +0.005 A 
ATOM     32  C   UNL     1      -3.511   6.426  -0.939  0.00  0.00    +0.001 A 
ATOM     33  C   UNL     1      -4.620   5.608  -0.827  0.00  0.00    +0.005 A 
ATOM     34  C   UNL     1      -4.774   4.798   0.282  0.00  0.00    -0.028 A 
ATOM     35  C   UNL     1      -5.984   3.908   0.403  0.00  0.00    +0.046 C 
ATOM     36  C   UNL     1      -1.661   5.650   2.260  0.00  0.00    +0.046 C 
ENDBRANCH  27  29
ENDBRANCH  24  27
ENDBRANCH   9  24
TORSDOF 6
