REMARK  Name = ZINC09396293
REMARK  10 active torsions:
REMARK  status: ('A' for Active; 'I' for Inactive)
REMARK    1  A    between atoms: C_1  and  C_2
REMARK    2  A    between atoms: C_2  and  N_3
REMARK    3  A    between atoms: C_7  and  C_9
REMARK    4  A    between atoms: C_9  and  C_11
REMARK    5  A    between atoms: C_9  and  S_12
REMARK    6  A    between atoms: S_12  and  C_13
REMARK    7  A    between atoms: C_16  and  C_25
REMARK    8  A    between atoms: N_17  and  C_18
REMARK    9  A    between atoms: C_25  and  C_27
REMARK   10  A    between atoms: C_25  and  N_60
REMARK                            x       y       z     vdW  Elec       q    Type
REMARK                         _______ _______ _______ _____ _____    ______ ____
ROOT
ATOM      1  C   UNL     1       2.749  -4.394  -1.265  0.00  0.00    +0.197 A 
ATOM      2  N   UNL     1       1.599  -4.864  -0.841  0.00  0.00    -0.122 NA
ATOM      3  N   UNL     1       1.644  -6.148  -0.787  0.00  0.00    -0.135 NA
ATOM      4  C   UNL     1       2.816  -6.572  -1.169  0.00  0.00    +0.125 A 
ATOM      5  N   UNL     1       3.562  -5.470  -1.492  0.00  0.00    -0.275 N 
ENDROOT
BRANCH   5   6
ATOM      6  C   UNL     1       4.886  -5.449  -1.958  0.00  0.00    +0.050 A 
ATOM      7  C   UNL     1       5.197  -6.005  -3.191  0.00  0.00    +0.029 A 
ATOM      8  C   UNL     1       6.500  -5.978  -3.650  0.00  0.00    +0.040 A 
ATOM      9  C   UNL     1       7.496  -5.407  -2.876  0.00  0.00    +0.124 A 
ATOM     10  C   UNL     1       7.188  -4.857  -1.643  0.00  0.00    +0.040 A 
ATOM     11  C   UNL     1       5.886  -4.877  -1.183  0.00  0.00    +0.029 A 
ATOM     12  F   UNL     1       8.771  -5.387  -3.324  0.00  0.00    -0.205 F 
ENDBRANCH   5   6
BRANCH   4  13
ATOM     13  C   UNL     1       3.264  -8.008  -1.246  0.00  0.00    -0.002 C 
ATOM     14  C   UNL     1       3.504  -8.544   0.167  0.00  0.00    -0.005 C 
BRANCH  13  20
ATOM     15  C   UNL     1       2.642 -10.214  -2.024  0.00  0.00    -0.078 C 
ATOM     16  C   UNL     1       1.483 -11.046  -2.579  0.00  0.00    -0.019 C 
ATOM     17  C   UNL     1       1.077 -10.496  -3.950  0.00  0.00    -0.004 C 
ATOM     18  C   UNL     1       0.695  -9.020  -3.806  0.00  0.00    -0.019 C 
ATOM     19  C   UNL     1       1.877  -8.248  -3.215  0.00  0.00    -0.078 C 
ATOM     20  N   UNL     1       2.201  -8.810  -1.887  0.00  0.00    +0.386 N 
ATOM     21  H   UNL     1       1.361  -8.780  -1.298  0.00  0.00    -0.081 HD
ENDBRANCH  13  20
ENDBRANCH   4  13
BRANCH   1  22
ATOM     22  S   UNL     1       3.164  -2.698  -1.501  0.00  0.00    -0.073 S 
BRANCH  22  23
ATOM     23  C   UNL     1       1.606  -1.921  -1.005  0.00  0.00    +0.137 C 
ATOM     24  C   UNL     1       1.355  -2.184   0.481  0.00  0.00    +0.029 C 
BRANCH  23  29
ATOM     25  N   UNL     1      -0.500   2.351  -1.659  0.00  0.00    -0.299 N 
ATOM     26  C   UNL     1       0.629   1.623  -1.557  0.00  0.00    +0.306 C 
ATOM     27  O   UNL     1       1.712   2.163  -1.665  0.00  0.00    -0.252 OA
ATOM     28  N   UNL     1       0.557   0.294  -1.342  0.00  0.00    -0.239 N 
ATOM     29  C   UNL     1       1.687  -0.435  -1.246  0.00  0.00    +0.233 C 
ATOM     30  O   UNL     1       2.767   0.104  -1.354  0.00  0.00    -0.274 OA
ATOM     31  H   UNL     1      -1.365   1.919  -1.577  0.00  0.00    +0.150 HD
ATOM     32  H   UNL     1      -0.307  -0.137  -1.256  0.00  0.00    +0.159 HD
BRANCH  25  34
ATOM     33  C   UNL     1      -1.835   4.377  -1.966  0.00  0.00    +0.024 C 
ATOM     34  C   UNL     1      -0.422   3.795  -1.893  0.00  0.00    +0.102 C 
ENDBRANCH  25  34
ENDBRANCH  23  29
ENDBRANCH  22  23
ENDBRANCH   1  22
TORSDOF 7
