REMARK  Name = ZINC36346030
REMARK  13 active torsions:
REMARK  status: ('A' for Active; 'I' for Inactive)
REMARK    1  A    between atoms: C_1  and  C_2
REMARK    2  A    between atoms: C_3  and  C_21
REMARK    3  A    between atoms: C_4  and  O_13
REMARK    4  A    between atoms: N_5  and  C_7
REMARK    5  A    between atoms: O_13  and  C_14
REMARK    6  A    between atoms: C_21  and  N_22
REMARK    7  A    between atoms: N_22  and  C_23
REMARK    8  A    between atoms: N_22  and  C_31
REMARK    9  A    between atoms: C_23  and  C_24
REMARK   10  A    between atoms: C_24  and  C_26
REMARK   11  A    between atoms: C_24  and  O_30
REMARK   12  A    between atoms: C_26  and  C_27
REMARK   13  A    between atoms: C_27  and  C_28
REMARK                            x       y       z     vdW  Elec       q    Type
REMARK                         _______ _______ _______ _____ _____    ______ ____
ROOT
ATOM      1  C   UNL     1      -0.299   2.017  -0.262  0.00  0.00    +0.068 C 
ATOM      2  C   UNL     1       0.104   0.585  -0.021  0.00  0.00    +0.065 A 
ATOM      3  C   UNL     1       0.402  -0.357  -1.010  0.00  0.00    +0.021 A 
ATOM      4  C   UNL     1       0.720  -1.526  -0.391  0.00  0.00    +0.225 A 
ATOM      5  N   UNL     1       0.624  -1.317   0.949  0.00  0.00    -0.200 N 
ATOM      6  N   UNL     1       0.242   0.016   1.149  0.00  0.00    -0.168 NA
ENDROOT
BRANCH   5   7
ATOM      7  C   UNL     1       0.869  -2.265   1.952  0.00  0.00    +0.069 A 
ATOM      8  C   UNL     1       0.399  -3.564   1.811  0.00  0.00    +0.028 A 
ATOM      9  C   UNL     1       0.642  -4.496   2.801  0.00  0.00    +0.002 A 
ATOM     10  C   UNL     1       1.353  -4.137   3.932  0.00  0.00    +0.000 A 
ATOM     11  C   UNL     1       1.822  -2.844   4.075  0.00  0.00    +0.002 A 
ATOM     12  C   UNL     1       1.587  -1.909   3.086  0.00  0.00    +0.028 A 
ENDBRANCH   5   7
BRANCH   4  13
ATOM     13  O   UNL     1       1.069  -2.687  -1.000  0.00  0.00    -0.435 OA
BRANCH  13  14
ATOM     14  C   UNL     1       0.075  -3.535  -1.376  0.00  0.00    +0.165 A 
ATOM     15  C   UNL     1      -1.252  -3.163  -1.218  0.00  0.00    +0.049 A 
ATOM     16  C   UNL     1      -2.260  -4.026  -1.601  0.00  0.00    +0.004 A 
ATOM     17  C   UNL     1      -1.950  -5.260  -2.142  0.00  0.00    +0.003 A 
ATOM     18  C   UNL     1      -0.628  -5.635  -2.301  0.00  0.00    +0.042 A 
ATOM     19  C   UNL     1       0.386  -4.773  -1.924  0.00  0.00    +0.165 A 
ATOM     20  F   UNL     1       1.677  -5.137  -2.084  0.00  0.00    -0.202 F 
ENDBRANCH  13  14
ENDBRANCH   4  13
BRANCH   3  21
ATOM     21  C   UNL     1       0.373  -0.121  -2.498  0.00  0.00    -0.035 C 
BRANCH  21  22
ATOM     22  N   UNL     1       1.695   0.337  -2.946  0.00  0.00    +0.386 N 
ATOM     23  H   UNL     1       1.967   1.151  -2.415  0.00  0.00    -0.081 HD
BRANCH  22  24
ATOM     24  C   UNL     1       2.680  -0.733  -2.742  0.00  0.00    -0.068 C 
ATOM     25  C   UNL     1       3.671  -0.570  -1.587  0.00  0.00    -0.017 C 
ATOM     26  C   UNL     1       4.146  -0.409  -3.033  0.00  0.00    -0.017 C 
ENDBRANCH  22  24
BRANCH  22  27
ATOM     27  C   UNL     1       1.636   0.682  -4.373  0.00  0.00    -0.046 C 
BRANCH  27  28
ATOM     28  C   UNL     1       0.716   1.889  -4.569  0.00  0.00    +0.098 C 
BRANCH  28  29
ATOM     29  O   UNL     1       1.230   3.004  -3.837  0.00  0.00    -0.394 OA
ATOM     30  H   UNL     1       2.119   3.275  -4.108  0.00  0.00    +0.210 HD
ENDBRANCH  28  29
BRANCH  28  31
ATOM     31  C   UNL     1       0.647   2.242  -6.056  0.00  0.00    +0.033 C 
BRANCH  31  32
ATOM     32  C   UNL     1      -0.368   3.368  -6.266  0.00  0.00    +0.029 C 
BRANCH  32  33
ATOM     33  C   UNL     1      -0.435   3.716  -7.731  0.00  0.00    -0.034 C 
ATOM     34  C   UNL     1      -1.586   3.692  -8.357  0.00  0.00    +0.004 C 
ENDBRANCH  32  33
ENDBRANCH  31  32
ENDBRANCH  28  31
ENDBRANCH  27  28
ENDBRANCH  22  27
ENDBRANCH  21  22
ENDBRANCH   3  21
TORSDOF 12
