REMARK  Name = ZINC29934478
REMARK  5 active torsions:
REMARK  status: ('A' for Active; 'I' for Inactive)
REMARK    1  A    between atoms: C_4  and  N_25
REMARK    2  A    between atoms: C_5  and  N_7
REMARK    3  A    between atoms: N_7  and  C_8
REMARK    4  A    between atoms: C_8  and  C_9
REMARK    5  A    between atoms: N_14  and  C_15
REMARK                            x       y       z     vdW  Elec       q    Type
REMARK                         _______ _______ _______ _____ _____    ______ ____
ROOT
ATOM      1  C   UNL     1       4.896  -4.163  -0.726  0.00  0.00    +0.237 C 
ATOM      2  O   UNL     1       3.852  -4.777  -0.674  0.00  0.00    -0.274 OA
ATOM      3  N   UNL     1       4.896  -2.860  -1.070  0.00  0.00    -0.239 N 
ATOM      4  C   UNL     1       3.735  -2.239  -1.355  0.00  0.00    +0.310 C 
ATOM      5  O   UNL     1       2.688  -2.854  -1.303  0.00  0.00    -0.252 OA
ATOM      6  N   UNL     1       3.734  -0.936  -1.699  0.00  0.00    -0.269 N 
ATOM      7  H   UNL     1       5.844  -2.304  -1.117  0.00  0.00    +0.159 HD
ATOM      8  H   UNL     1       4.687  -0.402  -1.832  0.00  0.00    +0.156 HD
ENDROOT
BRANCH   6   9
ATOM      9  C   UNL     1       2.521  -0.261  -1.887  0.00  0.00    +0.038 A 
ATOM     10  C   UNL     1       1.410  -0.605  -1.129  0.00  0.00    +0.027 A 
ATOM     11  C   UNL     1       0.213   0.059  -1.314  0.00  0.00    +0.051 A 
ATOM     12  C   UNL     1       0.117   1.071  -2.258  0.00  0.00    +0.162 A 
ATOM     13  C   UNL     1       1.228   1.419  -3.017  0.00  0.00    +0.164 A 
ATOM     14  C   UNL     1       2.428   0.751  -2.831  0.00  0.00    +0.072 A 
ATOM     15  O   UNL     1       1.155   2.416  -3.942  0.00  0.00    -0.485 OA
ATOM     16  C   UNL     1      -0.156   2.808  -4.363  0.00  0.00    +0.270 C 
ATOM     17  C   UNL     1      -1.035   2.967  -3.115  0.00  0.00    +0.270 C 
ATOM     18  O   UNL     1      -1.074   1.709  -2.433  0.00  0.00    -0.485 OA
ENDBRANCH   6   9
BRANCH   1  19
ATOM     19  C   UNL     1       6.195  -4.858  -0.406  0.00  0.00    +0.198 C 
BRANCH  19  20
ATOM     20  N   UNL     1       5.929  -6.258  -0.065  0.00  0.00    -0.334 N 
ATOM     21  H   UNL     1       4.897  -6.639  -0.073  0.00  0.00    +0.147 HD
BRANCH  20  26
ATOM     22  C   UNL     1       9.334  -7.474   0.612  0.00  0.00    +0.002 A 
ATOM     23  C   UNL     1       9.085  -8.796   0.934  0.00  0.00    +0.002 A 
ATOM     24  C   UNL     1       7.791  -9.281   0.927  0.00  0.00    +0.025 A 
ATOM     25  C   UNL     1       6.737  -8.443   0.596  0.00  0.00    +0.051 A 
ATOM     26  C   UNL     1       6.988  -7.110   0.271  0.00  0.00    +0.049 A 
ATOM     27  C   UNL     1       8.290  -6.632   0.276  0.00  0.00    +0.025 A 
BRANCH  25  28
ATOM     28  N   UNL     1       5.426  -8.933   0.587  0.00  0.00    -0.328 N 
ATOM     29  C   UNL     1       5.021  -9.389   1.935  0.00  0.00    +0.105 C 
ATOM     30  C   UNL     1       3.734 -10.168   1.926  0.00  0.00    +0.019 C 
ATOM     31  C   UNL     1       4.071 -11.670   1.824  0.00  0.00    +0.002 C 
ATOM     32  C   UNL     1       4.413 -12.066   0.462  0.00  0.00    +0.002 C 
ATOM     33  C   UNL     1       5.657 -11.320  -0.066  0.00  0.00    +0.019 C 
ATOM     34  C   UNL     1       5.242  -9.936  -0.485  0.00  0.00    +0.105 C 
ENDBRANCH  25  28
ENDBRANCH  20  26
ENDBRANCH  19  20
ENDBRANCH   1  19
TORSDOF 5
