REMARK  Name = ZINC12789608
REMARK  5 active torsions:
REMARK  status: ('A' for Active; 'I' for Inactive)
REMARK    1  A    between atoms: C_1  and  C_2
REMARK    2  A    between atoms: C_2  and  C_29
REMARK    3  A    between atoms: N_5  and  C_9
REMARK    4  A    between atoms: C_9  and  C_10
REMARK    5  A    between atoms: C_21  and  C_23
REMARK                            x       y       z     vdW  Elec       q    Type
REMARK                         _______ _______ _______ _____ _____    ______ ____
ROOT
ATOM      1  C   UNL     1       0.546   2.016  -1.696  0.00  0.00    +0.214 C 
ENDROOT
BRANCH   1   2
ATOM      2  C   UNL     1      -0.668   1.339  -1.116  0.00  0.00    +0.238 C 
ATOM      3  O   UNL     1      -0.995   0.239  -1.509  0.00  0.00    -0.273 OA
ATOM      4  N   UNL     1      -1.395   1.958  -0.165  0.00  0.00    -0.261 N 
ATOM      5  C   UNL     1      -1.270   3.343  -0.026  0.00  0.00    +0.050 A 
ATOM      6  C   UNL     1      -0.741   4.062  -1.097  0.00  0.00    +0.024 A 
ATOM      7  C   UNL     1      -0.593   5.431  -1.013  0.00  0.00    +0.002 A 
ATOM      8  C   UNL     1      -0.971   6.104   0.135  0.00  0.00    +0.001 A 
ATOM      9  C   UNL     1      -1.503   5.403   1.199  0.00  0.00    +0.016 A 
ATOM     10  C   UNL     1      -1.659   4.024   1.121  0.00  0.00    +0.029 A 
ATOM     11  S   UNL     1      -2.349   3.161   2.497  0.00  0.00    -0.121 S 
ATOM     12  C   UNL     1      -1.933   1.425   2.150  0.00  0.00    +0.102 C 
ATOM     13  C   UNL     1      -2.273   1.151   0.677  0.00  0.00    +0.122 C 
BRANCH  13  14
ATOM     14  C   UNL     1      -2.063  -0.310   0.371  0.00  0.00    -0.026 A 
ATOM     15  C   UNL     1      -0.952  -0.967   0.865  0.00  0.00    +0.005 A 
ATOM     16  C   UNL     1      -0.761  -2.308   0.587  0.00  0.00    +0.000 A 
ATOM     17  C   UNL     1      -1.678  -2.989  -0.192  0.00  0.00    +0.000 A 
ATOM     18  C   UNL     1      -2.786  -2.331  -0.691  0.00  0.00    +0.000 A 
ATOM     19  C   UNL     1      -2.978  -0.991  -0.410  0.00  0.00    +0.005 A 
ENDBRANCH  13  14
ENDBRANCH   1   2
BRANCH   1  24
ATOM     20  C   UNL     1       3.143  -1.900  -1.555  0.00  0.00    +0.050 C 
ATOM     21  C   UNL     1       3.238  -0.500  -2.166  0.00  0.00    +0.168 C 
ATOM     22  C   UNL     1       2.489   0.511  -1.320  0.00  0.00    +0.254 C 
ATOM     23  O   UNL     1       2.716   0.814  -0.168  0.00  0.00    -0.272 OA
ATOM     24  N   UNL     1       1.518   1.002  -2.114  0.00  0.00    -0.215 N 
ATOM     25  C   UNL     1       1.553   0.453  -3.334  0.00  0.00    +0.310 C 
ATOM     26  O   UNL     1       0.778   0.739  -4.226  0.00  0.00    -0.252 OA
ATOM     27  N   UNL     1       2.540  -0.452  -3.462  0.00  0.00    -0.279 N 
ATOM     28  H   UNL     1       2.752  -0.971  -4.254  0.00  0.00    +0.152 HD
BRANCH  21  29
ATOM     29  C   UNL     1       4.679  -0.089  -2.324  0.00  0.00    +0.138 A 
ATOM     30  C   UNL     1       5.421  -0.297  -3.420  0.00  0.00    +0.056 A 
ATOM     31  C   UNL     1       6.747   0.262  -3.130  0.00  0.00    +0.020 A 
ATOM     32  C   UNL     1       7.940   0.362  -3.844  0.00  0.00    +0.011 A 
ATOM     33  C   UNL     1       9.026   0.961  -3.268  0.00  0.00    +0.001 A 
ATOM     34  C   UNL     1       8.947   1.467  -1.979  0.00  0.00    +0.004 A 
ATOM     35  C   UNL     1       7.776   1.377  -1.257  0.00  0.00    +0.047 A 
ATOM     36  C   UNL     1       6.661   0.773  -1.824  0.00  0.00    +0.135 A 
ATOM     37  O   UNL     1       5.406   0.544  -1.386  0.00  0.00    -0.457 OA
ENDBRANCH  21  29
ENDBRANCH   1  24
TORSDOF 4
