REMARK  Name = ZINC24978419
REMARK  9 active torsions:
REMARK  status: ('A' for Active; 'I' for Inactive)
REMARK    1  A    between atoms: C_1  and  C_2
REMARK    2  A    between atoms: C_5  and  C_8
REMARK    3  A    between atoms: C_8  and  C_10
REMARK    4  A    between atoms: C_8  and  N_15
REMARK    5  A    between atoms: N_15  and  C_16
REMARK    6  A    between atoms: C_16  and  C_17
REMARK    7  A    between atoms: N_19  and  C_20
REMARK    8  A    between atoms: C_25  and  C_26
REMARK    9  A    between atoms: C_26  and  C_28
REMARK                            x       y       z     vdW  Elec       q    Type
REMARK                         _______ _______ _______ _____ _____    ______ ____
ROOT
ATOM      1  C   UNL     1      -0.012   1.502   0.015  0.00  0.00    +0.016 C 
ENDROOT
BRANCH   1   2
ATOM      2  C   UNL     1      -0.002  -0.004  -0.001  0.00  0.00    +0.200 C 
ATOM      3  O   UNL     1      -0.524  -0.623   0.903  0.00  0.00    -0.278 OA
ATOM      4  N   UNL     1       0.585  -0.664  -1.018  0.00  0.00    -0.286 N 
ATOM      5  H   UNL     1       0.977  -0.107  -1.882  0.00  0.00    +0.155 HD
BRANCH   4   6
ATOM      6  C   UNL     1       0.697  -2.052  -0.976  0.00  0.00    +0.048 A 
ATOM      7  C   UNL     1       0.709  -2.712   0.242  0.00  0.00    +0.073 A 
ATOM      8  C   UNL     1       0.820  -4.093   0.286  0.00  0.00    +0.168 A 
ATOM      9  C   UNL     1       0.919  -4.829  -0.899  0.00  0.00    +0.167 A 
ATOM     10  C   UNL     1       0.909  -4.186  -2.117  0.00  0.00    +0.062 A 
ATOM     11  C   UNL     1       0.790  -2.789  -2.170  0.00  0.00    +0.042 A 
ATOM     12  O   UNL     1       1.016  -6.154  -0.579  0.00  0.00    -0.453 OA
ATOM     13  C   UNL     1       1.388  -6.187   0.811  0.00  0.00    +0.466 C 
ATOM     14  O   UNL     1       0.854  -4.959   1.339  0.00  0.00    -0.453 OA
BRANCH  11  15
ATOM     15  C   UNL     1       0.771  -2.101  -3.463  0.00  0.00    +0.162 C 
ATOM     16  O   UNL     1       0.760  -0.889  -3.505  0.00  0.00    -0.292 OA
ATOM     17  C   UNL     1       0.765  -2.900  -4.741  0.00  0.00    +0.091 C 
ENDBRANCH  11  15
ENDBRANCH   4   6
ENDBRANCH   1   2
BRANCH   1  18
ATOM     18  N   UNL     1      -0.707   1.976   1.219  0.00  0.00    +0.392 N 
ATOM     19  H   UNL     1      -0.181   1.590   2.104  0.00  0.00    -0.084 HD
ATOM     20  H   UNL     1      -1.737   1.589   1.206  0.00  0.00    -0.084 HD
BRANCH  18  21
ATOM     21  C   UNL     1      -0.736   3.444   1.267  0.00  0.00    -0.003 C 
BRANCH  21  26
ATOM     22  C   UNL     1      -1.247   5.180   6.755  0.00  0.00    +0.044 C 
ATOM     23  C   UNL     1      -1.114   4.727   5.324  0.00  0.00    -0.050 A 
ATOM     24  C   UNL     1      -0.277   5.407   4.459  0.00  0.00    +0.003 A 
ATOM     25  C   UNL     1      -0.154   4.992   3.147  0.00  0.00    +0.002 A 
ATOM     26  C   UNL     1      -0.869   3.897   2.699  0.00  0.00    -0.057 A 
ATOM     27  C   UNL     1      -1.711   3.220   3.562  0.00  0.00    +0.002 A 
ATOM     28  C   UNL     1      -1.829   3.632   4.876  0.00  0.00    +0.003 A 
ENDBRANCH  21  26
BRANCH  21  29
ATOM     29  C   UNL     1      -1.910   3.950   0.469  0.00  0.00    -0.020 A 
ATOM     30  C   UNL     1      -1.983   5.025  -0.353  0.00  0.00    +0.010 A 
ATOM     31  C   UNL     1      -3.177   5.300  -0.993  0.00  0.00    +0.008 A 
ATOM     32  C   UNL     1      -4.243   4.493  -0.770  0.00  0.00    +0.045 A 
ATOM     33  S   UNL     1      -3.567   3.294   0.367  0.00  0.00    -0.103 S 
ENDBRANCH  21  29
ENDBRANCH  18  21
ENDBRANCH   1  18
TORSDOF 7
