REMARK  Name = ZINC21809875
REMARK  8 active torsions:
REMARK  status: ('A' for Active; 'I' for Inactive)
REMARK    1  A    between atoms: C_1  and  C_2
REMARK    2  A    between atoms: C_2  and  C_25
REMARK    3  A    between atoms: N_14  and  C_15
REMARK    4  A    between atoms: C_15  and  C_16
REMARK    5  A    between atoms: C_16  and  N_17
REMARK    6  A    between atoms: N_17  and  C_18
REMARK    7  A    between atoms: N_17  and  C_19
REMARK    8  A    between atoms: N_27  and  C_28
REMARK                            x       y       z     vdW  Elec       q    Type
REMARK                         _______ _______ _______ _____ _____    ______ ____
ROOT
ATOM      1  C   UNL     1       0.336   6.307  -1.493  0.00  0.00    +0.043 C 
ATOM      2  C   UNL     1      -0.117   6.152  -2.946  0.00  0.00    +0.128 C 
ATOM      3  C   UNL     1      -0.059   7.519  -3.627  0.00  0.00    +0.157 C 
ATOM      4  N   UNL     1      -1.178   8.338  -3.154  0.00  0.00    -0.333 N 
ATOM      5  C   UNL     1      -1.258   9.714  -3.036  0.00  0.00    +0.057 A 
ATOM      6  C   UNL     1      -0.453  10.842  -3.253  0.00  0.00    +0.034 A 
ATOM      7  C   UNL     1      -0.936  12.078  -3.006  0.00  0.00    +0.048 A 
ATOM      8  S   UNL     1      -2.594  11.743  -2.436  0.00  0.00    -0.095 S 
ATOM      9  C   UNL     1      -2.551   9.974  -2.558  0.00  0.00    +0.038 A 
ATOM     10  C   UNL     1      -3.233   8.775  -2.385  0.00  0.00    +0.048 A 
ATOM     11  C   UNL     1      -2.382   7.774  -2.746  0.00  0.00    +0.106 A 
ATOM     12  C   UNL     1      -2.565   6.318  -2.747  0.00  0.00    +0.264 C 
ATOM     13  O   UNL     1      -3.654   5.809  -2.560  0.00  0.00    -0.268 OA
ATOM     14  N   UNL     1      -1.455   5.572  -2.962  0.00  0.00    -0.282 N 
ENDROOT
BRANCH   2  15
ATOM     15  C   UNL     1       0.828   5.215  -3.653  0.00  0.00    +0.238 C 
ATOM     16  O   UNL     1       1.891   4.929  -3.144  0.00  0.00    -0.273 OA
ATOM     17  N   UNL     1       0.491   4.696  -4.850  0.00  0.00    -0.311 N 
ATOM     18  H   UNL     1      -0.435   5.017  -5.348  0.00  0.00    +0.149 HD
BRANCH  17  19
ATOM     19  C   UNL     1       1.360   3.703  -5.487  0.00  0.00    +0.073 C 
ATOM     20  C   UNL     1       2.507   4.435  -6.213  0.00  0.00    +0.022 C 
ATOM     21  C   UNL     1       3.639   3.465  -6.418  0.00  0.00    +0.002 C 
ATOM     22  C   UNL     1       3.587   2.780  -7.796  0.00  0.00    +0.000 C 
ATOM     23  C   UNL     1       2.161   2.365  -8.204  0.00  0.00    +0.000 C 
ATOM     24  C   UNL     1       1.385   1.770  -7.060  0.00  0.00    +0.002 C 
ATOM     25  C   UNL     1       0.561   2.889  -6.392  0.00  0.00    +0.022 C 
ENDBRANCH  17  19
ENDBRANCH   2  15
BRANCH  14  26
ATOM     26  C   UNL     1      -1.604   4.139  -3.226  0.00  0.00    +0.091 C 
BRANCH  26  27
ATOM     27  C   UNL     1      -1.413   3.358  -1.925  0.00  0.00    -0.060 C 
BRANCH  27  28
ATOM     28  N   UNL     1      -1.562   1.921  -2.189  0.00  0.00    +0.381 N 
ATOM     29  C   UNL     1      -2.938   1.599  -2.590  0.00  0.00    -0.096 C 
ATOM     30  H   UNL     1      -0.896   1.660  -3.026  0.00  0.00    -0.082 HD
BRANCH  28  31
ATOM     31  C   UNL     1      -1.154   1.125  -1.024  0.00  0.00    -0.069 C 
ATOM     32  C   UNL     1       0.313   1.415  -0.697  0.00  0.00    -0.015 C 
ATOM     33  C   UNL     1       0.738   0.586   0.517  0.00  0.00    -0.002 C 
ATOM     34  C   UNL     1       0.568  -0.902   0.204  0.00  0.00    -0.000 C 
ATOM     35  C   UNL     1      -0.898  -1.191  -0.122  0.00  0.00    -0.002 C 
ATOM     36  C   UNL     1      -1.323  -0.362  -1.337  0.00  0.00    -0.015 C 
ENDBRANCH  28  31
ENDBRANCH  27  28
ENDBRANCH  26  27
ENDBRANCH  14  26
TORSDOF 6
