REMARK  Name = ZINC64539584
REMARK  10 active torsions:
REMARK  status: ('A' for Active; 'I' for Inactive)
REMARK    1  A    between atoms: C_1  and  C_2
REMARK    2  A    between atoms: C_2  and  O_3
REMARK    3  A    between atoms: O_3  and  C_4
REMARK    4  A    between atoms: C_4  and  C_6
REMARK    5  A    between atoms: C_10  and  C_15
REMARK    6  A    between atoms: N_22  and  C_23
REMARK    7  A    between atoms: C_23  and  C_24
REMARK    8  A    between atoms: C_24  and  C_25
REMARK    9  A    between atoms: C_28  and  O_34
REMARK   10  A    between atoms: O_34  and  C_35
REMARK                            x       y       z     vdW  Elec       q    Type
REMARK                         _______ _______ _______ _____ _____    ______ ____
ROOT
ATOM      1  C   UNL     1      -3.007  -2.432  -0.254  0.00  0.00    +0.243 A 
ATOM      2  N   UNL     1      -3.166  -3.749  -0.265  0.00  0.00    -0.206 NA
ATOM      3  C   UNL     1      -4.355  -4.295  -0.033  0.00  0.00    +0.136 A 
ATOM      4  C   UNL     1      -5.442  -3.443   0.225  0.00  0.00    +0.108 A 
ATOM      5  C   UNL     1      -6.865  -3.647   0.518  0.00  0.00    +0.126 A 
ATOM      6  N   UNL     1      -7.399  -2.463   0.671  0.00  0.00    -0.075 NA
ATOM      7  O   UNL     1      -6.408  -1.470   0.495  0.00  0.00    -0.334 OA
ATOM      8  C   UNL     1      -5.228  -2.054   0.227  0.00  0.00    +0.264 A 
ATOM      9  N   UNL     1      -4.004  -1.597  -0.010  0.00  0.00    -0.184 NA
ATOM     10  N   UNL     1      -4.518  -5.666  -0.045  0.00  0.00    -0.328 N 
ATOM     11  H   UNL     1      -5.404  -6.050   0.041  0.00  0.00    +0.147 HD
ENDROOT
BRANCH   5  12
ATOM     12  C   UNL     1      -7.566  -4.949   0.622  0.00  0.00    +0.004 A 
ATOM     13  C   UNL     1      -7.001  -5.991   1.355  0.00  0.00    +0.011 A 
ATOM     14  C   UNL     1      -7.657  -7.201   1.449  0.00  0.00    +0.020 A 
ATOM     15  C   UNL     1      -8.875  -7.382   0.816  0.00  0.00    +0.041 A 
ATOM     16  C   UNL     1      -9.440  -6.350   0.086  0.00  0.00    +0.020 A 
ATOM     17  C   UNL     1      -8.795  -5.135  -0.009  0.00  0.00    +0.011 A 
ATOM     18 CL   UNL     1      -9.695  -8.907   0.937  0.00  0.00    -0.084 Cl
ENDBRANCH   5  12
BRANCH   1  19
ATOM     19  C   UNL     1      -1.657  -1.873  -0.519  0.00  0.00    +0.377 C 
ATOM     20  O   UNL     1      -0.726  -2.618  -0.746  0.00  0.00    -0.241 OA
BRANCH  19  21
ATOM     21  O   UNL     1      -1.466  -0.541  -0.509  0.00  0.00    -0.459 OA
BRANCH  21  23
ATOM     22  C   UNL     1      -0.120   1.456  -0.719  0.00  0.00    +0.048 C 
ATOM     23  C   UNL     1      -0.141  -0.073  -0.773  0.00  0.00    +0.229 C 
ENDBRANCH  21  23
ENDBRANCH  19  21
ENDBRANCH   1  19
BRANCH  10  24
ATOM     24  C   UNL     1      -3.352  -6.541  -0.188  0.00  0.00    +0.107 C 
BRANCH  24  25
ATOM     25  C   UNL     1      -3.805  -8.002  -0.172  0.00  0.00    +0.052 C 
BRANCH  25  26
ATOM     26  C   UNL     1      -2.605  -8.903  -0.318  0.00  0.00    -0.040 C 
ATOM     27  C   UNL     1      -1.904  -9.491   0.677  0.00  0.00    +0.002 A 
ATOM     28  C   UNL     1      -2.040  -9.471   2.137  0.00  0.00    +0.055 A 
ATOM     29  C   UNL     1      -1.168 -10.175   2.898  0.00  0.00    +0.121 A 
ATOM     30  C   UNL     1      -0.125 -10.933   2.338  0.00  0.00    +0.047 A 
ATOM     31  C   UNL     1       0.082 -11.012   1.006  0.00  0.00    +0.029 A 
ATOM     32  C   UNL     1      -0.804 -10.290   0.088  0.00  0.00    +0.043 A 
ATOM     33  N   UNL     1      -0.826 -10.198  -1.219  0.00  0.00    -0.380 N 
ATOM     34  C   UNL     1      -1.946  -9.336  -1.609  0.00  0.00    +0.144 C 
ATOM     35  H   UNL     1      -0.206 -10.632  -1.827  0.00  0.00    +0.160 HD
BRANCH  29  36
ATOM     36  O   UNL     1      -1.306 -10.147   4.250  0.00  0.00    -0.495 OA
ATOM     37  C   UNL     1      -0.365 -10.903   5.014  0.00  0.00    +0.277 C 
ENDBRANCH  29  36
ENDBRANCH  25  26
ENDBRANCH  24  25
ENDBRANCH  10  24
TORSDOF 8
