REMARK  Name = ZINC39991686
REMARK  13 active torsions:
REMARK  status: ('A' for Active; 'I' for Inactive)
REMARK    1  A    between atoms: C_1  and  C_2
REMARK    2  A    between atoms: C_5  and  C_8
REMARK    3  A    between atoms: C_10  and  C_21
REMARK    4  A    between atoms: N_14  and  C_15
REMARK    5  A    between atoms: C_15  and  C_16
REMARK    6  A    between atoms: C_16  and  C_17
REMARK    7  A    between atoms: C_17  and  O_18
REMARK    8  A    between atoms: O_18  and  C_19
REMARK    9  A    between atoms: C_21  and  C_23
REMARK   10  A    between atoms: C_24  and  C_36
REMARK   11  A    between atoms: C_26  and  S_28
REMARK   12  A    between atoms: S_28  and  C_29
REMARK   13  A    between atoms: C_32  and  C_35
REMARK                            x       y       z     vdW  Elec       q    Type
REMARK                         _______ _______ _______ _____ _____    ______ ____
ROOT
ATOM      1  C   UNL     1       0.149  -3.973   0.069  0.00  0.00    +0.145 C 
ATOM      2  C   UNL     1       1.457  -4.725   0.138  0.00  0.00    +0.077 C 
ATOM      3  C   UNL     1       1.352  -5.597   1.166  0.00  0.00    +0.249 C 
ATOM      4  C   UNL     1       0.022  -5.456   1.789  0.00  0.00    +0.288 C 
ATOM      5  O   UNL     1      -0.374  -6.101   2.740  0.00  0.00    -0.266 OA
ATOM      6  N   UNL     1      -0.688  -4.506   1.150  0.00  0.00    -0.283 N 
ATOM      7  O   UNL     1       2.316  -6.462   1.562  0.00  0.00    -0.282 OA
ENDROOT
BRANCH   1  12
ATOM      8  C   UNL     1       1.059   1.678   0.866  0.00  0.00    +0.044 C 
ATOM      9  C   UNL     1       0.822   0.204   0.658  0.00  0.00    -0.050 A 
ATOM     10  C   UNL     1       0.471  -0.270  -0.592  0.00  0.00    +0.004 A 
ATOM     11  C   UNL     1       0.254  -1.621  -0.783  0.00  0.00    +0.006 A 
ATOM     12  C   UNL     1       0.387  -2.499   0.277  0.00  0.00    -0.022 A 
ATOM     13  C   UNL     1       0.738  -2.025   1.527  0.00  0.00    +0.006 A 
ATOM     14  C   UNL     1       0.960  -0.674   1.717  0.00  0.00    +0.004 A 
ENDBRANCH   1  12
BRANCH   2  15
ATOM     15  C   UNL     1       2.618  -4.546  -0.743  0.00  0.00    +0.203 C 
ATOM     16  O   UNL     1       3.670  -4.129  -0.288  0.00  0.00    -0.286 OA
BRANCH  15  17
ATOM     17  C   UNL     1       2.516  -4.858  -2.123  0.00  0.00    +0.083 A 
ATOM     18  C   UNL     1       3.484  -4.797  -3.123  0.00  0.00    +0.058 A 
ATOM     19  N   UNL     1       3.102  -5.150  -4.321  0.00  0.00    -0.237 NA
ATOM     20  C   UNL     1       1.861  -5.542  -4.564  0.00  0.00    +0.140 A 
ATOM     21  S   UNL     1       1.114  -5.446  -3.059  0.00  0.00    -0.057 S 
ATOM     22  C   UNL     1       4.894  -4.348  -2.838  0.00  0.00    +0.067 C 
BRANCH  20  23
ATOM     23  S   UNL     1       1.160  -6.052  -6.098  0.00  0.00    -0.063 S 
BRANCH  23  24
ATOM     24  C   UNL     1       2.448  -5.776  -7.268  0.00  0.00    +0.015 A 
ATOM     25  C   UNL     1       3.302  -6.813  -7.623  0.00  0.00    +0.015 A 
ATOM     26  C   UNL     1       4.310  -6.593  -8.540  0.00  0.00    +0.004 A 
ATOM     27  C   UNL     1       4.472  -5.341  -9.105  0.00  0.00    -0.050 A 
ATOM     28  C   UNL     1       3.625  -4.306  -8.754  0.00  0.00    +0.004 A 
ATOM     29  C   UNL     1       2.610  -4.521  -7.843  0.00  0.00    +0.015 A 
ATOM     30  C   UNL     1       5.574  -5.105 -10.105  0.00  0.00    +0.044 C 
ENDBRANCH  23  24
ENDBRANCH  20  23
ENDBRANCH  15  17
ENDBRANCH   2  15
BRANCH   6  31
ATOM     31  C   UNL     1      -2.051  -4.081   1.476  0.00  0.00    +0.111 C 
BRANCH  31  32
ATOM     32  C   UNL     1      -3.052  -4.930   0.690  0.00  0.00    +0.047 C 
BRANCH  32  33
ATOM     33  C   UNL     1      -4.476  -4.486   1.030  0.00  0.00    +0.161 C 
BRANCH  33  34
ATOM     34  O   UNL     1      -5.411  -5.279   0.296  0.00  0.00    -0.383 OA
ATOM     35  C   UNL     1      -6.778  -4.943   0.543  0.00  0.00    +0.193 C 
ENDBRANCH  33  34
ENDBRANCH  32  33
ENDBRANCH  31  32
ENDBRANCH   6  31
TORSDOF 9
