REMARK  Name = ZINC13694712
REMARK  4 active torsions:
REMARK  status: ('A' for Active; 'I' for Inactive)
REMARK    1  A    between atoms: C_10  and  N_11
REMARK    2  A    between atoms: C_12  and  C_14
REMARK    3  A    between atoms: C_14  and  N_15
REMARK    4  A    between atoms: N_25  and  C_26
REMARK                            x       y       z     vdW  Elec       q    Type
REMARK                         _______ _______ _______ _____ _____    ______ ____
ROOT
ATOM      1  N   UNL     1      -3.052  -2.331  -0.817  0.00  0.00    -0.291 NA
ATOM      2  C   UNL     1      -3.081  -1.485   0.384  0.00  0.00    +0.104 C 
ATOM      3  C   UNL     1      -2.007  -0.400   0.267  0.00  0.00    +0.123 C 
ATOM      4  N   UNL     1      -0.691  -1.032   0.103  0.00  0.00    -0.300 N 
ATOM      5  C   UNL     1      -0.662  -1.878  -1.099  0.00  0.00    +0.123 C 
ATOM      6  C   UNL     1      -1.736  -2.963  -0.981  0.00  0.00    +0.104 C 
ATOM      7  C   UNL     1       0.315  -0.081   0.064  0.00  0.00    +0.181 A 
ATOM      8  N   UNL     1       0.477   0.827  -0.869  0.00  0.00    -0.334 N 
ATOM      9  C   UNL     1       1.555   1.576  -0.578  0.00  0.00    +0.103 A 
ATOM     10  C   UNL     1       2.087   1.126   0.571  0.00  0.00    +0.112 A 
ATOM     11  N   UNL     1       1.304   0.071   0.989  0.00  0.00    -0.287 N 
ATOM     12  H   UNL     1      -0.223   0.877  -1.716  0.00  0.00    +0.168 HD
ENDROOT
BRANCH  11  13
ATOM     13  C   UNL     1       1.492  -0.701   2.146  0.00  0.00    +0.084 A 
ATOM     14  C   UNL     1       1.369  -0.117   3.398  0.00  0.00    +0.029 A 
ATOM     15  C   UNL     1       1.549  -0.881   4.536  0.00  0.00    +0.002 A 
ATOM     16  C   UNL     1       1.862  -2.223   4.428  0.00  0.00    +0.003 A 
ATOM     17  C   UNL     1       1.991  -2.808   3.182  0.00  0.00    +0.040 A 
ATOM     18  C   UNL     1       1.807  -2.051   2.039  0.00  0.00    +0.147 A 
ATOM     19  F   UNL     1       1.933  -2.622   0.821  0.00  0.00    -0.203 F 
ENDBRANCH  11  13
BRANCH   1  20
ATOM     20  C   UNL     1      -4.119  -3.339  -0.776  0.00  0.00    +0.180 C 
BRANCH  20  22
ATOM     21  N   UNL     1      -6.591  -3.389  -0.857  0.00  0.00    -0.284 N 
ATOM     22  C   UNL     1      -5.460  -2.656  -0.855  0.00  0.00    +0.231 C 
ATOM     23  O   UNL     1      -5.521  -1.446  -0.917  0.00  0.00    -0.274 OA
ATOM     24  H   UNL     1      -6.539  -4.481  -0.735  0.00  0.00    +0.155 HD
BRANCH  21  34
ATOM     25  C   UNL     1     -11.062  -4.780  -2.740  0.00  0.00    +0.001 A 
ATOM     26  C   UNL     1      -9.835  -5.424  -2.593  0.00  0.00    +0.001 A 
ATOM     27  C   UNL     1      -8.771  -4.784  -2.034  0.00  0.00    +0.010 A 
ATOM     28  C   UNL     1      -8.907  -3.455  -1.603  0.00  0.00    +0.003 A 
ATOM     29  C   UNL     1     -10.156  -2.801  -1.749  0.00  0.00    -0.016 A 
ATOM     30  C   UNL     1     -11.232  -3.493  -2.330  0.00  0.00    +0.008 A 
ATOM     31  C   UNL     1     -10.295  -1.472  -1.314  0.00  0.00    +0.008 A 
ATOM     32  C   UNL     1      -9.235  -0.825  -0.754  0.00  0.00    +0.002 A 
ATOM     33  C   UNL     1      -8.005  -1.459  -0.602  0.00  0.00    +0.024 A 
ATOM     34  C   UNL     1      -7.828  -2.762  -1.015  0.00  0.00    +0.041 A 
ENDBRANCH  21  34
ENDBRANCH  20  22
ENDBRANCH   1  20
TORSDOF 4
