REMARK  Name = ZINC04067751
REMARK  13 active torsions:
REMARK  status: ('A' for Active; 'I' for Inactive)
REMARK    1  A    between atoms: C_1  and  C_2
REMARK    2  A    between atoms: C_2  and  C_3
REMARK    3  A    between atoms: C_3  and  O_4
REMARK    4  A    between atoms: O_4  and  C_5
REMARK    5  A    between atoms: C_10  and  C_11
REMARK    6  A    between atoms: C_16  and  C_21
REMARK    7  A    between atoms: C_29  and  C_38
REMARK    8  A    between atoms: C_30  and  C_31
REMARK    9  A    between atoms: C_31  and  O_33
REMARK   10  A    between atoms: O_33  and  C_34
REMARK   11  A    between atoms: C_34  and  C_35
REMARK   12  A    between atoms: C_35  and  C_36
REMARK   13  A    between atoms: C_35  and  C_37
REMARK                            x       y       z     vdW  Elec       q    Type
REMARK                         _______ _______ _______ _____ _____    ______ ____
ROOT
ATOM      1  C   UNL     1       1.211   2.136  -0.074  0.00  0.00    +0.096 C 
ATOM      2  C   UNL     1       2.403   1.345   0.404  0.00  0.00    +0.024 C 
ATOM      3  C   UNL     1       2.361  -0.004   0.450  0.00  0.00    +0.016 C 
ATOM      4  C   UNL     1       3.550  -0.802   0.927  0.00  0.00    +0.059 C 
ATOM      5  C   UNL     1       4.841  -0.052   0.591  0.00  0.00    +0.032 C 
ATOM      6  C   UNL     1       4.790   1.326   1.259  0.00  0.00    +0.088 C 
ATOM      7  C   UNL     1       3.555   2.049   0.795  0.00  0.00    +0.162 C 
ATOM      8  O   UNL     1       3.553   3.263   0.758  0.00  0.00    -0.292 OA
ATOM      9  N   UNL     1       1.233  -0.678   0.067  0.00  0.00    -0.321 N 
ATOM     10  C   UNL     1       0.024  -0.040   0.018  0.00  0.00    +0.016 C 
ATOM     11  C   UNL     1      -0.036   1.301  -0.046  0.00  0.00    +0.065 C 
ATOM     12  C   UNL     1      -1.248  -0.847   0.035  0.00  0.00    +0.061 C 
ATOM     13  H   UNL     1       1.293  -1.742  -0.205  0.00  0.00    +0.152 HD
ENDROOT
BRANCH   5  14
ATOM     14  C   UNL     1       6.025  -0.825   1.112  0.00  0.00    -0.043 A 
ATOM     15  C   UNL     1       6.140  -1.084   2.465  0.00  0.00    +0.005 A 
ATOM     16  C   UNL     1       7.223  -1.797   2.943  0.00  0.00    +0.020 A 
ATOM     17  C   UNL     1       8.198  -2.242   2.068  0.00  0.00    +0.041 A 
ATOM     18  C   UNL     1       8.086  -1.978   0.715  0.00  0.00    +0.020 A 
ATOM     19  C   UNL     1       6.999  -1.269   0.237  0.00  0.00    +0.005 A 
ATOM     20 CL   UNL     1       9.563  -3.131   2.669  0.00  0.00    -0.084 Cl
ENDBRANCH   5  14
BRANCH   1  26
ATOM     21  C   UNL     1       1.503   3.962  -1.766  0.00  0.00    +0.125 A 
ATOM     22  C   UNL     1       1.735   4.391  -3.066  0.00  0.00    +0.046 A 
ATOM     23  C   UNL     1       1.923   3.466  -4.074  0.00  0.00    +0.004 A 
ATOM     24  C   UNL     1       1.881   2.113  -3.789  0.00  0.00    +0.001 A 
ATOM     25  C   UNL     1       1.655   1.683  -2.495  0.00  0.00    +0.008 A 
ATOM     26  C   UNL     1       1.461   2.605  -1.484  0.00  0.00    +0.006 A 
BRANCH  21  27
ATOM     27  O   UNL     1       1.317   4.871  -0.773  0.00  0.00    -0.492 OA
BRANCH  27  28
ATOM     28  C   UNL     1       1.374   6.251  -1.137  0.00  0.00    +0.229 C 
BRANCH  28  30
ATOM     29  C   UNL     1       1.204   8.594  -0.286  0.00  0.00    +0.007 C 
ATOM     30  C   UNL     1       1.144   7.116   0.104  0.00  0.00    +0.038 C 
ENDBRANCH  28  30
ENDBRANCH  27  28
ENDBRANCH  21  27
ENDBRANCH   1  26
BRANCH  11  31
ATOM     31  C   UNL     1      -1.298   1.937  -0.095  0.00  0.00    +0.338 C 
ATOM     32  O   UNL     1      -2.312   1.271  -0.187  0.00  0.00    -0.245 OA
BRANCH  31  33
ATOM     33  O   UNL     1      -1.378   3.283  -0.039  0.00  0.00    -0.461 OA
BRANCH  33  34
ATOM     34  C   UNL     1      -2.685   3.858  -0.093  0.00  0.00    +0.235 C 
BRANCH  34  35
ATOM     35  C   UNL     1      -2.575   5.383  -0.017  0.00  0.00    +0.020 C 
ATOM     36  C   UNL     1      -3.961   6.004  -0.200  0.00  0.00    +0.010 C 
ATOM     37  C   UNL     1      -2.011   5.786   1.347  0.00  0.00    +0.010 C 
ENDBRANCH  34  35
ENDBRANCH  33  34
ENDBRANCH  31  33
ENDBRANCH  11  31
TORSDOF 9
