REMARK  Name = ZINC65182192
REMARK  9 active torsions:
REMARK  status: ('A' for Active; 'I' for Inactive)
REMARK    1  A    between atoms: C_1  and  C_2
REMARK    2  A    between atoms: C_7  and  C_12
REMARK    3  A    between atoms: C_15  and  C_18
REMARK    4  A    between atoms: C_18  and  C_19
REMARK    5  A    between atoms: C_19  and  N_20
REMARK    6  A    between atoms: N_20  and  C_21
REMARK    7  A    between atoms: C_22  and  C_24
REMARK    8  A    between atoms: C_27  and  O_31
REMARK    9  A    between atoms: O_31  and  C_32
REMARK                            x       y       z     vdW  Elec       q    Type
REMARK                         _______ _______ _______ _____ _____    ______ ____
ROOT
ATOM      1  C   UNL     1       1.513  -5.165   1.922  0.00  0.00    +0.318 C 
ATOM      2  N   UNL     1       1.543  -6.416   1.146  0.00  0.00    -0.291 N 
ATOM      3  C   UNL     1       1.511  -7.448   2.054  0.00  0.00    +0.139 C 
ATOM      4  N   UNL     1       1.467  -7.013   3.261  0.00  0.00    -0.072 NA
ATOM      5  O   UNL     1       1.466  -5.595   3.292  0.00  0.00    -0.367 OA
ATOM      6  H   UNL     1       1.578  -6.496   0.180  0.00  0.00    +0.151 HD
ENDROOT
BRANCH   1  13
ATOM      7  C   UNL     1       0.345   1.578   0.184  0.00  0.00    +0.044 C 
ATOM      8  C   UNL     1       0.318   0.072   0.158  0.00  0.00    -0.050 A 
ATOM      9  C   UNL     1       0.280  -0.589  -1.077  0.00  0.00    +0.005 A 
ATOM     10  C   UNL     1       0.254  -1.934  -1.185  0.00  0.00    +0.026 A 
ATOM     11  C   UNL     1       0.263  -2.748  -0.018  0.00  0.00    +0.043 A 
ATOM     12  N   UNL     1       0.243  -4.050   0.138  0.00  0.00    -0.373 N 
ATOM     13  C   UNL     1       0.267  -4.349   1.574  0.00  0.00    +0.165 C 
ATOM     14  C   UNL     1       0.306  -3.010   2.276  0.00  0.00    +0.012 C 
ATOM     15  C   UNL     1       0.303  -2.075   1.299  0.00  0.00    -0.004 A 
ATOM     16  C   UNL     1       0.336  -0.608   1.327  0.00  0.00    +0.013 A 
ATOM     17  H   UNL     1       0.216  -4.705  -0.577  0.00  0.00    +0.160 HD
ENDBRANCH   1  13
BRANCH   3  18
ATOM     18  C   UNL     1       1.526  -8.908   1.679  0.00  0.00    +0.094 C 
BRANCH  18  19
ATOM     19  C   UNL     1       1.481  -9.761   2.948  0.00  0.00    +0.115 C 
BRANCH  19  20
ATOM     20  N   UNL     1       1.496 -11.180   2.583  0.00  0.00    -0.300 N 
ATOM     21  C   UNL     1       2.771 -11.888   2.446  0.00  0.00    +0.132 C 
ATOM     22  C   UNL     1       0.336 -11.834   2.374  0.00  0.00    +0.246 C 
ATOM     23  O   UNL     1      -0.716 -11.224   2.382  0.00  0.00    -0.270 OA
BRANCH  22  24
ATOM     24  C   UNL     1       0.343 -13.290   2.134  0.00  0.00    +0.040 A 
ATOM     25  C   UNL     1       1.270 -14.103   2.789  0.00  0.00    +0.017 A 
ATOM     26  C   UNL     1       1.274 -15.462   2.564  0.00  0.00    +0.049 A 
ATOM     27  C   UNL     1       0.357 -16.025   1.685  0.00  0.00    +0.155 A 
ATOM     28  C   UNL     1      -0.569 -15.220   1.030  0.00  0.00    +0.165 A 
ATOM     29  C   UNL     1      -0.583 -13.859   1.255  0.00  0.00    +0.055 A 
ATOM     30  F   UNL     1      -1.459 -15.771   0.176  0.00  0.00    -0.202 F 
BRANCH  27  31
ATOM     31  O   UNL     1       0.364 -17.365   1.466  0.00  0.00    -0.492 OA
ATOM     32  C   UNL     1       1.341 -18.133   2.172  0.00  0.00    +0.277 C 
ENDBRANCH  27  31
ENDBRANCH  22  24
ENDBRANCH  19  20
ENDBRANCH  18  19
ENDBRANCH   3  18
TORSDOF 6
