REMARK  Name = ZINC65278854
REMARK  6 active torsions:
REMARK  status: ('A' for Active; 'I' for Inactive)
REMARK    1  A    between atoms: C_1  and  C_2
REMARK    2  A    between atoms: C_6  and  C_8
REMARK    3  A    between atoms: C_6  and  C_9
REMARK    4  A    between atoms: N_12  and  C_13
REMARK    5  A    between atoms: C_13  and  C_14
REMARK    6  A    between atoms: C_13  and  C_15
REMARK                            x       y       z     vdW  Elec       q    Type
REMARK                         _______ _______ _______ _____ _____    ______ ____
ROOT
ATOM      1  C   UNL     1      -0.025   1.524   0.013  0.00  0.00    +0.039 C 
ATOM      2  C   UNL     1      -0.002  -0.006   0.004  0.00  0.00    +0.133 C 
ATOM      3  C   UNL     1       0.722  -0.500  -1.254  0.00  0.00    +0.140 C 
ATOM      4  N   UNL     1       0.895  -1.957  -1.148  0.00  0.00    -0.280 N 
ATOM      5  C   UNL     1       1.481  -2.496   0.090  0.00  0.00    +0.143 C 
ATOM      6  C   UNL     1       0.720  -1.905   1.282  0.00  0.00    +0.080 C 
ATOM      7  O   UNL     1       0.689  -0.481   1.161  0.00  0.00    -0.368 OA
ATOM      8  C   UNL     1      -0.710  -2.448   1.295  0.00  0.00    +0.043 C 
ATOM      9  C   UNL     1       1.427  -2.292   2.582  0.00  0.00    +0.043 C 
ATOM     10  C   UNL     1       0.528  -2.775  -2.155  0.00  0.00    +0.303 C 
ATOM     11  O   UNL     1       0.762  -3.966  -2.087  0.00  0.00    -0.253 OA
ATOM     12  N   UNL     1      -0.098  -2.272  -3.237  0.00  0.00    -0.293 N 
ATOM     13  H   UNL     1      -0.219  -1.313  -3.326  0.00  0.00    +0.151 HD
ENDROOT
BRANCH  12  14
ATOM     14  C   UNL     1      -0.595  -3.172  -4.280  0.00  0.00    +0.102 C 
ATOM     15  C   UNL     1       0.534  -3.489  -5.262  0.00  0.00    +0.033 C 
BRANCH  14  16
ATOM     16  C   UNL     1      -1.731  -2.509  -5.017  0.00  0.00    -0.027 A 
ATOM     17  C   UNL     1      -1.661  -1.163  -5.325  0.00  0.00    +0.008 A 
ATOM     18  C   UNL     1      -2.701  -0.554  -6.001  0.00  0.00    +0.038 A 
ATOM     19  C   UNL     1      -3.813  -1.292  -6.369  0.00  0.00    +0.123 A 
ATOM     20  C   UNL     1      -3.882  -2.640  -6.059  0.00  0.00    +0.038 A 
ATOM     21  C   UNL     1      -2.838  -3.248  -5.388  0.00  0.00    +0.008 A 
ATOM     22  F   UNL     1      -4.831  -0.698  -7.029  0.00  0.00    -0.205 F 
ENDBRANCH  14  16
ENDBRANCH  12  14
TORSDOF 2
