REMARK  Name = ZINC63372412
REMARK  7 active torsions:
REMARK  status: ('A' for Active; 'I' for Inactive)
REMARK    1  A    between atoms: C_1  and  C_2
REMARK    2  A    between atoms: C_2  and  C_3
REMARK    3  A    between atoms: C_6  and  C_9
REMARK    4  A    between atoms: N_16  and  C_31
REMARK    5  A    between atoms: C_19  and  C_30
REMARK    6  A    between atoms: C_31  and  C_32
REMARK    7  A    between atoms: C_32  and  C_33
REMARK                            x       y       z     vdW  Elec       q    Type
REMARK                         _______ _______ _______ _____ _____    ______ ____
ROOT
ATOM      1  C   UNL     1      -5.399  -2.057   0.033  0.00  0.00    +0.065 C 
ATOM      2  C   UNL     1      -5.497  -3.374  -0.741  0.00  0.00    +0.121 C 
ATOM      3  N   UNL     1      -6.841  -3.677  -1.200  0.00  0.00    -0.283 N 
ATOM      4  C   UNL     1      -7.080  -4.963  -1.624  0.00  0.00    +0.234 C 
ATOM      5  O   UNL     1      -6.254  -5.841  -1.488  0.00  0.00    -0.274 OA
ATOM      6  C   UNL     1      -8.425  -5.232  -2.266  0.00  0.00    +0.203 C 
ATOM      7  N   UNL     1      -8.729  -4.129  -3.197  0.00  0.00    -0.291 N 
ATOM      8  C   UNL     1      -8.527  -2.861  -2.726  0.00  0.00    +0.242 C 
ATOM      9  O   UNL     1      -8.778  -1.876  -3.387  0.00  0.00    -0.273 OA
ATOM     10  C   UNL     1      -7.971  -2.774  -1.328  0.00  0.00    +0.135 C 
ATOM     11  C   UNL     1      -7.788  -1.374  -0.832  0.00  0.00    +0.139 C 
ATOM     12  C   UNL     1      -6.303  -1.083  -0.678  0.00  0.00    -0.027 C 
ATOM     13  C   UNL     1      -6.083   0.076  -1.280  0.00  0.00    -0.000 A 
ATOM     14  C   UNL     1      -4.881   0.919  -1.382  0.00  0.00    +0.010 A 
ATOM     15  C   UNL     1      -5.007   2.059  -2.111  0.00  0.00    +0.001 A 
ATOM     16  C   UNL     1      -6.195   2.441  -2.743  0.00  0.00    +0.002 A 
ATOM     17  C   UNL     1      -7.351   1.732  -2.695  0.00  0.00    +0.026 A 
ATOM     18  C   UNL     1      -7.346   0.517  -1.950  0.00  0.00    +0.043 A 
ATOM     19  N   UNL     1      -8.288  -0.336  -1.732  0.00  0.00    -0.375 N 
ATOM     20  C   UNL     1      -9.060  -3.364  -0.431  0.00  0.00    +0.044 C 
ATOM     21  H   UNL     1      -9.184  -0.286  -2.101  0.00  0.00    +0.160 HD
ENDROOT
BRANCH   1  25
ATOM     22  C   UNL     1      -1.374  -0.627  -0.008  0.00  0.00    -0.048 A 
ATOM     23  C   UNL     1      -2.006  -0.878   1.196  0.00  0.00    +0.004 A 
ATOM     24  C   UNL     1      -3.308  -1.340   1.209  0.00  0.00    +0.004 A 
ATOM     25  C   UNL     1      -3.979  -1.552   0.019  0.00  0.00    -0.039 A 
ATOM     26  C   UNL     1      -3.347  -1.300  -1.185  0.00  0.00    +0.004 A 
ATOM     27  C   UNL     1      -2.046  -0.834  -1.198  0.00  0.00    +0.004 A 
BRANCH  22  29
ATOM     28  C   UNL     1       0.045   1.407   0.009  0.00  0.00    +0.009 C 
ATOM     29  C   UNL     1       0.046  -0.123  -0.022  0.00  0.00    +0.032 C 
ENDBRANCH  22  29
ENDBRANCH   1  25
BRANCH   7  30
ATOM     30  C   UNL     1      -9.222  -4.378  -4.553  0.00  0.00    +0.113 C 
BRANCH  30  31
ATOM     31  C   UNL     1     -10.751  -4.430  -4.539  0.00  0.00    +0.057 C 
BRANCH  31  32
ATOM     32  C   UNL     1     -11.258  -4.687  -5.935  0.00  0.00    -0.011 A 
ATOM     33  C   UNL     1     -11.624  -3.627  -6.743  0.00  0.00    +0.006 A 
ATOM     34  C   UNL     1     -12.089  -3.862  -8.024  0.00  0.00    +0.000 A 
ATOM     35  C   UNL     1     -12.188  -5.157  -8.498  0.00  0.00    +0.003 A 
ATOM     36  C   UNL     1     -11.822  -6.218  -7.692  0.00  0.00    +0.038 A 
ATOM     37  C   UNL     1     -11.351  -5.983  -6.411  0.00  0.00    +0.127 A 
ATOM     38  F   UNL     1     -10.988  -7.020  -5.623  0.00  0.00    -0.205 F 
ENDBRANCH  31  32
ENDBRANCH  30  31
ENDBRANCH   7  30
TORSDOF 5
