REMARK  Name = ZINC01372535
REMARK  10 active torsions:
REMARK  status: ('A' for Active; 'I' for Inactive)
REMARK    1  A    between atoms: C_1  and  C_2
REMARK    2  A    between atoms: C_7  and  C_8
REMARK    3  A    between atoms: C_8  and  C_10
REMARK    4  A    between atoms: C_8  and  N_20
REMARK    5  A    between atoms: N_12  and  C_13
REMARK    6  A    between atoms: C_13  and  C_14
REMARK    7  A    between atoms: N_20  and  C_21
REMARK    8  A    between atoms: C_21  and  C_22
REMARK    9  A    between atoms: C_28  and  C_30
REMARK   10  A    between atoms: C_30  and  N_31
REMARK                            x       y       z     vdW  Elec       q    Type
REMARK                         _______ _______ _______ _____ _____    ______ ____
ROOT
ATOM      1  N   UNL     1       4.168  -1.308  -1.745  0.00  0.00    -0.280 N 
ATOM      2  C   UNL     1       3.749  -1.628  -0.505  0.00  0.00    +0.238 C 
ATOM      3  O   UNL     1       4.075  -0.943   0.441  0.00  0.00    -0.274 OA
ENDROOT
BRANCH   1   4
ATOM      4  C   UNL     1       4.936  -0.080  -1.965  0.00  0.00    +0.193 C 
BRANCH   4  11
ATOM      5  C   UNL     1       2.611   0.917  -3.362  0.00  0.00    +0.044 C 
ATOM      6  C   UNL     1       3.059   1.572  -2.082  0.00  0.00    -0.045 A 
ATOM      7  C   UNL     1       2.355   2.648  -1.573  0.00  0.00    +0.004 A 
ATOM      8  C   UNL     1       2.769   3.253  -0.401  0.00  0.00    +0.000 A 
ATOM      9  C   UNL     1       3.884   2.779   0.266  0.00  0.00    +0.000 A 
ATOM     10  C   UNL     1       4.585   1.700  -0.241  0.00  0.00    +0.006 A 
ATOM     11  C   UNL     1       4.171   1.095  -1.413  0.00  0.00    -0.015 A 
ENDBRANCH   4  11
BRANCH   4  12
ATOM     12  C   UNL     1       6.266  -0.187  -1.266  0.00  0.00    +0.238 C 
ATOM     13  O   UNL     1       6.466  -1.086  -0.476  0.00  0.00    -0.273 OA
ATOM     14  N   UNL     1       7.234   0.716  -1.518  0.00  0.00    -0.309 N 
ATOM     15  H   UNL     1       7.051   1.477  -2.091  0.00  0.00    +0.149 HD
BRANCH  14  16
ATOM     16  C   UNL     1       8.565   0.548  -0.928  0.00  0.00    +0.139 C 
BRANCH  16  17
ATOM     17  C   UNL     1       9.455   1.683  -1.363  0.00  0.00    -0.030 A 
ATOM     18  C   UNL     1      10.211   1.567  -2.514  0.00  0.00    +0.005 A 
ATOM     19  C   UNL     1      11.023   2.611  -2.916  0.00  0.00    +0.000 A 
ATOM     20  C   UNL     1      11.088   3.767  -2.161  0.00  0.00    +0.000 A 
ATOM     21  C   UNL     1      10.336   3.881  -1.006  0.00  0.00    +0.000 A 
ATOM     22  C   UNL     1       9.519   2.839  -0.607  0.00  0.00    +0.005 A 
ENDBRANCH  16  17
ENDBRANCH  14  16
ENDBRANCH   4  12
ENDBRANCH   1   4
BRANCH   1  23
ATOM     23  C   UNL     1       3.857  -2.189  -2.873  0.00  0.00    +0.144 C 
BRANCH  23  24
ATOM     24  C   UNL     1       5.016  -3.121  -3.119  0.00  0.00    -0.030 A 
ATOM     25  C   UNL     1       5.053  -4.356  -2.500  0.00  0.00    +0.005 A 
ATOM     26  C   UNL     1       6.116  -5.210  -2.724  0.00  0.00    +0.000 A 
ATOM     27  C   UNL     1       7.142  -4.829  -3.568  0.00  0.00    +0.000 A 
ATOM     28  C   UNL     1       7.105  -3.594  -4.188  0.00  0.00    +0.000 A 
ATOM     29  C   UNL     1       6.042  -2.740  -3.963  0.00  0.00    +0.005 A 
ENDBRANCH  23  24
ENDBRANCH   1  23
BRANCH   2  30
ATOM     30  C   UNL     1       2.874  -2.837  -0.293  0.00  0.00    +0.241 C 
BRANCH  30  31
ATOM     31  N   UNL     1       2.548  -2.961   1.130  0.00  0.00    -0.235 N 
ATOM     32  C   UNL     1       1.470  -2.409   1.778  0.00  0.00    +0.090 A 
ATOM     33  C   UNL     1       0.402  -1.613   1.374  0.00  0.00    +0.029 A 
ATOM     34  C   UNL     1      -0.534  -1.218   2.287  0.00  0.00    +0.002 A 
ATOM     35  C   UNL     1      -0.430  -1.602   3.618  0.00  0.00    +0.002 A 
ATOM     36  C   UNL     1       0.607  -2.381   4.040  0.00  0.00    +0.032 A 
ATOM     37  C   UNL     1       1.580  -2.801   3.123  0.00  0.00    +0.113 A 
ATOM     38  N   UNL     1       2.691  -3.556   3.239  0.00  0.00    -0.129 NA
ATOM     39  N   UNL     1       3.273  -3.672   2.098  0.00  0.00    -0.064 NA
ENDBRANCH  30  31
ENDBRANCH   2  30
TORSDOF 9
