REMARK  Name = ZINC35829608
REMARK  10 active torsions:
REMARK  status: ('A' for Active; 'I' for Inactive)
REMARK    1  A    between atoms: C_1  and  C_2
REMARK    2  A    between atoms: C_2  and  C_3
REMARK    3  A    between atoms: C_2  and  C_4
REMARK    4  A    between atoms: C_2  and  C_5
REMARK    5  A    between atoms: N_11  and  C_16
REMARK    6  A    between atoms: C_16  and  C_17
REMARK    7  A    between atoms: C_20  and  C_23
REMARK    8  A    between atoms: N_25  and  C_26
REMARK    9  A    between atoms: N_29  and  C_32
REMARK   10  A    between atoms: C_32  and  C_33
REMARK                            x       y       z     vdW  Elec       q    Type
REMARK                         _______ _______ _______ _____ _____    ______ ____
ROOT
ATOM      1  C   UNL     1       5.537  -0.836  -1.058  0.00  0.00    -0.030 A 
ATOM      2  C   UNL     1       4.926  -1.435   0.029  0.00  0.00    +0.006 A 
ATOM      3  C   UNL     1       5.550  -2.471   0.692  0.00  0.00    +0.013 A 
ATOM      4  C   UNL     1       6.802  -2.915   0.263  0.00  0.00    +0.037 A 
ATOM      5  C   UNL     1       7.414  -2.307  -0.834  0.00  0.00    +0.013 A 
ATOM      6  C   UNL     1       6.776  -1.275  -1.491  0.00  0.00    +0.006 A 
ENDROOT
BRANCH   4   7
ATOM      7  C   UNL     1       7.478  -4.025   0.969  0.00  0.00    +0.244 C 
ATOM      8  O   UNL     1       6.943  -4.553   1.924  0.00  0.00    -0.270 OA
ATOM      9  N   UNL     1       8.687  -4.452   0.553  0.00  0.00    -0.309 N 
ATOM     10  H   UNL     1       9.114  -4.030  -0.210  0.00  0.00    +0.149 HD
BRANCH   9  11
ATOM     11  C   UNL     1       9.356  -5.551   1.252  0.00  0.00    +0.070 C 
ATOM     12  C   UNL     1      10.137  -4.998   2.448  0.00  0.00    +0.004 C 
ATOM     13  C   UNL     1      10.897  -6.140   3.126  0.00  0.00    -0.077 C 
ATOM     14  N   UNL     1      11.830  -6.747   2.169  0.00  0.00    +0.382 N 
ATOM     15  C   UNL     1      11.083  -7.343   1.055  0.00  0.00    -0.077 C 
ATOM     16  C   UNL     1      10.330  -6.248   0.297  0.00  0.00    +0.004 C 
ATOM     17  H   UNL     1      12.454  -6.039   1.814  0.00  0.00    -0.081 HD
BRANCH  14  18
ATOM     18  C   UNL     1      12.613  -7.790   2.846  0.00  0.00    -0.043 C 
BRANCH  18  19
ATOM     19  C   UNL     1      13.654  -8.330   1.900  0.00  0.00    -0.064 A 
ATOM     20  C   UNL     1      13.355  -9.402   1.081  0.00  0.00    +0.002 A 
ATOM     21  C   UNL     1      14.310  -9.898   0.213  0.00  0.00    +0.000 A 
ATOM     22  C   UNL     1      15.565  -9.320   0.164  0.00  0.00    +0.000 A 
ATOM     23  C   UNL     1      15.864  -8.246   0.982  0.00  0.00    +0.000 A 
ATOM     24  C   UNL     1      14.907  -7.749   1.847  0.00  0.00    +0.002 A 
ENDBRANCH  18  19
ENDBRANCH  14  18
ENDBRANCH   9  11
ENDBRANCH   4   7
BRANCH   1  25
ATOM     25  C   UNL     1       4.849   0.295  -1.777  0.00  0.00    +0.149 C 
BRANCH  25  32
ATOM     26  C   UNL     1       0.707  -0.490  -1.238  0.00  0.00    -0.040 A 
ATOM     27  C   UNL     1       0.034  -1.284  -2.147  0.00  0.00    +0.008 A 
ATOM     28  C   UNL     1       0.674  -1.734  -3.288  0.00  0.00    +0.048 A 
ATOM     29  C   UNL     1       1.994  -1.388  -3.520  0.00  0.00    +0.143 A 
ATOM     30  C   UNL     1       2.673  -0.587  -2.603  0.00  0.00    +0.079 A 
ATOM     31  C   UNL     1       2.025  -0.136  -1.465  0.00  0.00    +0.031 A 
ATOM     32  N   UNL     1       4.010  -0.246  -2.849  0.00  0.00    -0.261 N 
ATOM     33  C   UNL     1       4.513  -0.423  -4.090  0.00  0.00    +0.258 C 
ATOM     34  O   UNL     1       5.676  -0.165  -4.318  0.00  0.00    -0.271 OA
ATOM     35  C   UNL     1       3.624  -0.945  -5.190  0.00  0.00    +0.325 C 
ATOM     36  O   UNL     1       2.638  -1.820  -4.637  0.00  0.00    -0.481 OA
BRANCH  26  38
ATOM     37  C   UNL     1      -0.019   1.526   0.010  0.00  0.00    +0.015 C 
ATOM     38  C   UNL     1       0.002  -0.004   0.002  0.00  0.00    -0.013 C 
ATOM     39  C   UNL     1       0.742  -0.511   1.242  0.00  0.00    +0.015 C 
ATOM     40  C   UNL     1      -1.433  -0.534   0.013  0.00  0.00    +0.015 C 
ENDBRANCH  26  38
ENDBRANCH  25  32
ENDBRANCH   1  25
TORSDOF 7
