REMARK  Name = ZINC35870292
REMARK  6 active torsions:
REMARK  status: ('A' for Active; 'I' for Inactive)
REMARK    1  A    between atoms: C_1  and  C_2
REMARK    2  A    between atoms: C_2  and  C_4
REMARK    3  A    between atoms: C_2  and  N_10
REMARK    4  A    between atoms: C_11  and  C_13
REMARK    5  A    between atoms: C_18  and  N_36
REMARK    6  A    between atoms: N_26  and  C_29
REMARK                            x       y       z     vdW  Elec       q    Type
REMARK                         _______ _______ _______ _____ _____    ______ ____
ROOT
ATOM      1  C   UNL     1       2.765  -1.103   2.371  0.00  0.00    +0.101 C 
ATOM      2  C   UNL     1       2.471  -0.179   3.552  0.00  0.00    +0.051 C 
ATOM      3  C   UNL     1       3.038   1.185   3.252  0.00  0.00    -0.023 A 
ATOM      4  C   UNL     1       2.442   2.307   3.797  0.00  0.00    +0.038 A 
ATOM      5  C   UNL     1       2.948   3.563   3.519  0.00  0.00    +0.127 A 
ATOM      6  C   UNL     1       4.050   3.699   2.695  0.00  0.00    +0.034 A 
ATOM      7  C   UNL     1       4.651   2.582   2.152  0.00  0.00    +0.025 A 
ATOM      8  C   UNL     1       4.146   1.315   2.434  0.00  0.00    +0.033 A 
ATOM      9  N   UNL     1       4.796   0.195   1.887  0.00  0.00    -0.323 N 
ATOM     10  C   UNL     1       4.272  -1.140   2.101  0.00  0.00    +0.103 C 
ATOM     11  C   UNL     1       4.526  -2.079   0.933  0.00  0.00    +0.128 C 
ATOM     12  N   UNL     1       5.766  -1.798   0.237  0.00  0.00    -0.327 N 
ATOM     13  C   UNL     1       6.216  -0.445  -0.042  0.00  0.00    +0.124 C 
ATOM     14  C   UNL     1       6.035   0.454   1.156  0.00  0.00    +0.124 C 
ENDROOT
BRANCH  12  15
ATOM     15  C   UNL     1       6.560  -2.870  -0.180  0.00  0.00    +0.030 A 
ATOM     16  C   UNL     1       7.695  -2.638  -0.946  0.00  0.00    +0.026 A 
ATOM     17  C   UNL     1       8.479  -3.698  -1.357  0.00  0.00    +0.040 A 
ATOM     18  C   UNL     1       8.133  -4.992  -1.006  0.00  0.00    +0.124 A 
ATOM     19  C   UNL     1       7.002  -5.226  -0.243  0.00  0.00    +0.040 A 
ATOM     20  C   UNL     1       6.219  -4.168   0.175  0.00  0.00    +0.026 A 
ATOM     21  F   UNL     1       8.901  -6.028  -1.410  0.00  0.00    -0.205 F 
ENDBRANCH  12  15
BRANCH   1  23
ATOM     22  N   UNL     1       0.707  -0.477   1.150  0.00  0.00    -0.308 N 
ATOM     23  C   UNL     1       2.050  -0.593   1.147  0.00  0.00    +0.219 C 
ATOM     24  O   UNL     1       2.682  -0.285   0.159  0.00  0.00    -0.275 OA
ATOM     25  H   UNL     1       0.201  -0.723   1.940  0.00  0.00    +0.149 HD
BRANCH  22  27
ATOM     26  C   UNL     1      -0.004   1.549  -0.021  0.00  0.00    +0.033 C 
ATOM     27  C   UNL     1       0.011   0.019  -0.040  0.00  0.00    +0.100 C 
BRANCH  27  28
ATOM     28  C   UNL     1      -1.405  -0.497  -0.046  0.00  0.00    -0.027 A 
ATOM     29  C   UNL     1      -2.127  -0.548   1.131  0.00  0.00    +0.005 A 
ATOM     30  C   UNL     1      -3.426  -1.022   1.125  0.00  0.00    +0.000 A 
ATOM     31  C   UNL     1      -4.002  -1.444  -0.058  0.00  0.00    +0.000 A 
ATOM     32  C   UNL     1      -3.280  -1.393  -1.236  0.00  0.00    +0.000 A 
ATOM     33  C   UNL     1      -1.983  -0.915  -1.230  0.00  0.00    +0.005 A 
ENDBRANCH  27  28
ENDBRANCH  22  27
ENDBRANCH   1  23
BRANCH   5  34
ATOM     34  N   UNL     1       2.310   4.763   4.105  0.00  0.00    +0.056 N 
ATOM     35  O   UNL     1       1.347   4.644   4.826  0.00  0.00    -0.126 OA
ATOM     36  O   UNL     1       2.752   5.862   3.862  0.00  0.00    -0.126 OA
ENDBRANCH   5  34
TORSDOF 5
