REMARK  Name = ZINC09158512
REMARK  6 active torsions:
REMARK  status: ('A' for Active; 'I' for Inactive)
REMARK    1  A    between atoms: C_1  and  O_2
REMARK    2  A    between atoms: O_2  and  C_3
REMARK    3  A    between atoms: C_6  and  C_9
REMARK    4  A    between atoms: C_26  and  C_31
REMARK    5  A    between atoms: C_31  and  O_32
REMARK    6  A    between atoms: O_32  and  C_33
REMARK                            x       y       z     vdW  Elec       q    Type
REMARK                         _______ _______ _______ _____ _____    ______ ____
ROOT
ATOM      1  C   UNL     1       1.153   3.552   0.004  0.00  0.00    +0.092 C 
ATOM      2  C   UNL     1      -0.199   4.079  -0.399  0.00  0.00    +0.015 A 
ATOM      3  C   UNL     1      -0.325   5.418  -0.810  0.00  0.00    -0.010 A 
ATOM      4  C   UNL     1       0.791   6.273  -0.851  0.00  0.00    +0.009 A 
ATOM      5  C   UNL     1       0.634   7.565  -1.250  0.00  0.00    +0.001 A 
ATOM      6  C   UNL     1      -0.617   8.055  -1.620  0.00  0.00    +0.001 A 
ATOM      7  C   UNL     1      -1.719   7.256  -1.593  0.00  0.00    +0.008 A 
ATOM      8  C   UNL     1      -1.596   5.916  -1.188  0.00  0.00    -0.017 A 
ATOM      9  C   UNL     1      -2.709   5.060  -1.149  0.00  0.00    +0.012 A 
ATOM     10  C   UNL     1      -2.554   3.772  -0.748  0.00  0.00    +0.047 A 
ATOM     11  C   UNL     1      -1.298   3.272  -0.369  0.00  0.00    +0.135 A 
ATOM     12  O   UNL     1      -1.206   1.980   0.030  0.00  0.00    -0.437 OA
ATOM     13  C   UNL     1      -0.016   1.338   0.009  0.00  0.00    +0.230 A 
ATOM     14  C   UNL     1       1.151   2.055   0.002  0.00  0.00    +0.070 A 
ATOM     15  C   UNL     1       2.346   1.318  -0.008  0.00  0.00    +0.167 A 
ATOM     16  N   UNL     1       3.612   1.664  -0.014  0.00  0.00    -0.207 NA
ATOM     17  C   UNL     1       4.372   0.570  -0.021  0.00  0.00    +0.189 A 
ATOM     18  N   UNL     1       3.609  -0.502  -0.020  0.00  0.00    -0.145 NA
ATOM     19  N   UNL     1       2.292  -0.064  -0.013  0.00  0.00    -0.201 N 
ATOM     20  C   UNL     1       1.103  -0.716  -0.009  0.00  0.00    +0.229 A 
ATOM     21  N   UNL     1       0.002  -0.004   0.002  0.00  0.00    -0.201 NA
ENDROOT
BRANCH   1  25
ATOM     22  C   UNL     1       2.107   4.959   3.925  0.00  0.00    +0.120 A 
ATOM     23  C   UNL     1       2.917   5.296   2.849  0.00  0.00    +0.046 A 
ATOM     24  C   UNL     1       2.606   4.840   1.583  0.00  0.00    +0.008 A 
ATOM     25  C   UNL     1       1.490   4.048   1.387  0.00  0.00    -0.035 A 
ATOM     26  C   UNL     1       0.678   3.716   2.456  0.00  0.00    +0.008 A 
ATOM     27  C   UNL     1       0.988   4.165   3.725  0.00  0.00    +0.046 A 
BRANCH  22  29
ATOM     28  C   UNL     1       1.534   5.020   6.231  0.00  0.00    +0.277 C 
ATOM     29  O   UNL     1       2.411   5.407   5.171  0.00  0.00    -0.495 OA
ENDBRANCH  22  29
ENDBRANCH   1  25
BRANCH  17  30
ATOM     30  C   UNL     1       5.879   0.562  -0.028  0.00  0.00    +0.306 C 
BRANCH  30  31
ATOM     31  O   UNL     1       6.349   0.564  -1.377  0.00  0.00    -0.484 OA
BRANCH  31  32
ATOM     32  C   UNL     1       7.696   0.557  -1.562  0.00  0.00    +0.121 A 
ATOM     33  C   UNL     1       8.546   0.555  -0.466  0.00  0.00    +0.047 A 
ATOM     34  C   UNL     1       9.915   0.544  -0.655  0.00  0.00    +0.023 A 
ATOM     35  C   UNL     1      10.437   0.545  -1.937  0.00  0.00    +0.041 A 
ATOM     36  C   UNL     1       9.590   0.552  -3.031  0.00  0.00    +0.023 A 
ATOM     37  C   UNL     1       8.221   0.558  -2.845  0.00  0.00    +0.047 A 
ATOM     38 CL   UNL     1      12.157   0.536  -2.172  0.00  0.00    -0.084 Cl
ENDBRANCH  31  32
ENDBRANCH  30  31
ENDBRANCH  17  30
TORSDOF 5
