REMARK  Name = ZINC40140886
REMARK  8 active torsions:
REMARK  status: ('A' for Active; 'I' for Inactive)
REMARK    1  A    between atoms: C_1  and  C_2
REMARK    2  A    between atoms: C_2  and  N_3
REMARK    3  A    between atoms: N_3  and  C_4
REMARK    4  A    between atoms: N_3  and  C_6
REMARK    5  A    between atoms: C_4  and  C_5
REMARK    6  A    between atoms: C_9  and  C_12
REMARK    7  A    between atoms: N_13  and  C_14
REMARK    8  A    between atoms: C_16  and  C_27
REMARK                            x       y       z     vdW  Elec       q    Type
REMARK                         _______ _______ _______ _____ _____    ______ ____
ROOT
ATOM      1  C   UNL     1      -2.200  -2.118  -8.139  0.00  0.00    +0.222 C 
ATOM      2  C   UNL     1      -2.307  -3.580  -8.528  0.00  0.00    +0.002 C 
ATOM      3  C   UNL     1      -1.958  -3.915  -9.839  0.00  0.00    +0.003 A 
ATOM      4  C   UNL     1      -2.030  -5.252 -10.284  0.00  0.00    +0.025 A 
ATOM      5  C   UNL     1      -1.685  -5.551 -11.566  0.00  0.00    +0.019 A 
ATOM      6  C   UNL     1      -1.260  -4.562 -12.452  0.00  0.00    +0.017 A 
ATOM      7  C   UNL     1      -1.171  -3.255 -12.080  0.00  0.00    +0.025 A 
ATOM      8  C   UNL     1      -1.512  -2.873 -10.770  0.00  0.00    +0.041 A 
ATOM      9  N   UNL     1      -1.423  -1.589 -10.406  0.00  0.00    -0.283 N 
ATOM     10  C   UNL     1      -1.725  -1.151  -9.200  0.00  0.00    +0.246 C 
ATOM     11  O   UNL     1      -1.620   0.033  -8.941  0.00  0.00    -0.273 OA
ATOM     12 BR   UNL     1      -1.782  -7.345 -12.158  0.00  0.00    -0.050 Br
ATOM     13  H   UNL     1      -1.121  -0.945 -11.066  0.00  0.00    +0.155 HD
ENDROOT
BRANCH   2  14
ATOM     14  C   UNL     1      -2.742  -4.562  -7.603  0.00  0.00    -0.019 A 
ATOM     15  C   UNL     1      -1.866  -5.577  -7.186  0.00  0.00    +0.008 A 
ATOM     16  C   UNL     1      -2.298  -6.527  -6.286  0.00  0.00    +0.001 A 
ATOM     17  C   UNL     1      -3.592  -6.482  -5.793  0.00  0.00    +0.000 A 
ATOM     18  C   UNL     1      -4.464  -5.485  -6.198  0.00  0.00    +0.001 A 
ATOM     19  C   UNL     1      -4.050  -4.523  -7.092  0.00  0.00    +0.008 A 
ENDBRANCH   2  14
BRANCH   1  21
ATOM     20  C   UNL     1      -1.715  -1.599  -5.856  0.00  0.00    +0.114 C 
ATOM     21  N   UNL     1      -1.283  -2.022  -7.001  0.00  0.00    -0.274 NA
BRANCH  20  25
ATOM     22  C   UNL     1       0.942  -1.321  -2.556  0.00  0.00    +0.030 A 
ATOM     23  C   UNL     1      -0.393  -0.958  -2.405  0.00  0.00    +0.024 A 
ATOM     24  C   UNL     1      -1.257  -1.047  -3.473  0.00  0.00    +0.011 A 
ATOM     25  C   UNL     1      -0.792  -1.503  -4.710  0.00  0.00    -0.007 A 
ATOM     26  C   UNL     1       0.549  -1.867  -4.859  0.00  0.00    +0.011 A 
ATOM     27  C   UNL     1       1.409  -1.771  -3.788  0.00  0.00    +0.024 A 
BRANCH  22  28
ATOM     28  N   UNL     1       1.813  -1.230  -1.474  0.00  0.00    -0.330 N 
BRANCH  28  30
ATOM     29  C   UNL     1       1.473   0.763  -0.098  0.00  0.00    +0.024 C 
ATOM     30  C   UNL     1       1.323  -0.758  -0.177  0.00  0.00    +0.102 C 
ENDBRANCH  28  30
BRANCH  28  31
ATOM     31  C   UNL     1       3.220  -1.606  -1.633  0.00  0.00    +0.102 C 
ATOM     32  C   UNL     1       3.389  -3.094  -1.316  0.00  0.00    +0.024 C 
ENDBRANCH  28  31
ENDBRANCH  22  28
ENDBRANCH  20  25
ENDBRANCH   1  21
TORSDOF 6
