REMARK  Name = ZINC15125658
REMARK  8 active torsions:
REMARK  status: ('A' for Active; 'I' for Inactive)
REMARK    1  A    between atoms: C_1  and  C_2
REMARK    2  A    between atoms: C_7  and  C_13
REMARK    3  A    between atoms: C_13  and  S_14
REMARK    4  A    between atoms: S_14  and  C_15
REMARK    5  A    between atoms: C_18  and  C_27
REMARK    6  A    between atoms: N_19  and  C_20
REMARK    7  A    between atoms: C_27  and  C_29
REMARK    8  A    between atoms: C_27  and  N_61
REMARK                            x       y       z     vdW  Elec       q    Type
REMARK                         _______ _______ _______ _____ _____    ______ ____
ROOT
ATOM      1  C   UNL     1      -1.118   2.211   0.019  0.00  0.00    +0.196 A 
ATOM      2  N   UNL     1      -0.682   3.449   0.027  0.00  0.00    -0.122 NA
ATOM      3  N   UNL     1       0.603   3.461   0.015  0.00  0.00    -0.135 NA
ATOM      4  C   UNL     1       1.063   2.241   0.004  0.00  0.00    +0.125 A 
ATOM      5  N   UNL     1      -0.017   1.399   0.010  0.00  0.00    -0.275 N 
ENDROOT
BRANCH   5   6
ATOM      6  C   UNL     1       0.002  -0.004   0.002  0.00  0.00    +0.050 A 
ATOM      7  C   UNL     1       0.504  -0.686  -1.098  0.00  0.00    +0.029 A 
ATOM      8  C   UNL     1       0.525  -2.067  -1.102  0.00  0.00    +0.040 A 
ATOM      9  C   UNL     1       0.038  -2.771  -0.014  0.00  0.00    +0.124 A 
ATOM     10  C   UNL     1      -0.467  -2.093   1.082  0.00  0.00    +0.040 A 
ATOM     11  C   UNL     1      -0.486  -0.712   1.092  0.00  0.00    +0.029 A 
ATOM     12  F   UNL     1       0.056  -4.122  -0.021  0.00  0.00    -0.205 F 
ENDBRANCH   5   6
BRANCH   4  13
ATOM     13  C   UNL     1       2.514   1.834  -0.012  0.00  0.00    -0.002 C 
ATOM     14  C   UNL     1       3.119   2.048   1.377  0.00  0.00    -0.005 C 
BRANCH  13  20
ATOM     15  C   UNL     1       2.624   2.547  -2.323  0.00  0.00    -0.078 C 
ATOM     16  C   UNL     1       3.315   3.517  -3.284  0.00  0.00    -0.019 C 
ATOM     17  C   UNL     1       4.805   3.175  -3.364  0.00  0.00    -0.004 C 
ATOM     18  C   UNL     1       5.413   3.242  -1.960  0.00  0.00    -0.019 C 
ATOM     19  C   UNL     1       4.661   2.279  -1.037  0.00  0.00    -0.078 C 
ATOM     20  N   UNL     1       3.238   2.678  -0.984  0.00  0.00    +0.386 N 
ATOM     21  H   UNL     1       3.178   3.658  -0.685  0.00  0.00    -0.081 HD
ENDBRANCH  13  20
ENDBRANCH   4  13
BRANCH   1  22
ATOM     22  S   UNL     1      -2.802   1.692   0.023  0.00  0.00    -0.081 S 
BRANCH  22  23
ATOM     23  C   UNL     1      -3.627   3.304   0.035  0.00  0.00    +0.115 C 
BRANCH  23  30
ATOM     24  C   UNL     1     -11.423   2.253   0.990  0.00  0.00    +0.044 C 
ATOM     25  C   UNL     1      -9.930   2.453   1.042  0.00  0.00    -0.048 A 
ATOM     26  C   UNL     1      -9.292   2.531   2.279  0.00  0.00    +0.004 A 
ATOM     27  C   UNL     1      -7.945   2.712   2.360  0.00  0.00    +0.010 A 
ATOM     28  C   UNL     1      -7.188   2.820   1.183  0.00  0.00    +0.001 A 
ATOM     29  C   UNL     1      -5.793   3.006   1.224  0.00  0.00    +0.017 A 
ATOM     30  C   UNL     1      -5.120   3.103   0.040  0.00  0.00    +0.000 A 
ATOM     31  C   UNL     1      -5.818   3.023  -1.166  0.00  0.00    +0.134 A 
ATOM     32  N   UNL     1      -7.117   2.844  -1.200  0.00  0.00    -0.235 NA
ATOM     33  C   UNL     1      -7.834   2.741  -0.076  0.00  0.00    +0.073 A 
ATOM     34  C   UNL     1      -9.227   2.554  -0.118  0.00  0.00    +0.031 A 
ATOM     35 CL   UNL     1      -4.944   3.156  -2.659  0.00  0.00    -0.062 Cl
ENDBRANCH  23  30
ENDBRANCH  22  23
ENDBRANCH   1  22
TORSDOF 6
