REMARK  Name = ZINC40360868
REMARK  13 active torsions:
REMARK  status: ('A' for Active; 'I' for Inactive)
REMARK    1  A    between atoms: C_1  and  C_2
REMARK    2  A    between atoms: C_2  and  C_3
REMARK    3  A    between atoms: C_6  and  N_9
REMARK    4  A    between atoms: C_19  and  C_20
REMARK    5  A    between atoms: C_20  and  C_22
REMARK    6  A    between atoms: C_20  and  N_23
REMARK    7  A    between atoms: N_23  and  C_24
REMARK    8  A    between atoms: C_24  and  C_25
REMARK    9  A    between atoms: C_25  and  N_26
REMARK   10  A    between atoms: N_26  and  C_27
REMARK   11  A    between atoms: N_26  and  C_28
REMARK   12  A    between atoms: C_29  and  C_31
REMARK   13  A    between atoms: C_32  and  C_33
REMARK                            x       y       z     vdW  Elec       q    Type
REMARK                         _______ _______ _______ _____ _____    ______ ____
ROOT
ATOM      1  N   UNL     1       4.115  -1.486  -5.712  0.00  0.00    -0.263 N 
ATOM      2  C   UNL     1       3.377  -1.813  -6.799  0.00  0.00    +0.266 A 
ATOM      3  O   UNL     1       3.399  -1.131  -7.807  0.00  0.00    -0.267 OA
ATOM      4  C   UNL     1       2.550  -3.026  -6.715  0.00  0.00    +0.065 A 
ATOM      5  C   UNL     1       1.755  -3.450  -7.779  0.00  0.00    +0.015 A 
ATOM      6  C   UNL     1       0.999  -4.594  -7.647  0.00  0.00    +0.001 A 
ATOM      7  C   UNL     1       1.023  -5.324  -6.466  0.00  0.00    +0.002 A 
ATOM      8  C   UNL     1       1.802  -4.922  -5.404  0.00  0.00    +0.028 A 
ATOM      9  C   UNL     1       2.578  -3.766  -5.513  0.00  0.00    +0.078 A 
ATOM     10  N   UNL     1       3.359  -3.335  -4.492  0.00  0.00    -0.231 NA
ATOM     11  C   UNL     1       4.085  -2.263  -4.596  0.00  0.00    +0.138 A 
ENDROOT
BRANCH   1  15
ATOM     12  C   UNL     1       6.513   1.921  -5.793  0.00  0.00    -0.047 A 
ATOM     13  C   UNL     1       5.377   1.896  -5.005  0.00  0.00    +0.005 A 
ATOM     14  C   UNL     1       4.580   0.768  -4.976  0.00  0.00    +0.026 A 
ATOM     15  C   UNL     1       4.921  -0.341  -5.739  0.00  0.00    +0.051 A 
ATOM     16  C   UNL     1       6.062  -0.312  -6.529  0.00  0.00    +0.026 A 
ATOM     17  C   UNL     1       6.852   0.821  -6.558  0.00  0.00    +0.005 A 
BRANCH  12  19
ATOM     18  C   UNL     1       6.895   4.093  -6.927  0.00  0.00    +0.009 C 
ATOM     19  C   UNL     1       7.380   3.153  -5.821  0.00  0.00    +0.032 C 
ENDBRANCH  12  19
ENDBRANCH   1  15
BRANCH  11  20
ATOM     20  C   UNL     1       4.931  -1.855  -3.417  0.00  0.00    +0.140 C 
ATOM     21  C   UNL     1       4.488  -2.634  -2.177  0.00  0.00    +0.036 C 
BRANCH  20  22
ATOM     22  N   UNL     1       6.338  -2.148  -3.702  0.00  0.00    -0.290 N 
ATOM     23  C   UNL     1       7.261  -1.171  -3.608  0.00  0.00    +0.240 C 
ATOM     24  O   UNL     1       6.927  -0.046  -3.288  0.00  0.00    -0.271 OA
BRANCH  23  25
ATOM     25  C   UNL     1       8.668  -1.464  -3.893  0.00  0.00    +0.068 C 
ATOM     26  C   UNL     1       9.592  -0.486  -3.800  0.00  0.00    +0.013 C 
BRANCH  26  27
ATOM     27  C   UNL     1      11.006  -0.781  -4.085  0.00  0.00    -0.025 A 
ATOM     28  C   UNL     1      11.393  -2.071  -4.460  0.00  0.00    +0.008 A 
ATOM     29  C   UNL     1      12.719  -2.339  -4.726  0.00  0.00    +0.001 A 
ATOM     30  C   UNL     1      13.666  -1.335  -4.623  0.00  0.00    +0.000 A 
ATOM     31  C   UNL     1      13.290  -0.055  -4.253  0.00  0.00    +0.001 A 
ATOM     32  C   UNL     1      11.967   0.230  -3.990  0.00  0.00    +0.008 A 
ENDBRANCH  26  27
ENDBRANCH  23  25
BRANCH  22  33
ATOM     33  C   UNL     1       6.740  -3.502  -4.088  0.00  0.00    +0.090 C 
BRANCH  33  34
ATOM     34  C   UNL     1       6.802  -3.601  -5.613  0.00  0.00    -0.060 C 
BRANCH  34  35
ATOM     35  N   UNL     1       7.121  -4.981  -6.002  0.00  0.00    +0.377 N 
ATOM     36  C   UNL     1       6.023  -5.870  -5.599  0.00  0.00    -0.097 C 
ATOM     37  C   UNL     1       7.298  -5.051  -7.459  0.00  0.00    -0.097 C 
ATOM     38  H   UNL     1       7.973  -5.271  -5.545  0.00  0.00    -0.083 HD
ENDBRANCH  34  35
ENDBRANCH  33  34
ENDBRANCH  22  33
ENDBRANCH  20  22
ENDBRANCH  11  20
TORSDOF 9
