REMARK  Name = ZINC40109992
REMARK  11 active torsions:
REMARK  status: ('A' for Active; 'I' for Inactive)
REMARK    1  A    between atoms: C_1  and  C_2
REMARK    2  A    between atoms: C_5  and  C_8
REMARK    3  A    between atoms: C_8  and  O_9
REMARK    4  A    between atoms: O_9  and  C_10
REMARK    5  A    between atoms: C_13  and  C_16
REMARK    6  A    between atoms: C_16  and  C_18
REMARK    7  A    between atoms: N_22  and  C_34
REMARK    8  A    between atoms: C_23  and  C_25
REMARK    9  A    between atoms: C_30  and  N_31
REMARK   10  A    between atoms: C_34  and  C_35
REMARK   11  A    between atoms: C_35  and  O_36
REMARK                            x       y       z     vdW  Elec       q    Type
REMARK                         _______ _______ _______ _____ _____    ______ ____
ROOT
ATOM      1  C   UNL     1       3.746 -10.926  -0.281  0.00  0.00    +0.076 C 
ATOM      2  C   UNL     1       4.685 -10.924  -1.256  0.00  0.00    +0.249 C 
ATOM      3  C   UNL     1       5.934 -11.512  -0.729  0.00  0.00    +0.288 C 
ATOM      4  O   UNL     1       6.961 -11.650  -1.362  0.00  0.00    -0.266 OA
ATOM      5  N   UNL     1       5.764 -11.873   0.556  0.00  0.00    -0.281 N 
ATOM      6  C   UNL     1       4.390 -11.532   0.944  0.00  0.00    +0.147 C 
ATOM      7  O   UNL     1       4.508 -10.456  -2.513  0.00  0.00    -0.282 OA
ENDROOT
BRANCH   6   8
ATOM      8  C   UNL     1       3.648 -12.776   1.358  0.00  0.00    +0.008 A 
ATOM      9  C   UNL     1       4.090 -14.017   0.936  0.00  0.00    +0.008 A 
ATOM     10  C   UNL     1       3.409 -15.158   1.316  0.00  0.00    +0.000 A 
ATOM     11  C   UNL     1       2.287 -15.059   2.118  0.00  0.00    +0.002 A 
ATOM     12  C   UNL     1       1.846 -13.819   2.540  0.00  0.00    +0.033 A 
ATOM     13  C   UNL     1       2.530 -12.678   2.163  0.00  0.00    +0.131 A 
BRANCH  13  14
ATOM     14  N   UNL     1       2.061 -11.350   2.620  0.00  0.00    +0.057 N 
ATOM     15  O   UNL     1       1.044 -11.258   3.267  0.00  0.00    -0.126 OA
ATOM     16  O   UNL     1       2.694 -10.358   2.345  0.00  0.00    -0.126 OA
ENDBRANCH  13  14
ENDBRANCH   6   8
BRANCH   1  17
ATOM     17  C   UNL     1       2.370 -10.431  -0.391  0.00  0.00    +0.195 C 
ATOM     18  O   UNL     1       1.446 -11.217  -0.488  0.00  0.00    -0.287 OA
BRANCH  17  22
ATOM     19  C   UNL     1       1.610  -6.252  -0.370  0.00  0.00    +0.121 A 
ATOM     20  C   UNL     1       0.568  -7.145  -0.595  0.00  0.00    +0.046 A 
ATOM     21  C   UNL     1       0.810  -8.500  -0.602  0.00  0.00    +0.015 A 
ATOM     22  C   UNL     1       2.106  -8.978  -0.384  0.00  0.00    +0.022 A 
ATOM     23  C   UNL     1       3.151  -8.077  -0.159  0.00  0.00    +0.015 A 
ATOM     24  C   UNL     1       2.901  -6.723  -0.158  0.00  0.00    +0.046 A 
BRANCH  19  25
ATOM     25  O   UNL     1       1.367  -4.917  -0.363  0.00  0.00    -0.487 OA
BRANCH  25  26
ATOM     26  C   UNL     1       0.018  -4.502  -0.588  0.00  0.00    +0.264 C 
BRANCH  26  31
ATOM     27  C   UNL     1      -0.277   1.267  -0.424  0.00  0.00    +0.044 C 
ATOM     28  C   UNL     1      -0.200  -0.237  -0.467  0.00  0.00    -0.050 A 
ATOM     29  C   UNL     1       0.046  -0.883  -1.664  0.00  0.00    +0.004 A 
ATOM     30  C   UNL     1       0.117  -2.263  -1.703  0.00  0.00    +0.007 A 
ATOM     31  C   UNL     1      -0.058  -2.997  -0.545  0.00  0.00    -0.010 A 
ATOM     32  C   UNL     1      -0.303  -2.352   0.652  0.00  0.00    +0.007 A 
ATOM     33  C   UNL     1      -0.369  -0.971   0.692  0.00  0.00    +0.004 A 
ENDBRANCH  26  31
ENDBRANCH  25  26
ENDBRANCH  19  25
ENDBRANCH  17  22
ENDBRANCH   1  17
BRANCH   5  34
ATOM     34  C   UNL     1       6.775 -12.491   1.419  0.00  0.00    +0.137 C 
BRANCH  34  35
ATOM     35  C   UNL     1       7.563 -11.398   2.144  0.00  0.00    +0.175 C 
BRANCH  35  36
ATOM     36  O   UNL     1       6.693 -10.690   3.029  0.00  0.00    -0.393 OA
ATOM     37  H   UNL     1       7.127  -9.981   3.523  0.00  0.00    +0.209 HD
ENDBRANCH  35  36
ENDBRANCH  34  35
ENDBRANCH   5  34
TORSDOF 10
