REMARK  Name = ZINC32114478
REMARK  5 active torsions:
REMARK  status: ('A' for Active; 'I' for Inactive)
REMARK    1  A    between atoms: C_1  and  C_2
REMARK    2  A    between atoms: C_6  and  C_9
REMARK    3  A    between atoms: C_7  and  O_8
REMARK    4  A    between atoms: N_10  and  C_11
REMARK    5  A    between atoms: C_18  and  C_20
REMARK                            x       y       z     vdW  Elec       q    Type
REMARK                         _______ _______ _______ _____ _____    ______ ____
ROOT
ATOM      1  C   UNL     1      -7.971   1.543   0.143  0.00  0.00    +0.066 A 
ATOM      2  C   UNL     1      -7.287   0.328   0.010  0.00  0.00    +0.031 A 
ATOM      3  C   UNL     1      -5.912   0.308  -0.063  0.00  0.00    +0.050 A 
ATOM      4  C   UNL     1      -5.194   1.494  -0.004  0.00  0.00    +0.156 A 
ATOM      5  C   UNL     1      -5.870   2.720   0.130  0.00  0.00    +0.112 A 
ATOM      6  C   UNL     1      -7.263   2.739   0.203  0.00  0.00    +0.059 A 
ATOM      7  N   UNL     1      -4.918   3.688   0.159  0.00  0.00    -0.209 NA
ATOM      8  C   UNL     1      -3.740   3.124   0.052  0.00  0.00    +0.229 A 
ATOM      9  O   UNL     1      -3.876   1.789  -0.054  0.00  0.00    -0.435 OA
ENDROOT
BRANCH   8  10
ATOM     10  C   UNL     1      -2.455   3.847   0.044  0.00  0.00    +0.045 A 
ATOM     11  C   UNL     1      -2.284   4.966  -0.757  0.00  0.00    +0.014 A 
ATOM     12  C   UNL     1      -1.076   5.651  -0.769  0.00  0.00    +0.001 A 
ATOM     13  C   UNL     1      -0.027   5.245   0.002  0.00  0.00    +0.010 A 
ATOM     14  C   UNL     1      -0.155   4.117   0.829  0.00  0.00    +0.001 A 
ATOM     15  C   UNL     1      -1.379   3.405   0.855  0.00  0.00    -0.004 A 
ATOM     16  C   UNL     1      -1.504   2.277   1.676  0.00  0.00    +0.009 A 
ATOM     17  C   UNL     1      -0.451   1.883   2.447  0.00  0.00    +0.002 A 
ATOM     18  C   UNL     1       0.754   2.580   2.423  0.00  0.00    +0.020 A 
ATOM     19  C   UNL     1       0.913   3.679   1.633  0.00  0.00    +0.049 A 
ATOM     20 CL   UNL     1       2.424   4.534   1.620  0.00  0.00    -0.083 Cl
ENDBRANCH   8  10
BRANCH   1  22
ATOM     21  C   UNL     1     -10.039   0.827  -0.612  0.00  0.00    +0.123 C 
ATOM     22  N   UNL     1      -9.338   1.554   0.213  0.00  0.00    -0.255 NA
BRANCH  21  28
ATOM     23  C   UNL     1     -14.247   2.481   1.513  0.00  0.00    +0.047 C 
ATOM     24  C   UNL     1     -13.543   1.633   0.485  0.00  0.00    -0.007 A 
ATOM     25  C   UNL     1     -14.278   0.860  -0.393  0.00  0.00    +0.022 A 
ATOM     26  C   UNL     1     -13.640   0.077  -1.341  0.00  0.00    +0.019 A 
ATOM     27  C   UNL     1     -12.263   0.061  -1.419  0.00  0.00    +0.028 A 
ATOM     28  C   UNL     1     -11.507   0.839  -0.536  0.00  0.00    +0.036 A 
ATOM     29  C   UNL     1     -12.158   1.626   0.426  0.00  0.00    +0.128 A 
ATOM     30 BR   UNL     1     -14.662  -0.975  -2.535  0.00  0.00    -0.050 Br
BRANCH  29  31
ATOM     31  O   UNL     1     -11.435   2.381   1.292  0.00  0.00    -0.506 OA
ATOM     32  H   UNL     1     -10.336   2.373   1.243  0.00  0.00    +0.292 HD
ENDBRANCH  29  31
ENDBRANCH  21  28
ENDBRANCH   1  22
TORSDOF 4
