REMARK  Name = ZINC52095171
REMARK  2 active torsions:
REMARK  status: ('A' for Active; 'I' for Inactive)
REMARK    1  A    between atoms: C_5  and  C_6
REMARK    2  A    between atoms: C_6  and  C_8
REMARK                            x       y       z     vdW  Elec       q    Type
REMARK                         _______ _______ _______ _____ _____    ______ ____
ROOT
ATOM      1  C   UNL     1      -1.416  -1.554  -1.280  0.00  0.00    -0.014 A 
ATOM      2  C   UNL     1      -1.006  -2.871  -1.341  0.00  0.00    +0.034 A 
ATOM      3  C   UNL     1      -1.126  -3.577  -2.529  0.00  0.00    +0.067 A 
ATOM      4  C   UNL     1      -1.661  -2.953  -3.658  0.00  0.00    +0.068 A 
ATOM      5  C   UNL     1      -2.070  -1.630  -3.587  0.00  0.00    +0.043 A 
ATOM      6  C   UNL     1      -1.952  -0.936  -2.398  0.00  0.00    +0.024 A 
ATOM      7 BR   UNL     1      -2.518   0.865  -2.299  0.00  0.00    -0.050 Br
ATOM      8  N   UNL     1      -1.655  -3.898  -4.681  0.00  0.00    -0.306 N 
ATOM      9  H   UNL     1      -1.968  -3.755  -5.588  0.00  0.00    +0.170 HD
ATOM     10  C   UNL     1      -1.140  -5.044  -4.197  0.00  0.00    +0.325 A 
ATOM     11  O   UNL     1      -0.993  -6.071  -4.834  0.00  0.00    -0.247 OA
ATOM     12  N   UNL     1      -0.811  -4.882  -2.901  0.00  0.00    -0.306 N 
ATOM     13  H   UNL     1      -0.422  -5.558  -2.325  0.00  0.00    +0.170 HD
ENDROOT
BRANCH   1  14
ATOM     14  C   UNL     1      -1.286  -0.786   0.011  0.00  0.00    +0.118 C 
ATOM     15 BR   UNL     1      -1.279  -2.043   1.522  0.00  0.00    -0.078 Br
BRANCH  14  20
ATOM     16  C   UNL     1      -0.017   1.378   0.010  0.00  0.00    +0.012 A 
ATOM     17  C   UNL     1       1.160   2.051   0.002  0.00  0.00    +0.045 A 
ATOM     18  S   UNL     1       2.348   0.719  -0.017  0.00  0.00    -0.105 S 
ATOM     19  C   UNL     1       1.196  -0.645  -0.013  0.00  0.00    +0.050 A 
ATOM     20  C   UNL     1       0.002  -0.004   0.002  0.00  0.00    -0.023 A 
ENDBRANCH  14  20
ENDBRANCH   1  14
TORSDOF 2
