REMARK  Name = ZINC13393583
REMARK  9 active torsions:
REMARK  status: ('A' for Active; 'I' for Inactive)
REMARK    1  A    between atoms: C_1  and  C_2
REMARK    2  A    between atoms: C_2  and  C_3
REMARK    3  A    between atoms: C_3  and  C_5
REMARK    4  A    between atoms: C_3  and  N_6
REMARK    5  A    between atoms: C_16  and  S_17
REMARK    6  A    between atoms: S_17  and  C_18
REMARK    7  A    between atoms: C_18  and  C_19
REMARK    8  A    between atoms: C_27  and  C_33
REMARK    9  A    between atoms: C_28  and  C_30
REMARK                            x       y       z     vdW  Elec       q    Type
REMARK                         _______ _______ _______ _____ _____    ______ ____
ROOT
ATOM      1  S   UNL     1      -4.024   1.862   0.143  0.00  0.00    -0.083 S 
ENDROOT
BRANCH   1  12
ATOM      2  N   UNL     1      -2.157   0.951   1.860  0.00  0.00    -0.284 N 
ATOM      3  C   UNL     1      -1.691   0.497   3.047  0.00  0.00    +0.263 A 
ATOM      4  O   UNL     1      -0.517   0.213   3.198  0.00  0.00    -0.267 OA
ATOM      5  C   UNL     1      -2.656   0.360   4.146  0.00  0.00    +0.065 A 
ATOM      6  C   UNL     1      -2.277  -0.099   5.407  0.00  0.00    +0.015 A 
ATOM      7  C   UNL     1      -3.216  -0.207   6.395  0.00  0.00    +0.001 A 
ATOM      8  C   UNL     1      -4.541   0.135   6.156  0.00  0.00    +0.002 A 
ATOM      9  C   UNL     1      -4.940   0.587   4.930  0.00  0.00    +0.028 A 
ATOM     10  C   UNL     1      -4.004   0.708   3.899  0.00  0.00    +0.079 A 
ATOM     11  N   UNL     1      -4.355   1.150   2.674  0.00  0.00    -0.223 NA
ATOM     12  C   UNL     1      -3.476   1.270   1.710  0.00  0.00    +0.173 A 
BRANCH   2  13
ATOM     13  C   UNL     1      -1.238   1.107   0.730  0.00  0.00    +0.089 C 
ATOM     14  C   UNL     1      -0.616  -0.249   0.387  0.00  0.00    +0.031 C 
BRANCH  13  16
ATOM     15  C   UNL     1      -0.739   3.481   1.326  0.00  0.00    +0.006 C 
ATOM     16  C   UNL     1      -0.131   2.095   1.105  0.00  0.00    +0.021 C 
ENDBRANCH  13  16
ENDBRANCH   2  13
ENDBRANCH   1  12
BRANCH   1  17
ATOM     17  C   UNL     1      -5.798   2.157   0.382  0.00  0.00    +0.113 C 
BRANCH  17  18
ATOM     18  C   UNL     1      -6.398   2.673  -0.900  0.00  0.00    -0.022 A 
ATOM     19  C   UNL     1      -6.534   4.005  -1.095  0.00  0.00    +0.075 A 
ATOM     20  C   UNL     1      -7.092   4.505  -2.286  0.00  0.00    +0.250 A 
ATOM     21  O   UNL     1      -7.208   5.708  -2.448  0.00  0.00    -0.268 OA
ATOM     22  N   UNL     1      -7.498   3.652  -3.248  0.00  0.00    -0.317 N 
ATOM     23  H   UNL     1      -7.882   4.000  -4.068  0.00  0.00    +0.169 HD
ATOM     24  C   UNL     1      -7.374   2.310  -3.079  0.00  0.00    +0.089 A 
ATOM     25  C   UNL     1      -6.820   1.754  -1.915  0.00  0.00    +0.014 A 
ATOM     26  C   UNL     1      -6.751   0.352  -1.885  0.00  0.00    -0.020 A 
ATOM     27  C   UNL     1      -7.219  -0.318  -2.979  0.00  0.00    +0.106 A 
ATOM     28  S   UNL     1      -7.766   1.001  -4.044  0.00  0.00    -0.064 S 
ATOM     29  C   UNL     1      -6.185  -0.381  -0.697  0.00  0.00    +0.046 C 
BRANCH  27  30
ATOM     30  C   UNL     1      -7.266  -1.717  -3.207  0.00  0.00    +0.393 C 
ATOM     31  O   UNL     1      -6.849  -2.491  -2.353  0.00  0.00    -0.240 OA
ATOM     32  O   UNL     1      -7.723  -2.151  -4.256  0.00  0.00    -0.240 OA
ENDBRANCH  27  30
ENDBRANCH  17  18
ENDBRANCH   1  17
TORSDOF 6
