REMARK  Name = ZINC12870752
REMARK  5 active torsions:
REMARK  status: ('A' for Active; 'I' for Inactive)
REMARK    1  A    between atoms: C_1  and  C_2
REMARK    2  A    between atoms: C_12  and  N_68
REMARK    3  A    between atoms: C_17  and  C_18
REMARK    4  A    between atoms: C_17  and  N_68
REMARK    5  A    between atoms: C_25  and  C_38
REMARK                            x       y       z     vdW  Elec       q    Type
REMARK                         _______ _______ _______ _____ _____    ______ ____
ROOT
ATOM      1  C   UNL     1       2.241   0.732  -0.802  0.00  0.00    -0.067 C 
ENDROOT
BRANCH   1   2
ATOM      2  C   UNL     1       3.664   1.297  -0.789  0.00  0.00    +0.087 C 
ATOM      3  C   UNL     1       4.640   0.331  -1.525  0.00  0.00    +0.042 C 
ATOM      4  C   UNL     1       3.791  -0.482  -2.504  0.00  0.00    +0.014 C 
ATOM      5  C   UNL     1       4.665  -1.110  -3.587  0.00  0.00    +0.030 C 
ATOM      6  C   UNL     1       5.322   0.022  -4.388  0.00  0.00    -0.023 C 
ATOM      7  C   UNL     1       6.123  -0.574  -5.545  0.00  0.00    +0.007 C 
ATOM      8  C   UNL     1       5.219  -1.322  -6.496  0.00  0.00    +0.003 C 
ATOM      9  C   UNL     1       4.557  -2.494  -5.765  0.00  0.00    +0.037 C 
ATOM     10  C   UNL     1       3.819  -1.960  -4.535  0.00  0.00    +0.096 C 
ATOM     11  C   UNL     1       2.340  -1.609  -4.687  0.00  0.00    +0.196 C 
ATOM     12  O   UNL     1       2.784  -2.765  -3.974  0.00  0.00    -0.368 OA
ATOM     13  C   UNL     1       6.259   0.781  -3.447  0.00  0.00    +0.052 C 
ATOM     14  C   UNL     1       5.511   1.360  -2.272  0.00  0.00    +0.181 C 
ATOM     15  O   UNL     1       4.563   2.400  -2.647  0.00  0.00    -0.461 OA
ATOM     16  C   UNL     1       3.733   2.580  -1.595  0.00  0.00    +0.309 C 
ATOM     17  O   UNL     1       3.140   3.601  -1.338  0.00  0.00    -0.251 OA
ATOM     18  C   UNL     1       4.246   0.971  -4.919  0.00  0.00    +0.011 C 
ENDBRANCH   1   2
BRANCH   1  19
ATOM     19  N   UNL     1       1.367   1.607   0.003  0.00  0.00    +0.385 N 
ATOM     20  H   UNL     1       1.720   1.643   0.967  0.00  0.00    -0.085 HD
ATOM     21  H   UNL     1       1.371   2.552  -0.399  0.00  0.00    -0.085 HD
BRANCH  19  33
ATOM     22  C   UNL     1      -4.631   3.763   5.228  0.00  0.00    +0.044 C 
ATOM     23  C   UNL     1      -3.420   3.184   4.543  0.00  0.00    -0.050 A 
ATOM     24  C   UNL     1      -2.294   2.900   5.299  0.00  0.00    +0.005 A 
ATOM     25  C   UNL     1      -1.145   2.368   4.741  0.00  0.00    +0.026 A 
ATOM     26  C   UNL     1      -1.164   2.125   3.369  0.00  0.00    +0.047 A 
ATOM     27  C   UNL     1      -2.320   2.417   2.600  0.00  0.00    +0.003 A 
ATOM     28  C   UNL     1      -3.468   2.954   3.191  0.00  0.00    +0.013 A 
ATOM     29  C   UNL     1      -1.997   2.046   1.238  0.00  0.00    -0.021 A 
ATOM     30  C   UNL     1      -0.727   1.577   1.246  0.00  0.00    +0.006 A 
ATOM     31  N   UNL     1      -0.226   1.619   2.516  0.00  0.00    -0.359 N 
ATOM     32  H   UNL     1       0.665   1.332   2.773  0.00  0.00    +0.166 HD
ATOM     33  C   UNL     1      -0.013   1.086   0.008  0.00  0.00    -0.024 C 
ATOM     34  C   UNL     1      -0.761   1.597  -1.228  0.00  0.00    -0.009 C 
ATOM     35  C   UNL     1      -2.251   1.270  -1.092  0.00  0.00    +0.003 C 
ATOM     36  C   UNL     1      -2.864   2.144   0.008  0.00  0.00    +0.037 C 
ENDBRANCH  19  33
ENDBRANCH   1  19
TORSDOF 3
