REMARK  Name = ZINC27525326
REMARK  13 active torsions:
REMARK  status: ('A' for Active; 'I' for Inactive)
REMARK    1  A    between atoms: C_1  and  C_2
REMARK    2  A    between atoms: C_2  and  O_3
REMARK    3  A    between atoms: O_3  and  C_4
REMARK    4  A    between atoms: C_7  and  N_13
REMARK    5  A    between atoms: C_8  and  N_10
REMARK    6  A    between atoms: C_14  and  C_16
REMARK    7  A    between atoms: C_16  and  S_17
REMARK    8  A    between atoms: S_17  and  C_18
REMARK    9  A    between atoms: C_21  and  C_30
REMARK   10  A    between atoms: N_22  and  C_23
REMARK   11  A    between atoms: C_26  and  C_29
REMARK   12  A    between atoms: C_30  and  O_31
REMARK   13  A    between atoms: O_31  and  C_32
REMARK                            x       y       z     vdW  Elec       q    Type
REMARK                         _______ _______ _______ _____ _____    ______ ____
ROOT
ATOM      1  C   UNL     1       7.692  -1.934  -0.678  0.00  0.00    +0.197 A 
ATOM      2  N   UNL     1       7.650  -1.882   0.633  0.00  0.00    -0.122 NA
ATOM      3  N   UNL     1       6.679  -1.129   1.010  0.00  0.00    -0.130 NA
ATOM      4  C   UNL     1       6.040  -0.666  -0.028  0.00  0.00    +0.176 A 
ATOM      5  N   UNL     1       6.665  -1.159  -1.143  0.00  0.00    -0.271 N 
ENDROOT
BRANCH   5   6
ATOM      6  C   UNL     1       6.323  -0.918  -2.482  0.00  0.00    +0.050 A 
ATOM      7  C   UNL     1       5.111  -1.375  -2.982  0.00  0.00    +0.026 A 
ATOM      8  C   UNL     1       4.775  -1.132  -4.300  0.00  0.00    +0.005 A 
ATOM      9  C   UNL     1       5.648  -0.444  -5.122  0.00  0.00    -0.050 A 
ATOM     10  C   UNL     1       6.858   0.007  -4.628  0.00  0.00    +0.005 A 
ATOM     11  C   UNL     1       7.197  -0.228  -3.309  0.00  0.00    +0.026 A 
ATOM     12  C   UNL     1       5.280  -0.185  -6.561  0.00  0.00    +0.044 C 
ENDBRANCH   5   6
BRANCH   1  13
ATOM     13  S   UNL     1       8.852  -2.832  -1.655  0.00  0.00    -0.076 S 
BRANCH  13  14
ATOM     14  C   UNL     1       9.856  -3.576  -0.345  0.00  0.00    +0.173 C 
BRANCH  14  16
ATOM     15  N   UNL     1      11.820  -5.069  -0.174  0.00  0.00    -0.283 N 
ATOM     16  C   UNL     1      10.945  -4.415  -0.963  0.00  0.00    +0.228 C 
ATOM     17  O   UNL     1      11.034  -4.501  -2.169  0.00  0.00    -0.275 OA
ATOM     18  H   UNL     1      11.786  -4.933   0.917  0.00  0.00    +0.155 HD
BRANCH  15  22
ATOM     19  C   UNL     1      14.660  -7.608  -1.869  0.00  0.00    +0.123 A 
ATOM     20  C   UNL     1      14.282  -6.450  -2.533  0.00  0.00    +0.047 A 
ATOM     21  C   UNL     1      13.341  -5.609  -1.972  0.00  0.00    +0.029 A 
ATOM     22  C   UNL     1      12.774  -5.923  -0.744  0.00  0.00    +0.064 A 
ATOM     23  C   UNL     1      13.157  -7.079  -0.078  0.00  0.00    +0.151 A 
ATOM     24  C   UNL     1      14.095  -7.922  -0.642  0.00  0.00    +0.080 A 
BRANCH  23  25
ATOM     25  N   UNL     1      12.558  -7.411   1.234  0.00  0.00    +0.058 N 
ATOM     26  O   UNL     1      12.964  -8.371   1.863  0.00  0.00    -0.126 OA
ATOM     27  O   UNL     1      11.658  -6.724   1.684  0.00  0.00    -0.126 OA
ENDBRANCH  23  25
BRANCH  19  28
ATOM     28  O   UNL     1      15.586  -8.436  -2.422  0.00  0.00    -0.492 OA
BRANCH  28  30
ATOM     29  C   UNL     1      17.145  -9.098  -4.146  0.00  0.00    +0.048 C 
ATOM     30  C   UNL     1      16.128  -8.051  -3.688  0.00  0.00    +0.225 C 
ENDBRANCH  28  30
ENDBRANCH  19  28
ENDBRANCH  15  22
ENDBRANCH  14  16
ENDBRANCH  13  14
ENDBRANCH   1  13
BRANCH   4  31
ATOM     31  C   UNL     1       4.842   0.246  -0.005  0.00  0.00    +0.305 C 
BRANCH  31  32
ATOM     32  O   UNL     1       3.647  -0.537   0.019  0.00  0.00    -0.484 OA
BRANCH  32  33
ATOM     33  C   UNL     1       2.467   0.138   0.041  0.00  0.00    +0.121 A 
ATOM     34  C   UNL     1       1.268  -0.560   0.065  0.00  0.00    +0.045 A 
ATOM     35  C   UNL     1       0.070   0.128   0.087  0.00  0.00    +0.004 A 
ATOM     36  C   UNL     1       0.066   1.511   0.086  0.00  0.00    +0.000 A 
ATOM     37  C   UNL     1       1.260   2.208   0.062  0.00  0.00    +0.004 A 
ATOM     38  C   UNL     1       2.460   1.525   0.040  0.00  0.00    +0.045 A 
ENDBRANCH  32  33
ENDBRANCH  31  32
ENDBRANCH   4  31
TORSDOF 11
