REMARK  Name = ZINC05257636
REMARK  10 active torsions:
REMARK  status: ('A' for Active; 'I' for Inactive)
REMARK    1  A    between atoms: C_2  and  C_3
REMARK    2  A    between atoms: C_3  and  N_4
REMARK    3  A    between atoms: N_6  and  C_16
REMARK    4  A    between atoms: C_7  and  C_10
REMARK    5  A    between atoms: C_16  and  C_18
REMARK    6  A    between atoms: C_16  and  C_20
REMARK    7  A    between atoms: C_18  and  O_19
REMARK    8  A    between atoms: C_20  and  C_22
REMARK    9  A    between atoms: C_20  and  O_31
REMARK   10  A    between atoms: C_25  and  N_28
REMARK                            x       y       z     vdW  Elec       q    Type
REMARK                         _______ _______ _______ _____ _____    ______ ____
ROOT
ATOM      1  C   UNL     1       1.987   1.183  -1.158  0.00  0.00    +0.148 C 
ENDROOT
BRANCH   1   4
ATOM      2  N   UNL     1      -0.395  -0.190  -2.266  0.00  0.00    -0.257 NA
ATOM      3  C   UNL     1       0.081   0.946  -2.712  0.00  0.00    +0.170 A 
ATOM      4  N   UNL     1       1.171   1.665  -2.276  0.00  0.00    -0.311 N 
ATOM      5  C   UNL     1       1.479   2.839  -2.913  0.00  0.00    +0.058 A 
ATOM      6  C   UNL     1       0.713   3.262  -3.938  0.00  0.00    +0.075 A 
ATOM      7  S   UNL     1      -0.516   1.972  -4.047  0.00  0.00    -0.058 S 
BRANCH   5   8
ATOM      8  C   UNL     1       2.646   3.637  -2.478  0.00  0.00    -0.001 A 
ATOM      9  C   UNL     1       2.791   3.991  -1.136  0.00  0.00    +0.010 A 
ATOM     10  C   UNL     1       3.884   4.732  -0.736  0.00  0.00    +0.001 A 
ATOM     11  C   UNL     1       4.830   5.132  -1.664  0.00  0.00    +0.000 A 
ATOM     12  C   UNL     1       4.689   4.788  -2.997  0.00  0.00    +0.001 A 
ATOM     13  C   UNL     1       3.603   4.043  -3.409  0.00  0.00    +0.010 A 
ENDBRANCH   5   8
BRANCH   2  14
ATOM     14  C   UNL     1      -1.581  -0.783  -2.888  0.00  0.00    +0.171 C 
BRANCH  14  16
ATOM     15  C   UNL     1      -1.927  -3.193  -3.072  0.00  0.00    +0.006 C 
ATOM     16  C   UNL     1      -1.234  -2.143  -3.436  0.00  0.00    -0.012 C 
ENDBRANCH  14  16
ENDBRANCH   2  14
ENDBRANCH   1   4
BRANCH   1  17
ATOM     17  C   UNL     1       1.083   0.530  -0.111  0.00  0.00    +0.183 C 
BRANCH  17  18
ATOM     18  O   UNL     1       1.856   0.195   1.043  0.00  0.00    -0.393 OA
ATOM     19  H   UNL     1       1.346  -0.225   1.750  0.00  0.00    +0.209 HD
ENDBRANCH  17  18
ENDBRANCH   1  17
BRANCH   1  20
ATOM     20  C   UNL     1       2.998   0.156  -1.671  0.00  0.00    +0.170 C 
BRANCH  20  21
ATOM     21  C   UNL     1       3.838  -0.340  -0.522  0.00  0.00    -0.017 A 
ATOM     22  C   UNL     1       4.899   0.418  -0.064  0.00  0.00    +0.008 A 
ATOM     23  C   UNL     1       5.667  -0.035   0.993  0.00  0.00    +0.033 A 
ATOM     24  C   UNL     1       5.378  -1.249   1.586  0.00  0.00    +0.126 A 
ATOM     25  C   UNL     1       4.319  -2.009   1.125  0.00  0.00    +0.033 A 
ATOM     26  C   UNL     1       3.549  -1.554   0.071  0.00  0.00    +0.008 A 
BRANCH  24  27
ATOM     27  N   UNL     1       6.202  -1.736   2.716  0.00  0.00    +0.056 N 
ATOM     28  O   UNL     1       5.947  -2.806   3.239  0.00  0.00    -0.126 OA
ATOM     29  O   UNL     1       7.135  -1.066   3.122  0.00  0.00    -0.126 OA
ENDBRANCH  24  27
ENDBRANCH  20  21
BRANCH  20  30
ATOM     30  O   UNL     1       3.843   0.766  -2.649  0.00  0.00    -0.385 OA
ATOM     31  H   UNL     1       4.347   1.522  -2.317  0.00  0.00    +0.210 HD
ENDBRANCH  20  30
ENDBRANCH   1  20
TORSDOF 10
