REMARK  Name = ZINC09251425
REMARK  6 active torsions:
REMARK  status: ('A' for Active; 'I' for Inactive)
REMARK    1  A    between atoms: C_1  and  C_2
REMARK    2  A    between atoms: C_5  and  C_8
REMARK    3  A    between atoms: C_8  and  C_9
REMARK    4  A    between atoms: C_9  and  N_10
REMARK    5  A    between atoms: C_11  and  C_13
REMARK    6  A    between atoms: C_14  and  C_33
REMARK                            x       y       z     vdW  Elec       q    Type
REMARK                         _______ _______ _______ _____ _____    ______ ____
ROOT
ATOM      1  C   UNL     1       0.821  -6.387  -2.672  0.00  0.00    +0.193 A 
ATOM      2  C   UNL     1       1.253  -7.074  -3.762  0.00  0.00    +0.008 A 
ATOM      3  C   UNL     1       1.737  -8.320  -3.299  0.00  0.00    +0.038 A 
ATOM      4  C   UNL     1       1.559  -8.322  -1.906  0.00  0.00    +0.137 A 
ATOM      5  O   UNL     1       1.003  -7.141  -1.568  0.00  0.00    -0.450 OA
ATOM      6  C   UNL     1       1.945  -9.438  -1.168  0.00  0.00    +0.050 A 
ATOM      7  C   UNL     1       2.513 -10.529  -1.785  0.00  0.00    +0.050 A 
ATOM      8  C   UNL     1       2.712 -10.549  -3.166  0.00  0.00    +0.133 A 
ATOM      9  C   UNL     1       2.308  -9.446  -3.929  0.00  0.00    +0.070 A 
ATOM     10  C   UNL     1       2.490  -9.496  -5.380  0.00  0.00    +0.171 C 
ATOM     11  O   UNL     1       1.986  -8.654  -6.094  0.00  0.00    -0.292 OA
ATOM     12  C   UNL     1       3.310 -10.608  -5.971  0.00  0.00    +0.127 C 
ATOM     13  C   UNL     1       3.169 -11.891  -5.141  0.00  0.00    +0.118 C 
ATOM     14  O   UNL     1       3.292 -11.611  -3.748  0.00  0.00    -0.485 OA
ATOM     15  C   UNL     1       4.387 -12.782  -5.514  0.00  0.00    +0.048 C 
ATOM     16  C   UNL     1       4.588 -13.832  -4.463  0.00  0.00    +0.004 C 
ATOM     17  C   UNL     1       3.893 -15.169  -4.801  0.00  0.00    +0.000 C 
ATOM     18  C   UNL     1       2.483 -14.974  -5.385  0.00  0.00    +0.000 C 
ATOM     19  C   UNL     1       1.729 -13.887  -4.663  0.00  0.00    +0.004 C 
ATOM     20  C   UNL     1       1.914 -12.578  -5.442  0.00  0.00    +0.048 C 
ATOM     21  C   UNL     1       1.224  -6.598  -5.192  0.00  0.00    +0.048 C 
ENDROOT
BRANCH   1  23
ATOM     22  N   UNL     1      -0.158  -4.455  -1.544  0.00  0.00    -0.309 N 
ATOM     23  C   UNL     1       0.241  -5.035  -2.693  0.00  0.00    +0.280 C 
ATOM     24  O   UNL     1       0.122  -4.441  -3.748  0.00  0.00    -0.267 OA
ATOM     25  H   UNL     1      -0.063  -4.928  -0.703  0.00  0.00    +0.149 HD
BRANCH  22  26
ATOM     26  C   UNL     1      -0.736  -3.109  -1.565  0.00  0.00    +0.109 C 
BRANCH  26  27
ATOM     27  C   UNL     1      -1.102  -2.688  -0.141  0.00  0.00    +0.054 C 
BRANCH  27  32
ATOM     28  C   UNL     1      -3.382   2.621  -0.222  0.00  0.00    +0.044 C 
ATOM     29  C   UNL     1      -2.787   1.236  -0.201  0.00  0.00    -0.050 A 
ATOM     30  C   UNL     1      -3.606   0.131  -0.333  0.00  0.00    +0.003 A 
ATOM     31  C   UNL     1      -3.061  -1.139  -0.314  0.00  0.00    +0.004 A 
ATOM     32  C   UNL     1      -1.697  -1.304  -0.162  0.00  0.00    -0.046 A 
ATOM     33  C   UNL     1      -0.878  -0.198  -0.030  0.00  0.00    +0.004 A 
ATOM     34  C   UNL     1      -1.423   1.072  -0.050  0.00  0.00    +0.003 A 
ENDBRANCH  27  32
ENDBRANCH  26  27
ENDBRANCH  22  26
ENDBRANCH   1  23
TORSDOF 4
