REMARK  Name = ZINC09818239
REMARK  9 active torsions:
REMARK  status: ('A' for Active; 'I' for Inactive)
REMARK    1  A    between atoms: C_1  and  C_2
REMARK    2  A    between atoms: C_5  and  N_11
REMARK    3  A    between atoms: C_6  and  N_8
REMARK    4  A    between atoms: C_12  and  C_14
REMARK    5  A    between atoms: C_14  and  C_16
REMARK    6  A    between atoms: C_14  and  O_22
REMARK    7  A    between atoms: O_22  and  C_23
REMARK    8  A    between atoms: C_23  and  C_25
REMARK    9  A    between atoms: C_26  and  C_27
REMARK                            x       y       z     vdW  Elec       q    Type
REMARK                         _______ _______ _______ _____ _____    ______ ____
ROOT
ATOM      1  C   UNL     1      -8.438  -0.955   0.054  0.00  0.00    +0.292 C 
ENDROOT
BRANCH   1   2
ATOM      2  C   UNL     1      -8.854  -1.225   1.477  0.00  0.00    +0.002 A 
ATOM      3  C   UNL     1      -8.740  -0.230   2.431  0.00  0.00    +0.008 A 
ATOM      4  C   UNL     1      -9.125  -0.476   3.735  0.00  0.00    +0.000 A 
ATOM      5  C   UNL     1      -9.614  -1.720   4.089  0.00  0.00    +0.000 A 
ATOM      6  C   UNL     1      -9.724  -2.716   3.136  0.00  0.00    +0.000 A 
ATOM      7  C   UNL     1      -9.343  -2.469   1.831  0.00  0.00    +0.008 A 
ENDBRANCH   1   2
BRANCH   1   9
ATOM      8  N   UNL     1     -10.761  -0.761  -0.774  0.00  0.00    -0.280 N 
ATOM      9  C   UNL     1      -9.537  -0.208  -0.657  0.00  0.00    +0.263 C 
ATOM     10  O   UNL     1      -9.321   0.890  -1.124  0.00  0.00    -0.271 OA
ATOM     11  H   UNL     1     -10.914  -1.670  -0.473  0.00  0.00    +0.155 HD
BRANCH   8  16
ATOM     12  C   UNL     1     -15.021   2.232  -3.029  0.00  0.00    +0.044 C 
ATOM     13  C   UNL     1     -13.889   1.437  -2.429  0.00  0.00    -0.048 A 
ATOM     14  C   UNL     1     -12.828   2.091  -1.831  0.00  0.00    +0.005 A 
ATOM     15  C   UNL     1     -11.789   1.365  -1.281  0.00  0.00    +0.026 A 
ATOM     16  C   UNL     1     -11.812  -0.023  -1.330  0.00  0.00    +0.064 A 
ATOM     17  C   UNL     1     -12.876  -0.676  -1.937  0.00  0.00    +0.148 A 
ATOM     18  C   UNL     1     -13.915   0.056  -2.480  0.00  0.00    +0.038 A 
BRANCH  17  19
ATOM     19  N   UNL     1     -12.901  -2.155  -1.996  0.00  0.00    +0.058 N 
ATOM     20  O   UNL     1     -13.788  -2.725  -2.607  0.00  0.00    -0.126 OA
ATOM     21  O   UNL     1     -12.035  -2.801  -1.435  0.00  0.00    -0.126 OA
ENDBRANCH  17  19
ENDBRANCH   8  16
ENDBRANCH   1   9
BRANCH   1  22
ATOM     22  O   UNL     1      -7.246  -0.168   0.047  0.00  0.00    -0.444 OA
BRANCH  22  23
ATOM     23  C   UNL     1      -6.072  -0.834   0.046  0.00  0.00    +0.333 C 
ATOM     24  O   UNL     1      -6.063  -2.051   0.053  0.00  0.00    -0.246 OA
BRANCH  23  25
ATOM     25  C   UNL     1      -4.850  -0.117   0.040  0.00  0.00    +0.092 C 
ATOM     26  C   UNL     1      -3.675  -0.783   0.039  0.00  0.00    +0.015 C 
BRANCH  26  27
ATOM     27  C   UNL     1      -2.407  -0.039   0.032  0.00  0.00    -0.021 A 
ATOM     28  C   UNL     1      -2.415   1.360   0.025  0.00  0.00    +0.012 A 
ATOM     29  C   UNL     1      -1.225   2.054   0.013  0.00  0.00    +0.050 A 
ATOM     30  C   UNL     1      -0.015   1.369   0.015  0.00  0.00    +0.162 A 
ATOM     31  C   UNL     1       0.001  -0.024   0.024  0.00  0.00    +0.163 A 
ATOM     32  C   UNL     1      -1.189  -0.727   0.032  0.00  0.00    +0.057 A 
ATOM     33  O   UNL     1       1.178  -0.707   0.027  0.00  0.00    -0.485 OA
ATOM     34  C   UNL     1       2.347   0.024  -0.358  0.00  0.00    +0.270 C 
ATOM     35  C   UNL     1       2.335   1.371   0.378  0.00  0.00    +0.270 C 
ATOM     36  O   UNL     1       1.147   2.076   0.002  0.00  0.00    -0.485 OA
ENDBRANCH  26  27
ENDBRANCH  23  25
ENDBRANCH  22  23
ENDBRANCH   1  22
TORSDOF 8
