REMARK  Name = ZINC00908889
REMARK  4 active torsions:
REMARK  status: ('A' for Active; 'I' for Inactive)
REMARK    1  A    between atoms: C_4  and  N_7
REMARK    2  A    between atoms: C_8  and  C_10
REMARK    3  A    between atoms: C_10  and  S_11
REMARK    4  A    between atoms: S_11  and  C_12
REMARK                            x       y       z     vdW  Elec       q    Type
REMARK                         _______ _______ _______ _____ _____    ______ ____
ROOT
ATOM      1  C   UNL     1      -5.231   0.868   0.208  0.00  0.00    +0.191 A 
ATOM      2  N   UNL     1      -4.979  -0.436   0.189  0.00  0.00    -0.207 NA
ATOM      3  C   UNL     1      -5.935  -1.334   0.022  0.00  0.00    +0.129 A 
ATOM      4  C   UNL     1      -7.278  -0.895  -0.153  0.00  0.00    +0.051 A 
ATOM      5  C   UNL     1      -8.484  -1.701  -0.356  0.00  0.00    -0.025 A 
ATOM      6  C   UNL     1      -9.648  -1.035  -0.496  0.00  0.00    -0.004 A 
ATOM      7  S   UNL     1      -9.218   0.680  -0.369  0.00  0.00    -0.073 S 
ATOM      8  C   UNL     1      -7.470   0.500  -0.126  0.00  0.00    +0.115 A 
ATOM      9  N   UNL     1      -6.462   1.333   0.050  0.00  0.00    -0.214 NA
ATOM     10  C   UNL     1     -11.009  -1.623  -0.713  0.00  0.00    +0.043 C 
ATOM     11  C   UNL     1     -10.843  -3.093  -1.124  0.00  0.00    +0.005 C 
ATOM     12  C   UNL     1      -9.857  -3.763  -0.163  0.00  0.00    +0.005 C 
ATOM     13  C   UNL     1      -8.447  -3.226  -0.409  0.00  0.00    +0.037 C 
ATOM     14  N   UNL     1      -5.634  -2.684   0.013  0.00  0.00    -0.343 N 
ATOM     15  H   UNL     1      -6.273  -3.321  -0.343  0.00  0.00    +0.144 HD
ATOM     16  H   UNL     1      -4.783  -2.993   0.362  0.00  0.00    +0.144 HD
ENDROOT
BRANCH   1  17
ATOM     17  S   UNL     1      -3.902   2.001   0.442  0.00  0.00    -0.077 S 
BRANCH  17  18
ATOM     18  C   UNL     1      -2.522   0.840   0.595  0.00  0.00    +0.173 C 
BRANCH  18  20
ATOM     19  N   UNL     1      -0.076   0.945   0.948  0.00  0.00    -0.312 N 
ATOM     20  C   UNL     1      -1.242   1.606   0.807  0.00  0.00    +0.224 C 
ATOM     21  O   UNL     1      -1.260   2.818   0.851  0.00  0.00    -0.275 OA
ATOM     22  H   UNL     1      -0.060  -0.025   0.913  0.00  0.00    +0.149 HD
BRANCH  19  26
ATOM     23  C   UNL     1       4.051   2.002   0.723  0.00  0.00    +0.000 C 
ATOM     24  C   UNL     1       3.485   1.580   2.080  0.00  0.00    +0.002 C 
ATOM     25  C   UNL     1       2.185   0.802   1.871  0.00  0.00    +0.022 C 
ATOM     26  C   UNL     1       1.170   1.690   1.149  0.00  0.00    +0.073 C 
ATOM     27  C   UNL     1       1.736   2.112  -0.208  0.00  0.00    +0.022 C 
ATOM     28  C   UNL     1       3.036   2.890   0.001  0.00  0.00    +0.002 C 
ENDBRANCH  19  26
ENDBRANCH  18  20
ENDBRANCH  17  18
ENDBRANCH   1  17
TORSDOF 4
