REMARK  Name = ZINC08008710
REMARK  7 active torsions:
REMARK  status: ('A' for Active; 'I' for Inactive)
REMARK    1  A    between atoms: C_4  and  N_24
REMARK    2  A    between atoms: C_5  and  C_7
REMARK    3  A    between atoms: C_7  and  O_9
REMARK    4  A    between atoms: O_9  and  C_10
REMARK    5  A    between atoms: C_10  and  C_11
REMARK    6  A    between atoms: N_13  and  C_14
REMARK    7  A    between atoms: C_25  and  C_27
REMARK                            x       y       z     vdW  Elec       q    Type
REMARK                         _______ _______ _______ _____ _____    ______ ____
ROOT
ATOM      1  C   UNL     1      -8.479   0.927   2.444  0.00  0.00    +0.341 C 
ATOM      2  O   UNL     1      -9.013   0.228   1.606  0.00  0.00    -0.245 OA
ENDROOT
BRANCH   1   7
ATOM      3  C   UNL     1      -9.306   2.476   5.759  0.00  0.00    +0.001 A 
ATOM      4  C   UNL     1     -10.653   2.172   5.875  0.00  0.00    +0.002 A 
ATOM      5  C   UNL     1     -11.298   1.465   4.880  0.00  0.00    +0.024 A 
ATOM      6  C   UNL     1     -10.598   1.053   3.754  0.00  0.00    +0.048 A 
ATOM      7  C   UNL     1      -9.233   1.359   3.634  0.00  0.00    +0.080 A 
ATOM      8  C   UNL     1      -8.594   2.071   4.652  0.00  0.00    +0.017 A 
BRANCH   6   9
ATOM      9  N   UNL     1     -11.246   0.339   2.751  0.00  0.00    -0.278 N 
ATOM     10  C   UNL     1     -12.532   0.610   2.454  0.00  0.00    +0.284 C 
ATOM     11  O   UNL     1     -13.098   1.542   2.995  0.00  0.00    -0.266 OA
ATOM     12  H   UNL     1     -10.771  -0.353   2.264  0.00  0.00    +0.155 HD
BRANCH  10  13
ATOM     13  C   UNL     1     -13.249  -0.217   1.479  0.00  0.00    +0.189 A 
ATOM     14  C   UNL     1     -14.548  -0.053   1.089  0.00  0.00    +0.054 A 
ATOM     15  C   UNL     1     -14.816  -1.059   0.147  0.00  0.00    +0.042 A 
ATOM     16  C   UNL     1     -13.684  -1.784   0.006  0.00  0.00    +0.196 A 
ATOM     17  O   UNL     1     -12.741  -1.269   0.806  0.00  0.00    -0.458 OA
ENDBRANCH  10  13
ENDBRANCH   6   9
ENDBRANCH   1   7
BRANCH   1  18
ATOM     18  O   UNL     1      -7.196   1.307   2.285  0.00  0.00    -0.452 OA
BRANCH  18  19
ATOM     19  C   UNL     1      -6.514   0.844   1.090  0.00  0.00    +0.328 C 
BRANCH  19  20
ATOM     20  C   UNL     1      -5.100   1.365   1.084  0.00  0.00    +0.251 C 
ATOM     21  O   UNL     1      -4.705   2.058   1.998  0.00  0.00    -0.272 OA
ATOM     22  N   UNL     1      -4.274   1.061   0.064  0.00  0.00    -0.307 N 
ATOM     23  H   UNL     1      -4.589   0.506  -0.667  0.00  0.00    +0.149 HD
BRANCH  22  24
ATOM     24  C   UNL     1      -2.899   1.567   0.059  0.00  0.00    +0.035 C 
ATOM     25  C   UNL     1      -2.181   1.079  -1.201  0.00  0.00    +0.029 C 
ATOM     26  C   UNL     1      -0.745   1.608  -1.207  0.00  0.00    -0.008 C 
ATOM     27  C   UNL     1      -0.008   1.094   0.032  0.00  0.00    +0.007 C 
ATOM     28  C   UNL     1      -0.726   1.582   1.292  0.00  0.00    -0.008 C 
ATOM     29  C   UNL     1      -2.162   1.053   1.297  0.00  0.00    +0.029 C 
ATOM     30  C   UNL     1      -0.746   3.112   1.308  0.00  0.00    +0.007 C 
ATOM     31  C   UNL     1      -1.483   3.625   0.069  0.00  0.00    -0.008 C 
ATOM     32  C   UNL     1      -0.765   3.138  -1.191  0.00  0.00    +0.007 C 
ATOM     33  C   UNL     1      -2.919   3.097   0.075  0.00  0.00    +0.029 C 
ENDBRANCH  22  24
ENDBRANCH  19  20
ENDBRANCH  18  19
ENDBRANCH   1  18
TORSDOF 7
