REMARK  Name = ZINC09345902
REMARK  9 active torsions:
REMARK  status: ('A' for Active; 'I' for Inactive)
REMARK    1  A    between atoms: C_1  and  C_2
REMARK    2  A    between atoms: C_5  and  C_8
REMARK    3  A    between atoms: C_19  and  C_21
REMARK    4  A    between atoms: C_24  and  O_29
REMARK    5  A    between atoms: C_26  and  O_27
REMARK    6  A    between atoms: O_27  and  C_28
REMARK    7  A    between atoms: O_29  and  C_30
REMARK    8  A    between atoms: C_35  and  S_37
REMARK    9  A    between atoms: S_37  and  C_38
REMARK                            x       y       z     vdW  Elec       q    Type
REMARK                         _______ _______ _______ _____ _____    ______ ____
ROOT
ATOM      1  C   UNL     1       0.054  -4.285  -0.082  0.00  0.00    +0.159 C 
ATOM      2  C   UNL     1       1.498  -4.729  -0.003  0.00  0.00    +0.025 C 
ATOM      3  C   UNL     1       1.866  -5.509   1.034  0.00  0.00    +0.058 C 
ATOM      4  C   UNL     1       3.285  -5.945   1.093  0.00  0.00    +0.040 A 
ATOM      5  C   UNL     1       3.835  -6.466   2.255  0.00  0.00    +0.013 A 
ATOM      6  C   UNL     1       5.161  -6.857   2.266  0.00  0.00    +0.001 A 
ATOM      7  C   UNL     1       5.934  -6.730   1.126  0.00  0.00    +0.004 A 
ATOM      8  C   UNL     1       5.393  -6.213  -0.036  0.00  0.00    +0.046 A 
ATOM      9  C   UNL     1       4.066  -5.818  -0.062  0.00  0.00    +0.131 A 
ATOM     10  O   UNL     1       3.507  -5.312  -1.191  0.00  0.00    -0.479 OA
ATOM     11  C   UNL     1       2.499  -4.311  -1.039  0.00  0.00    +0.238 C 
ATOM     12  N   UNL     1       0.981  -5.884   1.989  0.00  0.00    -0.326 N 
ATOM     13  C   UNL     1      -0.291  -5.543   1.997  0.00  0.00    +0.216 C 
ATOM     14  N   UNL     1      -0.820  -4.751   1.002  0.00  0.00    -0.209 N 
ATOM     15  N   UNL     1      -2.173  -4.577   1.302  0.00  0.00    -0.239 N 
ATOM     16  C   UNL     1      -2.402  -5.266   2.465  0.00  0.00    +0.174 C 
ATOM     17  N   UNL     1      -1.286  -5.828   2.856  0.00  0.00    -0.192 NA
ATOM     18  H   UNL     1       1.305  -6.441   2.714  0.00  0.00    +0.169 HD
ATOM     19  H   UNL     1      -2.822  -4.070   0.790  0.00  0.00    +0.172 HD
ENDROOT
BRANCH   1  24
ATOM     20  C   UNL     1      -0.058   1.492  -0.128  0.00  0.00    +0.044 C 
ATOM     21  C   UNL     1      -0.029  -0.014  -0.116  0.00  0.00    -0.050 A 
ATOM     22  C   UNL     1      -0.142  -0.717  -1.301  0.00  0.00    +0.004 A 
ATOM     23  C   UNL     1      -0.115  -2.099  -1.290  0.00  0.00    +0.006 A 
ATOM     24  C   UNL     1       0.025  -2.778  -0.094  0.00  0.00    -0.021 A 
ATOM     25  C   UNL     1       0.140  -2.075   1.091  0.00  0.00    +0.006 A 
ATOM     26  C   UNL     1       0.117  -0.693   1.079  0.00  0.00    +0.004 A 
ENDBRANCH   1  24
BRANCH  11  27
ATOM     27  C   UNL     1       3.143  -3.016  -0.616  0.00  0.00    +0.039 A 
ATOM     28  C   UNL     1       3.313  -2.736   0.727  0.00  0.00    +0.015 A 
ATOM     29  C   UNL     1       3.903  -1.550   1.118  0.00  0.00    +0.046 A 
ATOM     30  C   UNL     1       4.327  -0.636   0.163  0.00  0.00    +0.124 A 
ATOM     31  C   UNL     1       4.157  -0.914  -1.185  0.00  0.00    +0.091 A 
ATOM     32  C   UNL     1       3.570  -2.108  -1.575  0.00  0.00    +0.131 A 
BRANCH  32  33
ATOM     33  O   UNL     1       3.408  -2.387  -2.895  0.00  0.00    -0.495 OA
ATOM     34  C   UNL     1       3.977  -1.465  -3.827  0.00  0.00    +0.277 C 
ENDBRANCH  32  33
BRANCH  30  35
ATOM     35  O   UNL     1       4.907   0.531   0.548  0.00  0.00    -0.495 OA
ATOM     36  C   UNL     1       5.049   0.752   1.953  0.00  0.00    +0.277 C 
ENDBRANCH  30  35
ENDBRANCH  11  27
BRANCH  16  37
ATOM     37  S   UNL     1      -3.950  -5.381   3.297  0.00  0.00    -0.092 S 
ATOM     38  C   UNL     1      -3.594  -6.414   4.745  0.00  0.00    +0.093 C 
ENDBRANCH  16  37
TORSDOF 5
