REMARK  Name = ZINC36207640
REMARK  14 active torsions:
REMARK  status: ('A' for Active; 'I' for Inactive)
REMARK    1  A    between atoms: C_1  and  C_2
REMARK    2  A    between atoms: C_5  and  C_8
REMARK    3  A    between atoms: C_17  and  C_19
REMARK    4  A    between atoms: C_19  and  N_20
REMARK    5  A    between atoms: N_20  and  C_21
REMARK    6  A    between atoms: N_20  and  C_25
REMARK    7  A    between atoms: C_21  and  C_22
REMARK    8  A    between atoms: C_22  and  O_23
REMARK    9  A    between atoms: O_23  and  C_24
REMARK   10  A    between atoms: C_25  and  C_26
REMARK   11  A    between atoms: C_26  and  C_28
REMARK   12  A    between atoms: C_26  and  O_37
REMARK   13  A    between atoms: C_28  and  O_29
REMARK   14  A    between atoms: O_29  and  C_30
REMARK                            x       y       z     vdW  Elec       q    Type
REMARK                         _______ _______ _______ _____ _____    ______ ____
ROOT
ATOM      1  C   UNL     1       3.213  -7.544   2.787  0.00  0.00    -0.003 C 
ENDROOT
BRANCH   1  11
ATOM      2  C   UNL     1      -0.369  -4.960  -0.816  0.00  0.00    +0.004 A 
ATOM      3  C   UNL     1      -1.021  -5.837  -1.617  0.00  0.00    +0.056 A 
ATOM      4  S   UNL     1      -0.391  -7.420  -1.095  0.00  0.00    -0.076 S 
ATOM      5  C   UNL     1       0.722  -6.874   0.174  0.00  0.00    +0.116 A 
ATOM      6  C   UNL     1       0.584  -5.476   0.159  0.00  0.00    +0.080 A 
ATOM      7  C   UNL     1       1.391  -4.763   1.102  0.00  0.00    +0.260 A 
ATOM      8  O   UNL     1       1.337  -3.547   1.168  0.00  0.00    -0.267 OA
ATOM      9  N   UNL     1       2.210  -5.456   1.915  0.00  0.00    -0.312 N 
ATOM     10  H   UNL     1       2.759  -4.978   2.556  0.00  0.00    +0.170 HD
ATOM     11  C   UNL     1       2.282  -6.811   1.856  0.00  0.00    +0.094 A 
ATOM     12  N   UNL     1       1.551  -7.489   1.013  0.00  0.00    -0.229 NA
BRANCH   2  17
ATOM     13  C   UNL     1      -1.326   0.700  -1.272  0.00  0.00    +0.044 C 
ATOM     14  C   UNL     1      -1.076  -0.781  -1.152  0.00  0.00    -0.050 A 
ATOM     15  C   UNL     1      -0.798  -1.527  -2.284  0.00  0.00    +0.004 A 
ATOM     16  C   UNL     1      -0.568  -2.883  -2.182  0.00  0.00    +0.009 A 
ATOM     17  C   UNL     1      -0.615  -3.503  -0.933  0.00  0.00    -0.017 A 
ATOM     18  C   UNL     1      -0.894  -2.747   0.204  0.00  0.00    +0.009 A 
ATOM     19  C   UNL     1      -1.119  -1.390   0.089  0.00  0.00    +0.004 A 
ENDBRANCH   2  17
ENDBRANCH   1  11
BRANCH   1  20
ATOM     20  N   UNL     1       3.117  -8.989   2.537  0.00  0.00    +0.388 N 
ATOM     21  H   UNL     1       2.155  -9.281   2.618  0.00  0.00    -0.081 HD
BRANCH  20  22
ATOM     22  C   UNL     1       3.607  -9.285   1.184  0.00  0.00    -0.050 C 
BRANCH  22  23
ATOM     23  C   UNL     1       3.364 -10.762   0.866  0.00  0.00    +0.141 C 
BRANCH  23  24
ATOM     24  O   UNL     1       1.959 -11.022   0.861  0.00  0.00    -0.385 OA
ATOM     25  C   UNL     1       1.621 -12.380   0.572  0.00  0.00    +0.193 C 
ENDBRANCH  23  24
ENDBRANCH  22  23
ENDBRANCH  20  22
BRANCH  20  26
ATOM     26  C   UNL     1       3.933  -9.711   3.522  0.00  0.00    -0.043 C 
BRANCH  26  27
ATOM     27  C   UNL     1       3.337  -9.517   4.918  0.00  0.00    +0.135 C 
BRANCH  27  28
ATOM     28  O   UNL     1       2.003 -10.030   4.942  0.00  0.00    -0.390 OA
ATOM     29  H   UNL     1       1.947 -10.985   4.808  0.00  0.00    +0.210 HD
ENDBRANCH  27  28
BRANCH  27  30
ATOM     30  C   UNL     1       4.189 -10.265   5.945  0.00  0.00    +0.258 C 
BRANCH  30  31
ATOM     31  O   UNL     1       3.702  -9.990   7.260  0.00  0.00    -0.489 OA
BRANCH  31  32
ATOM     32  C   UNL     1       4.353 -10.582   8.296  0.00  0.00    +0.121 A 
ATOM     33  C   UNL     1       5.442 -11.406   8.052  0.00  0.00    +0.047 A 
ATOM     34  C   UNL     1       6.103 -12.006   9.106  0.00  0.00    +0.023 A 
ATOM     35  C   UNL     1       5.678 -11.787  10.405  0.00  0.00    +0.041 A 
ATOM     36  C   UNL     1       4.592 -10.966  10.650  0.00  0.00    +0.023 A 
ATOM     37  C   UNL     1       3.933 -10.358   9.599  0.00  0.00    +0.047 A 
ATOM     38 CL   UNL     1       6.510 -12.543  11.728  0.00  0.00    -0.084 Cl
ENDBRANCH  31  32
ENDBRANCH  30  31
ENDBRANCH  27  30
ENDBRANCH  26  27
ENDBRANCH  20  26
ENDBRANCH   1  20
TORSDOF 12
