REMARK  Name = ZINC13831088
REMARK  5 active torsions:
REMARK  status: ('A' for Active; 'I' for Inactive)
REMARK    1  A    between atoms: C_3  and  C_32
REMARK    2  A    between atoms: C_6  and  C_7
REMARK    3  A    between atoms: C_10  and  C_24
REMARK    4  A    between atoms: C_13  and  C_15
REMARK    5  A    between atoms: C_29  and  O_30
REMARK                            x       y       z     vdW  Elec       q    Type
REMARK                         _______ _______ _______ _____ _____    ______ ____
ROOT
ATOM      1  C   UNL     1      -1.293  -0.775   0.011  0.00  0.00    +0.081 C 
ATOM      2  N   UNL     1      -1.083  -2.063   0.681  0.00  0.00    +0.401 N 
ATOM      3  C   UNL     1      -0.818  -1.821   2.109  0.00  0.00    -0.028 C 
ATOM      4  C   UNL     1      -2.106  -1.304   2.755  0.00  0.00    +0.044 C 
ATOM      5  C   UNL     1      -2.683  -0.204   1.907  0.00  0.00    +0.040 C 
ATOM      6  N   UNL     1      -2.312   0.006   0.700  0.00  0.00    -0.299 NA
ATOM      7  H   UNL     1      -1.909  -2.634   0.582  0.00  0.00    -0.081 HD
ATOM      8  H   UNL     1      -0.293  -2.535   0.266  0.00  0.00    -0.081 HD
ENDROOT
BRANCH   5   9
ATOM      9  C   UNL     1      -3.720   0.667   2.489  0.00  0.00    -0.001 A 
ATOM     10  C   UNL     1      -4.144   0.468   3.806  0.00  0.00    +0.013 A 
ATOM     11  C   UNL     1      -5.113   1.284   4.348  0.00  0.00    +0.050 A 
ATOM     12  C   UNL     1      -5.671   2.305   3.591  0.00  0.00    +0.166 A 
ATOM     13  C   UNL     1      -5.253   2.509   2.276  0.00  0.00    +0.167 A 
ATOM     14  C   UNL     1      -4.278   1.698   1.728  0.00  0.00    +0.059 A 
ATOM     15  O   UNL     1      -5.948   3.563   1.756  0.00  0.00    -0.453 OA
ATOM     16  C   UNL     1      -7.083   3.740   2.625  0.00  0.00    +0.466 C 
ATOM     17  O   UNL     1      -6.627   3.230   3.892  0.00  0.00    -0.453 OA
ENDBRANCH   5   9
BRANCH   3  18
ATOM     18  C   UNL     1      -0.396  -3.107   2.772  0.00  0.00    -0.018 A 
ATOM     19  C   UNL     1      -0.691  -4.320   2.180  0.00  0.00    +0.025 A 
ATOM     20  C   UNL     1      -0.304  -5.500   2.788  0.00  0.00    +0.041 A 
ATOM     21  C   UNL     1       0.379  -5.469   3.992  0.00  0.00    +0.023 A 
ATOM     22  C   UNL     1       0.676  -4.258   4.587  0.00  0.00    +0.047 A 
ATOM     23  C   UNL     1       0.293  -3.073   3.975  0.00  0.00    +0.119 A 
ATOM     24 CL   UNL     1      -0.676  -7.023   2.042  0.00  0.00    -0.084 Cl
BRANCH  23  25
ATOM     25  O   UNL     1       0.590  -1.881   4.557  0.00  0.00    -0.507 OA
ATOM     26  H   UNL     1      -0.091  -1.560   5.165  0.00  0.00    +0.292 HD
ENDBRANCH  23  25
ENDBRANCH   3  18
BRANCH   1  32
ATOM     27  C   UNL     1      -0.017   1.378   0.010  0.00  0.00    +0.004 A 
ATOM     28  C   UNL     1       1.171   2.086   0.002  0.00  0.00    +0.012 A 
ATOM     29  C   UNL     1       2.377   1.411  -0.013  0.00  0.00    +0.055 A 
ATOM     30  C   UNL     1       2.396   0.029  -0.020  0.00  0.00    +0.012 A 
ATOM     31  C   UNL     1       1.208  -0.679  -0.012  0.00  0.00    +0.004 A 
ATOM     32  C   UNL     1       0.002  -0.004   0.002  0.00  0.00    -0.040 A 
BRANCH  29  33
ATOM     33  C   UNL     1       3.672   2.182  -0.022  0.00  0.00    +0.417 C 
ATOM     34  F   UNL     1       4.086   2.414   1.294  0.00  0.00    -0.166 F 
ATOM     35  F   UNL     1       4.651   1.442  -0.695  0.00  0.00    -0.166 F 
ATOM     36  F   UNL     1       3.482   3.405  -0.674  0.00  0.00    -0.166 F 
ENDBRANCH  29  33
ENDBRANCH   1  32
TORSDOF 5
