REMARK  Name = ZINC18181623
REMARK  3 active torsions:
REMARK  status: ('A' for Active; 'I' for Inactive)
REMARK    1  A    between atoms: C_1  and  C_2
REMARK    2  A    between atoms: C_7  and  N_8
REMARK    3  A    between atoms: C_13  and  C_31
REMARK                            x       y       z     vdW  Elec       q    Type
REMARK                         _______ _______ _______ _____ _____    ______ ____
ROOT
ATOM      1  N   UNL     1      -0.185  -0.024   2.417  0.00  0.00    -0.209 N 
ATOM      2  C   UNL     1      -1.348   0.141   3.058  0.00  0.00    +0.233 C 
ATOM      3  O   UNL     1      -2.423  -0.270   2.675  0.00  0.00    -0.274 OA
ATOM      4  C   UNL     1      -1.114   0.919   4.332  0.00  0.00    +0.125 C 
ATOM      5  C   UNL     1      -1.748   2.321   4.193  0.00  0.00    +0.163 C 
ATOM      6  O   UNL     1      -0.738   3.238   4.670  0.00  0.00    -0.348 OA
ATOM      7  C   UNL     1       0.505   2.725   4.168  0.00  0.00    +0.206 C 
ATOM      8  C   UNL     1       0.419   1.180   4.316  0.00  0.00    +0.138 C 
ATOM      9  C   UNL     1       0.871   0.515   3.036  0.00  0.00    +0.234 C 
ATOM     10  O   UNL     1       2.014   0.478   2.631  0.00  0.00    -0.274 OA
ATOM     11  C   UNL     1       0.719   3.127   2.736  0.00  0.00    +0.204 C 
ATOM     12  O   UNL     1      -0.007   2.874   1.799  0.00  0.00    -0.288 OA
ATOM     13  C   UNL     1       1.981   3.890   2.686  0.00  0.00    +0.031 A 
ATOM     14  C   UNL     1       2.640   4.494   1.613  0.00  0.00    +0.012 A 
ATOM     15  C   UNL     1       3.831   5.163   1.819  0.00  0.00    +0.001 A 
ATOM     16  C   UNL     1       4.381   5.241   3.086  0.00  0.00    +0.001 A 
ATOM     17  C   UNL     1       3.745   4.652   4.162  0.00  0.00    +0.012 A 
ATOM     18  C   UNL     1       2.540   3.972   3.977  0.00  0.00    +0.031 A 
ATOM     19  C   UNL     1       1.672   3.270   4.942  0.00  0.00    +0.204 C 
ATOM     20  O   UNL     1       1.864   3.155   6.134  0.00  0.00    -0.288 OA
ENDROOT
BRANCH   1  27
ATOM     21  C   UNL     1       0.128  -2.852   2.489  0.00  0.00    +0.045 C 
ATOM     22  C   UNL     1       0.072  -2.090   1.190  0.00  0.00    -0.029 A 
ATOM     23  C   UNL     1       0.168  -2.766  -0.012  0.00  0.00    +0.006 A 
ATOM     24  C   UNL     1       0.117  -2.069  -1.204  0.00  0.00    +0.020 A 
ATOM     25  C   UNL     1      -0.030  -0.692  -1.199  0.00  0.00    +0.043 A 
ATOM     26  C   UNL     1      -0.127  -0.012   0.000  0.00  0.00    +0.044 A 
ATOM     27  C   UNL     1      -0.082  -0.711   1.199  0.00  0.00    +0.048 A 
ATOM     28 CL   UNL     1      -0.093   0.179  -2.699  0.00  0.00    -0.083 Cl
ENDBRANCH   1  27
BRANCH   5  29
ATOM     29  C   UNL     1      -2.990   2.421   5.040  0.00  0.00    -0.018 A 
ATOM     30  C   UNL     1      -2.891   2.761   6.376  0.00  0.00    +0.006 A 
ATOM     31  C   UNL     1      -4.030   2.853   7.153  0.00  0.00    +0.000 A 
ATOM     32  C   UNL     1      -5.270   2.604   6.593  0.00  0.00    +0.000 A 
ATOM     33  C   UNL     1      -5.370   2.264   5.257  0.00  0.00    +0.000 A 
ATOM     34  C   UNL     1      -4.230   2.177   4.479  0.00  0.00    +0.006 A 
ENDBRANCH   5  29
TORSDOF 2
