REMARK  Name = ZINC12285345
REMARK  12 active torsions:
REMARK  status: ('A' for Active; 'I' for Inactive)
REMARK    1  A    between atoms: C_1  and  C_2
REMARK    2  A    between atoms: C_2  and  O_3
REMARK    3  A    between atoms: O_3  and  C_4
REMARK    4  A    between atoms: C_6  and  C_23
REMARK    5  A    between atoms: C_9  and  O_10
REMARK    6  A    between atoms: O_10  and  C_11
REMARK    7  A    between atoms: C_11  and  C_12
REMARK    8  A    between atoms: C_12  and  O_13
REMARK    9  A    between atoms: O_13  and  C_14
REMARK   10  A    between atoms: C_15  and  C_21
REMARK   11  A    between atoms: C_19  and  C_20
REMARK   12  A    between atoms: C_33  and  C_35
REMARK                            x       y       z     vdW  Elec       q    Type
REMARK                         _______ _______ _______ _____ _____    ______ ____
ROOT
ATOM      1  C   UNL     1      -1.809  -2.117  -0.446  0.00  0.00    +0.164 A 
ATOM      2  C   UNL     1      -0.637  -2.807  -0.214  0.00  0.00    +0.057 A 
ATOM      3  C   UNL     1      -0.631  -4.209  -0.264  0.00  0.00    -0.019 A 
ATOM      4  C   UNL     1      -1.818  -4.900  -0.549  0.00  0.00    +0.032 A 
ATOM      5  C   UNL     1      -2.982  -4.201  -0.778  0.00  0.00    +0.087 A 
ATOM      6  C   UNL     1      -2.986  -2.812  -0.723  0.00  0.00    +0.180 A 
ATOM      7 CL   UNL     1      -4.450  -5.058  -1.131  0.00  0.00    -0.080 Cl
ENDROOT
BRANCH   3   8
ATOM      8  C   UNL     1       0.609  -4.948  -0.019  0.00  0.00    +0.024 C 
ATOM      9  C   UNL     1       0.574  -6.146   0.659  0.00  0.00    +0.081 C 
ATOM     10  C   UNL     1       1.777  -7.019   0.773  0.00  0.00    +0.152 C 
ATOM     11  N   UNL     1       2.996  -6.555   0.841  0.00  0.00    -0.283 NA
ATOM     12  N   UNL     1       1.468  -8.396   0.800  0.00  0.00    -0.152 N 
ATOM     13  C   UNL     1       0.203  -8.757   1.212  0.00  0.00    +0.181 C 
ATOM     14  N   UNL     1      -0.800  -7.964   1.498  0.00  0.00    -0.152 NA
ATOM     15  C   UNL     1      -0.661  -6.633   1.322  0.00  0.00    +0.273 C 
ATOM     16  O   UNL     1      -1.524  -5.855   1.693  0.00  0.00    -0.268 OA
ATOM     17  S   UNL     1       0.307 -10.527   1.222  0.00  0.00    -0.038 S 
ATOM     18  C   UNL     1       1.972 -10.668   0.588  0.00  0.00    +0.097 C 
ATOM     19  N   UNL     1       2.326  -9.421   0.462  0.00  0.00    -0.170 NA
ATOM     20  C   UNL     1       2.765 -11.912   0.280  0.00  0.00    +0.075 C 
ATOM     21  H   UNL     1       3.745  -7.168   0.914  0.00  0.00    +0.188 HD
ENDBRANCH   3   8
BRANCH   1  22
ATOM     22  O   UNL     1      -1.817  -0.758  -0.398  0.00  0.00    -0.489 OA
BRANCH  22  24
ATOM     23  C   UNL     1      -0.782   1.405  -0.098  0.00  0.00    +0.048 C 
ATOM     24  C   UNL     1      -0.576  -0.111  -0.109  0.00  0.00    +0.226 C 
ENDBRANCH  22  24
ENDBRANCH   1  22
BRANCH   6  25
ATOM     25  O   UNL     1      -4.139  -2.129  -0.945  0.00  0.00    -0.483 OA
BRANCH  25  26
ATOM     26  C   UNL     1      -4.423  -1.758  -2.295  0.00  0.00    +0.270 C 
BRANCH  26  27
ATOM     27  C   UNL     1      -5.752  -1.002  -2.348  0.00  0.00    +0.270 C 
BRANCH  27  28
ATOM     28  O   UNL     1      -5.628   0.230  -1.635  0.00  0.00    -0.488 OA
BRANCH  28  29
ATOM     29  C   UNL     1      -6.727   1.028  -1.584  0.00  0.00    +0.126 A 
ATOM     30  C   UNL     1      -6.941   1.979  -2.571  0.00  0.00    -0.009 A 
ATOM     31  C   UNL     1      -8.060   2.788  -2.517  0.00  0.00    +0.007 A 
ATOM     32  C   UNL     1      -8.966   2.650  -1.482  0.00  0.00    +0.001 A 
ATOM     33  C   UNL     1      -8.755   1.702  -0.497  0.00  0.00    +0.007 A 
ATOM     34  C   UNL     1      -7.641   0.887  -0.550  0.00  0.00    -0.009 A 
ATOM     35  C   UNL     1      -7.414  -0.150   0.520  0.00  0.00    +0.047 C 
ATOM     36  C   UNL     1      -5.954   2.131  -3.699  0.00  0.00    +0.047 C 
ENDBRANCH  28  29
ENDBRANCH  27  28
ENDBRANCH  26  27
ENDBRANCH  25  26
ENDBRANCH   6  25
TORSDOF 8
