REMARK  Name = ZINC58925279
REMARK  11 active torsions:
REMARK  status: ('A' for Active; 'I' for Inactive)
REMARK    1  A    between atoms: C_1  and  C_2
REMARK    2  A    between atoms: C_5  and  S_8
REMARK    3  A    between atoms: S_8  and  N_11
REMARK    4  A    between atoms: N_11  and  C_12
REMARK    5  A    between atoms: N_11  and  C_27
REMARK    6  A    between atoms: C_12  and  C_13
REMARK    7  A    between atoms: N_15  and  N_16
REMARK    8  A    between atoms: C_17  and  C_18
REMARK    9  A    between atoms: C_21  and  C_26
REMARK   10  A    between atoms: C_22  and  C_25
REMARK   11  A    between atoms: C_23  and  C_24
REMARK                            x       y       z     vdW  Elec       q    Type
REMARK                         _______ _______ _______ _____ _____    ______ ____
ROOT
ATOM      1  N   UNL     1       2.397  -5.341  -0.646  0.00  0.00    -0.191 N 
ENDROOT
BRANCH   1   2
ATOM      2  C   UNL     1       2.937  -5.760  -1.866  0.00  0.00    +0.087 A 
ATOM      3  C   UNL     1       2.770  -7.072  -2.286  0.00  0.00    +0.027 A 
ATOM      4  C   UNL     1       3.304  -7.483  -3.492  0.00  0.00    +0.002 A 
ATOM      5  C   UNL     1       4.005  -6.590  -4.281  0.00  0.00    +0.003 A 
ATOM      6  C   UNL     1       4.175  -5.281  -3.866  0.00  0.00    +0.040 A 
ATOM      7  C   UNL     1       3.637  -4.861  -2.663  0.00  0.00    +0.146 A 
ATOM      8  F   UNL     1       3.798  -3.582  -2.261  0.00  0.00    -0.203 F 
ENDBRANCH   1   2
BRANCH   1   9
ATOM      9  S   UNL     1       0.907  -4.617  -0.604  0.00  0.00    +0.075 S 
ATOM     10  O   UNL     1       0.396  -4.816   0.707  0.00  0.00    -0.150 OA
ATOM     11  O   UNL     1       0.213  -5.050  -1.766  0.00  0.00    -0.150 OA
BRANCH   9  16
ATOM     12  C   UNL     1       1.786   1.319  -1.230  0.00  0.00    +0.044 C 
ATOM     13  C   UNL     1       1.566  -0.164  -1.074  0.00  0.00    -0.050 A 
ATOM     14  C   UNL     1       1.379  -0.956  -2.191  0.00  0.00    +0.005 A 
ATOM     15  C   UNL     1       1.178  -2.316  -2.047  0.00  0.00    +0.029 A 
ATOM     16  C   UNL     1       1.165  -2.884  -0.787  0.00  0.00    +0.109 A 
ATOM     17  C   UNL     1       1.353  -2.091   0.330  0.00  0.00    +0.029 A 
ATOM     18  C   UNL     1       1.558  -0.732   0.186  0.00  0.00    +0.005 A 
ENDBRANCH   9  16
ENDBRANCH   1   9
BRANCH   1  19
ATOM     19  C   UNL     1       3.148  -5.541   0.596  0.00  0.00    +0.229 C 
BRANCH  19  20
ATOM     20  C   UNL     1       2.887  -6.929   1.122  0.00  0.00    +0.251 C 
ATOM     21  O   UNL     1       2.147  -7.677   0.519  0.00  0.00    -0.272 OA
ATOM     22  N   UNL     1       3.477  -7.340   2.262  0.00  0.00    -0.206 N 
ATOM     23  H   UNL     1       4.070  -6.741   2.744  0.00  0.00    +0.177 HD
BRANCH  22  24
ATOM     24  N   UNL     1       3.235  -8.630   2.751  0.00  0.00    -0.188 NA
ATOM     25  C   UNL     1       3.803  -9.025   3.849  0.00  0.00    +0.138 C 
BRANCH  25  26
ATOM     26  C   UNL     1       3.548 -10.383   4.364  0.00  0.00    -0.002 A 
ATOM     27  C   UNL     1       4.244 -10.852   5.481  0.00  0.00    +0.010 A 
ATOM     28  C   UNL     1       4.000 -12.124   5.957  0.00  0.00    +0.004 A 
ATOM     29  C   UNL     1       3.069 -12.934   5.331  0.00  0.00    -0.047 A 
ATOM     30  C   UNL     1       2.376 -12.475   4.225  0.00  0.00    -0.044 A 
ATOM     31  C   UNL     1       2.604 -11.204   3.742  0.00  0.00    -0.039 A 
ATOM     32  C   UNL     1       1.843 -10.703   2.541  0.00  0.00    +0.044 C 
ATOM     33  C   UNL     1       1.363 -13.365   3.551  0.00  0.00    +0.044 C 
ATOM     34  C   UNL     1       2.809 -14.322   5.857  0.00  0.00    +0.044 C 
ENDBRANCH  25  26
ENDBRANCH  22  24
ENDBRANCH  19  20
ENDBRANCH   1  19
TORSDOF 7
