REMARK  Name = ZINC36072129
REMARK  14 active torsions:
REMARK  status: ('A' for Active; 'I' for Inactive)
REMARK    1  A    between atoms: C_1  and  C_2
REMARK    2  A    between atoms: C_2  and  C_4
REMARK    3  A    between atoms: C_2  and  N_10
REMARK    4  A    between atoms: N_10  and  C_11
REMARK    5  A    between atoms: N_10  and  C_22
REMARK    6  A    between atoms: C_11  and  C_12
REMARK    7  A    between atoms: C_15  and  C_18
REMARK    8  A    between atoms: C_22  and  C_23
REMARK    9  A    between atoms: C_25  and  C_28
REMARK   10  A    between atoms: N_30  and  C_31
REMARK   11  A    between atoms: C_31  and  C_32
REMARK   12  A    between atoms: C_32  and  N_33
REMARK   13  A    between atoms: N_33  and  C_34
REMARK   14  A    between atoms: N_33  and  C_35
REMARK                            x       y       z     vdW  Elec       q    Type
REMARK                         _______ _______ _______ _____ _____    ______ ____
ROOT
ATOM      1  N   UNL     1      -2.279  -0.484  -0.165  0.00  0.00    +0.393 N 
ATOM      2  H   UNL     1      -3.240  -0.182  -0.124  0.00  0.00    -0.080 HD
ENDROOT
BRANCH   1   4
ATOM      3  C   UNL     1      -1.412   1.598   0.789  0.00  0.00    -0.008 C 
ATOM      4  C   UNL     1      -1.538   0.084   0.969  0.00  0.00    -0.040 C 
BRANCH   4   5
ATOM      5  C   UNL     1      -2.277  -0.210   2.249  0.00  0.00    -0.061 A 
ATOM      6  C   UNL     1      -3.651  -0.067   2.303  0.00  0.00    +0.002 A 
ATOM      7  C   UNL     1      -4.329  -0.336   3.477  0.00  0.00    +0.000 A 
ATOM      8  C   UNL     1      -3.633  -0.750   4.597  0.00  0.00    +0.000 A 
ATOM      9  C   UNL     1      -2.260  -0.894   4.544  0.00  0.00    +0.000 A 
ATOM     10  C   UNL     1      -1.582  -0.629   3.368  0.00  0.00    +0.002 A 
ENDBRANCH   4   5
ENDBRANCH   1   4
BRANCH   1  11
ATOM     11  C   UNL     1      -1.675  -0.025  -1.423  0.00  0.00    -0.041 C 
BRANCH  11  12
ATOM     12  C   UNL     1      -2.094   1.397  -1.693  0.00  0.00    -0.064 A 
ATOM     13  C   UNL     1      -3.421   1.762  -1.564  0.00  0.00    +0.002 A 
ATOM     14  C   UNL     1      -3.807   3.066  -1.811  0.00  0.00    +0.012 A 
ATOM     15  C   UNL     1      -2.865   4.005  -2.187  0.00  0.00    +0.055 A 
ATOM     16  C   UNL     1      -1.537   3.640  -2.316  0.00  0.00    +0.012 A 
ATOM     17  C   UNL     1      -1.152   2.337  -2.064  0.00  0.00    +0.002 A 
BRANCH  15  18
ATOM     18  C   UNL     1      -3.284   5.427  -2.458  0.00  0.00    +0.417 C 
ATOM     19  F   UNL     1      -3.209   6.169  -1.274  0.00  0.00    -0.166 F 
ATOM     20  F   UNL     1      -2.434   5.990  -3.416  0.00  0.00    -0.166 F 
ATOM     21  F   UNL     1      -4.600   5.442  -2.935  0.00  0.00    -0.166 F 
ENDBRANCH  15  18
ENDBRANCH  11  12
ENDBRANCH   1  11
BRANCH   1  22
ATOM     22  C   UNL     1      -2.223  -1.951  -0.102  0.00  0.00    +0.020 C 
BRANCH  22  23
ATOM     23  C   UNL     1      -3.034  -2.434   1.073  0.00  0.00    +0.179 A 
ATOM     24  N   UNL     1      -4.325  -2.577   1.088  0.00  0.00    -0.210 NA
ATOM     25  C   UNL     1      -4.695  -3.031   2.316  0.00  0.00    +0.163 A 
ATOM     26  C   UNL     1      -3.558  -3.159   3.054  0.00  0.00    +0.230 A 
ATOM     27  O   UNL     1      -2.536  -2.788   2.266  0.00  0.00    -0.449 OA
BRANCH  25  28
ATOM     28  C   UNL     1      -6.067  -3.329   2.764  0.00  0.00    +0.265 C 
ATOM     29  O   UNL     1      -6.265  -3.732   3.894  0.00  0.00    -0.268 OA
ATOM     30  N   UNL     1      -7.104  -3.155   1.920  0.00  0.00    -0.312 N 
ATOM     31  H   UNL     1      -6.947  -2.834   1.018  0.00  0.00    +0.149 HD
BRANCH  30  32
ATOM     32  C   UNL     1      -8.468  -3.451   2.364  0.00  0.00    +0.086 C 
BRANCH  32  33
ATOM     33  C   UNL     1      -9.448  -3.171   1.224  0.00  0.00    -0.061 C 
BRANCH  33  34
ATOM     34  N   UNL     1     -10.816  -3.468   1.669  0.00  0.00    +0.377 N 
ATOM     35  C   UNL     1     -11.768  -3.086   0.617  0.00  0.00    -0.097 C 
ATOM     36  C   UNL     1     -10.941  -4.905   1.944  0.00  0.00    -0.097 C 
ATOM     37  H   UNL     1     -11.017  -2.946   2.509  0.00  0.00    -0.083 HD
ENDBRANCH  33  34
ENDBRANCH  32  33
ENDBRANCH  30  32
ENDBRANCH  25  28
ENDBRANCH  22  23
ENDBRANCH   1  22
TORSDOF 11
