REMARK  Name = ZINC38732553
REMARK  6 active torsions:
REMARK  status: ('A' for Active; 'I' for Inactive)
REMARK    1  A    between atoms: C_4  and  C_7
REMARK    2  A    between atoms: C_7  and  C_8
REMARK    3  A    between atoms: C_7  and  C_34
REMARK    4  A    between atoms: C_8  and  N_9
REMARK    5  A    between atoms: C_10  and  C_12
REMARK    6  A    between atoms: C_18  and  C_20
REMARK                            x       y       z     vdW  Elec       q    Type
REMARK                         _______ _______ _______ _____ _____    ______ ____
ROOT
ATOM      1  C   UNL     1       3.556  -0.121   4.781  0.00  0.00    +0.087 C 
ATOM      2  C   UNL     1       4.933   0.546   4.758  0.00  0.00    +0.013 C 
ATOM      3  C   UNL     1       5.092   1.429   5.998  0.00  0.00    +0.001 C 
ATOM      4  C   UNL     1       4.963   0.569   7.256  0.00  0.00    +0.001 C 
ATOM      5  C   UNL     1       3.587  -0.098   7.280  0.00  0.00    +0.013 C 
ATOM      6  C   UNL     1       3.427  -0.981   6.040  0.00  0.00    +0.087 C 
ENDROOT
BRANCH   6   7
ATOM      7  C   UNL     1       2.071  -1.638   6.063  0.00  0.00    +0.219 C 
ATOM      8  O   UNL     1       1.152  -1.155   5.435  0.00  0.00    -0.275 OA
ATOM      9  N   UNL     1       1.879  -2.762   6.781  0.00  0.00    -0.298 N 
ATOM     10  C   UNL     1       3.003  -3.409   7.472  0.00  0.00    +0.126 C 
ATOM     11  C   UNL     1       2.647  -3.554   8.957  0.00  0.00    +0.125 C 
ATOM     12  N   UNL     1       1.310  -4.155   9.063  0.00  0.00    -0.314 N 
ATOM     13  C   UNL     1       0.186  -3.508   8.371  0.00  0.00    +0.125 C 
ATOM     14  C   UNL     1       0.541  -3.360   6.891  0.00  0.00    +0.126 C 
ATOM     15  C   UNL     1       1.112  -5.315   9.803  0.00  0.00    +0.099 A 
ATOM     16  C   UNL     1       2.157  -5.838  10.557  0.00  0.00    +0.042 A 
ATOM     17  C   UNL     1       1.946  -6.992  11.289  0.00  0.00    +0.005 A 
ATOM     18  C   UNL     1       0.692  -7.587  11.242  0.00  0.00    +0.018 A 
ATOM     19  C   UNL     1      -0.300  -7.014  10.472  0.00  0.00    +0.084 A 
ATOM     20  N   UNL     1      -0.072  -5.908   9.788  0.00  0.00    -0.350 N 
ATOM     21  H   UNL     1      -0.787  -5.524   9.258  0.00  0.00    +0.166 HD
ENDBRANCH   6   7
BRANCH   1  23
ATOM     22  N   UNL     1       3.476  -0.445   2.330  0.00  0.00    -0.314 N 
ATOM     23  C   UNL     1       3.399  -0.990   3.561  0.00  0.00    +0.217 C 
ATOM     24  O   UNL     1       3.203  -2.181   3.685  0.00  0.00    -0.275 OA
ATOM     25  H   UNL     1       3.632   0.507   2.231  0.00  0.00    +0.149 HD
BRANCH  22  26
ATOM     26  C   UNL     1       3.323  -1.290   1.144  0.00  0.00    +0.117 C 
BRANCH  26  27
ATOM     27  C   UNL     1       3.452  -0.430  -0.115  0.00  0.00    +0.066 C 
BRANCH  27  31
ATOM     28  C   UNL     1       0.210   2.346  -0.283  0.00  0.00    +0.000 A 
ATOM     29  C   UNL     1       1.512   2.797  -0.395  0.00  0.00    +0.000 A 
ATOM     30  C   UNL     1       2.561   1.898  -0.341  0.00  0.00    +0.004 A 
ATOM     31  C   UNL     1       2.308   0.549  -0.173  0.00  0.00    -0.038 A 
ATOM     32  C   UNL     1       1.006   0.099  -0.060  0.00  0.00    +0.004 A 
ATOM     33  C   UNL     1      -0.043   0.998  -0.116  0.00  0.00    +0.000 A 
ENDBRANCH  27  31
BRANCH  27  34
ATOM     34  C   UNL     1       3.417  -1.316  -1.334  0.00  0.00    -0.038 A 
ATOM     35  C   UNL     1       2.390  -2.226  -1.498  0.00  0.00    +0.004 A 
ATOM     36  C   UNL     1       2.358  -3.038  -2.616  0.00  0.00    +0.000 A 
ATOM     37  C   UNL     1       3.354  -2.940  -3.570  0.00  0.00    +0.000 A 
ATOM     38  C   UNL     1       4.381  -2.029  -3.407  0.00  0.00    +0.000 A 
ATOM     39  C   UNL     1       4.410  -1.214  -2.291  0.00  0.00    +0.004 A 
ENDBRANCH  27  34
ENDBRANCH  26  27
ENDBRANCH  22  26
ENDBRANCH   1  23
TORSDOF 6
