REMARK  Name = ZINC14548531
REMARK  3 active torsions:
REMARK  status: ('A' for Active; 'I' for Inactive)
REMARK    1  A    between atoms: C_3  and  C_6
REMARK    2  A    between atoms: C_16  and  N_23
REMARK    3  A    between atoms: C_19  and  O_22
REMARK                            x       y       z     vdW  Elec       q    Type
REMARK                         _______ _______ _______ _____ _____    ______ ____
ROOT
ATOM      1  C   UNL     1       3.161   1.189  -0.105  0.00  0.00    +0.112 C 
ATOM      2  C   UNL     1       3.602   1.237   1.327  0.00  0.00    +0.029 C 
ATOM      3  C   UNL     1       4.531   2.434   1.614  0.00  0.00    +0.033 C 
ATOM      4  C   UNL     1       5.383   1.960   2.773  0.00  0.00    -0.030 C 
ATOM      5  C   UNL     1       5.333   0.658   2.888  0.00  0.00    -0.023 C 
ATOM      6  C   UNL     1       4.465   0.071   1.803  0.00  0.00    +0.051 C 
ATOM      7  C   UNL     1       5.366  -0.474   0.731  0.00  0.00    +0.014 A 
ATOM      8  C   UNL     1       6.404  -1.316   1.109  0.00  0.00    +0.132 A 
ATOM      9  C   UNL     1       7.266  -1.835   0.165  0.00  0.00    +0.037 A 
ATOM     10  C   UNL     1       7.105  -1.518  -1.172  0.00  0.00    +0.049 A 
ATOM     11  C   UNL     1       6.072  -0.683  -1.560  0.00  0.00    +0.138 A 
ATOM     12  C   UNL     1       5.196  -0.164  -0.604  0.00  0.00    +0.076 A 
ATOM     13  N   UNL     1       4.138   0.627  -1.015  0.00  0.00    -0.333 N 
ATOM     14  H   UNL     1       4.069   0.838  -1.960  0.00  0.00    +0.147 HD
ENDROOT
BRANCH   1  17
ATOM     15  C   UNL     1      -0.394  -0.165  -0.307  0.00  0.00    +0.008 A 
ATOM     16  C   UNL     1       0.612   0.780  -0.228  0.00  0.00    +0.013 A 
ATOM     17  C   UNL     1       1.902   0.365  -0.190  0.00  0.00    +0.010 A 
ATOM     18  S   UNL     1       1.722  -1.409  -0.267  0.00  0.00    -0.100 S 
ATOM     19  C   UNL     1      -0.061  -1.478  -0.344  0.00  0.00    +0.045 A 
ENDBRANCH   1  17
BRANCH   8  20
ATOM     20  N   UNL     1       6.587  -1.660   2.537  0.00  0.00    +0.057 N 
ATOM     21  O   UNL     1       7.698  -1.701   3.011  0.00  0.00    -0.126 OA
ATOM     22  O   UNL     1       5.625  -1.899   3.229  0.00  0.00    -0.126 OA
ENDBRANCH   8  20
BRANCH  11  23
ATOM     23  O   UNL     1       5.910  -0.367  -2.873  0.00  0.00    -0.505 OA
ATOM     24  H   UNL     1       5.336  -0.977  -3.356  0.00  0.00    +0.292 HD
ENDBRANCH  11  23
TORSDOF 3
