REMARK  Name = ZINC35947201
REMARK  10 active torsions:
REMARK  status: ('A' for Active; 'I' for Inactive)
REMARK    1  A    between atoms: C_1  and  C_2
REMARK    2  A    between atoms: C_2  and  C_3
REMARK    3  A    between atoms: C_2  and  C_4
REMARK    4  A    between atoms: C_2  and  N_5
REMARK    5  A    between atoms: N_8  and  C_9
REMARK    6  A    between atoms: N_8  and  C_10
REMARK    7  A    between atoms: C_10  and  C_11
REMARK    8  A    between atoms: C_14  and  C_26
REMARK    9  A    between atoms: C_17  and  C_19
REMARK   10  A    between atoms: C_30  and  N_32
REMARK                            x       y       z     vdW  Elec       q    Type
REMARK                         _______ _______ _______ _____ _____    ______ ____
ROOT
ATOM      1  C   UNL     1       4.909  -1.223  -2.162  0.00  0.00    +0.253 C 
ATOM      2  O   UNL     1       4.439  -2.176  -1.577  0.00  0.00    -0.272 OA
ATOM      3  N   UNL     1       6.246  -1.085  -2.261  0.00  0.00    -0.184 N 
ATOM      4  C   UNL     1       7.245  -2.016  -1.712  0.00  0.00    +0.137 C 
ATOM      5  C   UNL     1       8.591  -1.378  -2.112  0.00  0.00    +0.087 C 
ATOM      6  C   UNL     1       8.193  -0.126  -2.861  0.00  0.00    +0.069 C 
ATOM      7  N   UNL     1       6.908  -0.041  -2.904  0.00  0.00    -0.181 NA
ENDROOT
BRANCH   6   8
ATOM      8  C   UNL     1       9.130   0.844  -3.455  0.00  0.00    -0.002 A 
ATOM      9  C   UNL     1      10.509   0.639  -3.354  0.00  0.00    +0.012 A 
ATOM     10  C   UNL     1      11.381   1.550  -3.912  0.00  0.00    +0.039 A 
ATOM     11  C   UNL     1      10.892   2.667  -4.572  0.00  0.00    +0.123 A 
ATOM     12  C   UNL     1       9.526   2.875  -4.675  0.00  0.00    +0.039 A 
ATOM     13  C   UNL     1       8.644   1.968  -4.127  0.00  0.00    +0.012 A 
ATOM     14  F   UNL     1      11.751   3.556  -5.117  0.00  0.00    -0.205 F 
ENDBRANCH   6   8
BRANCH   4  15
ATOM     15  C   UNL     1       7.121  -2.104  -0.213  0.00  0.00    -0.023 A 
ATOM     16  C   UNL     1       6.834  -0.971   0.525  0.00  0.00    +0.005 A 
ATOM     17  C   UNL     1       6.720  -1.052   1.900  0.00  0.00    +0.003 A 
ATOM     18  C   UNL     1       6.892  -2.266   2.537  0.00  0.00    +0.033 A 
ATOM     19  C   UNL     1       7.178  -3.400   1.800  0.00  0.00    +0.127 A 
ATOM     20  C   UNL     1       7.288  -3.319   0.424  0.00  0.00    +0.038 A 
BRANCH  19  21
ATOM     21  N   UNL     1       7.363  -4.700   2.482  0.00  0.00    +0.056 N 
ATOM     22  O   UNL     1       7.264  -4.771   3.685  0.00  0.00    -0.126 OA
ATOM     23  O   UNL     1       7.613  -5.691   1.837  0.00  0.00    -0.126 OA
ENDBRANCH  19  21
ENDBRANCH   4  15
BRANCH   1  24
ATOM     24  C   UNL     1       3.998  -0.193  -2.779  0.00  0.00    +0.206 C 
BRANCH  24  28
ATOM     25  N   UNL     1       0.688  -0.476  -1.203  0.00  0.00    -0.294 N 
ATOM     26  C   UNL     1       1.972  -0.132  -1.427  0.00  0.00    +0.303 C 
ATOM     27  O   UNL     1       2.561   0.570  -0.628  0.00  0.00    -0.253 OA
ATOM     28  N   UNL     1       2.602  -0.567  -2.536  0.00  0.00    -0.280 N 
ATOM     29  C   UNL     1       1.893  -1.414  -3.498  0.00  0.00    +0.134 C 
ATOM     30  H   UNL     1       0.218  -1.037  -1.840  0.00  0.00    +0.151 HD
BRANCH  25  32
ATOM     31  C   UNL     1      -0.019   1.526   0.010  0.00  0.00    +0.031 C 
ATOM     32  C   UNL     1       0.002  -0.004   0.002  0.00  0.00    +0.028 C 
ATOM     33  C   UNL     1       0.742  -0.511   1.242  0.00  0.00    +0.031 C 
ATOM     34  C   UNL     1      -1.433  -0.534   0.013  0.00  0.00    +0.031 C 
ENDBRANCH  25  32
ENDBRANCH  24  28
ENDBRANCH   1  24
TORSDOF 6
