REMARK  Name = ZINC13027086
REMARK  6 active torsions:
REMARK  status: ('A' for Active; 'I' for Inactive)
REMARK    1  A    between atoms: C_6  and  C_7
REMARK    2  A    between atoms: C_7  and  C_9
REMARK    3  A    between atoms: C_7  and  N_18
REMARK    4  A    between atoms: N_11  and  C_12
REMARK    5  A    between atoms: N_18  and  C_19
REMARK    6  A    between atoms: C_24  and  C_26
REMARK                            x       y       z     vdW  Elec       q    Type
REMARK                         _______ _______ _______ _____ _____    ______ ____
ROOT
ATOM      1  C   UNL     1      -0.946   1.656   0.410  0.00  0.00    +0.193 C 
ENDROOT
BRANCH   1   7
ATOM      2  C   UNL     1      -1.510   4.092   0.302  0.00  0.00    +0.009 A 
ATOM      3  C   UNL     1      -1.586   5.292  -0.381  0.00  0.00    +0.038 A 
ATOM      4  C   UNL     1      -1.196   5.358  -1.708  0.00  0.00    +0.123 A 
ATOM      5  C   UNL     1      -0.725   4.224  -2.348  0.00  0.00    +0.038 A 
ATOM      6  C   UNL     1      -0.644   3.027  -1.661  0.00  0.00    +0.009 A 
ATOM      7  C   UNL     1      -1.034   2.962  -0.337  0.00  0.00    -0.018 A 
ATOM      8  F   UNL     1      -1.276   6.529  -2.378  0.00  0.00    -0.205 F 
ENDBRANCH   1   7
BRANCH   1   9
ATOM      9  C   UNL     1       0.502   1.304   0.636  0.00  0.00    +0.238 C 
ATOM     10  O   UNL     1       0.952   0.271   0.186  0.00  0.00    -0.273 OA
ATOM     11  N   UNL     1       1.298   2.138   1.334  0.00  0.00    -0.311 N 
ATOM     12  H   UNL     1       0.938   2.963   1.695  0.00  0.00    +0.149 HD
BRANCH  11  13
ATOM     13  C   UNL     1       2.706   1.798   1.549  0.00  0.00    +0.073 C 
ATOM     14  C   UNL     1       2.831   0.889   2.774  0.00  0.00    +0.022 C 
ATOM     15  C   UNL     1       4.302   0.534   2.998  0.00  0.00    +0.002 C 
ATOM     16  C   UNL     1       5.107   1.815   3.228  0.00  0.00    +0.000 C 
ATOM     17  C   UNL     1       4.982   2.723   2.003  0.00  0.00    +0.002 C 
ATOM     18  C   UNL     1       3.511   3.079   1.780  0.00  0.00    +0.022 C 
ENDBRANCH  11  13
ENDBRANCH   1   9
BRANCH   1  19
ATOM     19  N   UNL     1      -1.589   0.600  -0.375  0.00  0.00    -0.278 N 
ATOM     20  C   UNL     1      -2.816   0.158  -0.034  0.00  0.00    +0.268 C 
ATOM     21  O   UNL     1      -3.307  -0.787  -0.620  0.00  0.00    -0.268 OA
BRANCH  20  22
ATOM     22  C   UNL     1      -3.564   0.823   1.052  0.00  0.00    +0.154 A 
ATOM     23  C   UNL     1      -4.558   0.149   1.760  0.00  0.00    +0.098 A 
ATOM     24  C   UNL     1      -5.141   0.911   2.723  0.00  0.00    +0.117 A 
ATOM     25  S   UNL     1      -4.300   2.413   2.565  0.00  0.00    +0.026 S 
ATOM     26  N   UNL     1      -3.311   2.069   1.388  0.00  0.00    -0.203 NA
ATOM     27 CL   UNL     1      -6.408   0.484   3.831  0.00  0.00    -0.073 Cl
ATOM     28 CL   UNL     1      -5.006  -1.498   1.444  0.00  0.00    -0.079 Cl
ENDBRANCH  20  22
BRANCH  19  29
ATOM     29  C   UNL     1      -0.899   0.024  -1.532  0.00  0.00    +0.078 C 
ATOM     30  C   UNL     1      -1.707   0.293  -2.818  0.00  0.00    +0.022 C 
ATOM     31  C   UNL     1      -1.526  -0.998  -3.656  0.00  0.00    +0.002 C 
ATOM     32  C   UNL     1      -1.560  -2.113  -2.582  0.00  0.00    +0.002 C 
ATOM     33  C   UNL     1      -0.805  -1.505  -1.382  0.00  0.00    +0.022 C 
ENDBRANCH  19  29
ENDBRANCH   1  19
TORSDOF 6
