REMARK  Name = ZINC44935451
REMARK  8 active torsions:
REMARK  status: ('A' for Active; 'I' for Inactive)
REMARK    1  A    between atoms: C_1  and  C_2
REMARK    2  A    between atoms: C_2  and  C_4
REMARK    3  A    between atoms: C_2  and  N_9
REMARK    4  A    between atoms: N_12  and  C_13
REMARK    5  A    between atoms: N_12  and  C_17
REMARK    6  A    between atoms: C_13  and  C_14
REMARK    7  A    between atoms: C_17  and  C_18
REMARK    8  A    between atoms: C_17  and  C_19
REMARK                            x       y       z     vdW  Elec       q    Type
REMARK                         _______ _______ _______ _____ _____    ______ ____
ROOT
ATOM      1  N   UNL     1      -1.260  -0.330   2.431  0.00  0.00    -0.290 N 
ATOM      2  C   UNL     1       0.052  -0.630   2.356  0.00  0.00    +0.303 C 
ATOM      3  O   UNL     1       0.626  -0.582   1.286  0.00  0.00    -0.253 OA
ATOM      4  N   UNL     1       0.727  -0.983   3.468  0.00  0.00    -0.272 N 
ATOM      5  H   UNL     1      -1.736  -0.441   3.269  0.00  0.00    +0.151 HD
ENDROOT
BRANCH   4   6
ATOM      6  C   UNL     1       2.173  -1.205   3.408  0.00  0.00    +0.072 C 
ATOM      7  C   UNL     1       2.869  -0.317   4.441  0.00  0.00    +0.028 C 
ATOM      8  C   UNL     1       2.477  -2.674   3.710  0.00  0.00    +0.028 C 
ENDBRANCH   4   6
BRANCH   1  10
ATOM      9  C   UNL     1      -2.437  -1.025   0.402  0.00  0.00    +0.036 C 
ATOM     10  C   UNL     1      -1.968   0.162   1.246  0.00  0.00    +0.143 C 
BRANCH  10  11
ATOM     11  C   UNL     1      -3.161   0.976   1.675  0.00  0.00    +0.197 A 
ATOM     12  N   UNL     1      -3.536   2.147   1.184  0.00  0.00    -0.109 NA
ATOM     13  N   UNL     1      -4.601   2.511   1.814  0.00  0.00    -0.021 NA
ATOM     14  N   UNL     1      -4.904   1.609   2.681  0.00  0.00    -0.021 NA
ATOM     15  N   UNL     1      -4.040   0.655   2.614  0.00  0.00    -0.109 NA
ENDBRANCH  10  11
ENDBRANCH   1  10
BRANCH   4  16
ATOM     16  C   UNL     1       0.013  -1.145   4.737  0.00  0.00    +0.234 C 
BRANCH  16  17
ATOM     17  C   UNL     1      -0.454  -2.571   4.873  0.00  0.00    +0.373 C 
ATOM     18  O   UNL     1      -0.214  -3.378   3.991  0.00  0.00    -0.245 OA
ATOM     19  O   UNL     1      -1.073  -2.918   5.864  0.00  0.00    -0.245 OA
ENDBRANCH  16  17
ENDBRANCH   4  16
TORSDOF 5
