REMARK  Name = ZINC35938502
REMARK  6 active torsions:
REMARK  status: ('A' for Active; 'I' for Inactive)
REMARK    1  A    between atoms: C_1  and  C_2
REMARK    2  A    between atoms: C_7  and  C_8
REMARK    3  A    between atoms: N_17  and  C_18
REMARK    4  A    between atoms: C_18  and  C_19
REMARK    5  A    between atoms: C_25  and  C_28
REMARK    6  A    between atoms: C_29  and  C_31
REMARK                            x       y       z     vdW  Elec       q    Type
REMARK                         _______ _______ _______ _____ _____    ______ ____
ROOT
ATOM      1  C   UNL     1      -1.747  -1.696   5.040  0.00  0.00    +0.199 C 
ATOM      2  O   UNL     1      -0.832  -1.970   5.786  0.00  0.00    -0.278 OA
ATOM      3  N   UNL     1      -2.869  -2.443   5.047  0.00  0.00    -0.300 N 
ATOM      4  C   UNL     1      -3.984  -2.126   4.143  0.00  0.00    +0.126 C 
ATOM      5  C   UNL     1      -5.257  -1.945   4.980  0.00  0.00    +0.127 C 
ATOM      6  N   UNL     1      -5.386  -3.091   5.891  0.00  0.00    -0.292 N 
ATOM      7  C   UNL     1      -4.271  -3.408   6.794  0.00  0.00    +0.091 C 
ATOM      8  C   UNL     1      -2.997  -3.592   5.953  0.00  0.00    +0.130 C 
ATOM      9  C   UNL     1      -4.077  -2.264   7.791  0.00  0.00    +0.029 C 
ATOM     10  C   UNL     1      -6.508  -3.838   5.898  0.00  0.00    +0.248 C 
ATOM     11  O   UNL     1      -6.634  -4.739   6.705  0.00  0.00    -0.270 OA
ENDROOT
BRANCH  10  12
ATOM     12  C   UNL     1      -7.583  -3.564   4.926  0.00  0.00    +0.045 A 
ATOM     13  C   UNL     1      -8.130  -2.293   4.826  0.00  0.00    +0.014 A 
ATOM     14  C   UNL     1      -9.142  -2.028   3.912  0.00  0.00    +0.001 A 
ATOM     15  C   UNL     1      -9.626  -3.003   3.092  0.00  0.00    +0.008 A 
ATOM     16  C   UNL     1      -9.101  -4.306   3.159  0.00  0.00    -0.017 A 
ATOM     17  C   UNL     1      -8.065  -4.594   4.080  0.00  0.00    -0.006 A 
ATOM     18  C   UNL     1      -7.539  -5.891   4.142  0.00  0.00    +0.009 A 
ATOM     19  C   UNL     1      -8.026  -6.857   3.314  0.00  0.00    +0.001 A 
ATOM     20  C   UNL     1      -9.041  -6.575   2.404  0.00  0.00    +0.001 A 
ATOM     21  C   UNL     1      -9.584  -5.328   2.324  0.00  0.00    +0.008 A 
ENDBRANCH  10  12
BRANCH   1  22
ATOM     22  C   UNL     1      -1.631  -0.520   4.105  0.00  0.00    +0.020 C 
BRANCH  22  31
ATOM     23  C   UNL     1      -0.168   1.193   3.295  0.00  0.00    -0.005 C 
ATOM     24  C   UNL     1       1.145   1.924   3.558  0.00  0.00    -0.047 A 
ATOM     25  C   UNL     1       1.801   2.712   2.616  0.00  0.00    +0.010 A 
ATOM     26  C   UNL     1       2.966   3.323   2.937  0.00  0.00    +0.045 A 
ATOM     27  S   UNL     1       3.201   2.802   4.630  0.00  0.00    -0.101 S 
ATOM     28  C   UNL     1       1.738   1.818   4.781  0.00  0.00    -0.010 A 
ATOM     29  C   UNL     1       1.227   1.040   5.949  0.00  0.00    +0.024 C 
ATOM     30  C   UNL     1      -0.235   0.664   5.653  0.00  0.00    -0.072 C 
ATOM     31  N   UNL     1      -0.324   0.125   4.289  0.00  0.00    +0.393 N 
ATOM     32  H   UNL     1       0.405  -0.560   4.157  0.00  0.00    -0.080 HD
BRANCH  23  39
ATOM     33  C   UNL     1      -1.125   2.730   1.043  0.00  0.00    +0.044 C 
ATOM     34  C   UNL     1      -0.603   1.332   0.834  0.00  0.00    -0.049 A 
ATOM     35  C   UNL     1      -0.577   0.787  -0.436  0.00  0.00    +0.003 A 
ATOM     36  C   UNL     1      -0.099  -0.496  -0.628  0.00  0.00    +0.000 A 
ATOM     37  C   UNL     1       0.355  -1.233   0.450  0.00  0.00    +0.000 A 
ATOM     38  C   UNL     1       0.330  -0.688   1.719  0.00  0.00    +0.002 A 
ATOM     39  C   UNL     1      -0.145   0.597   1.911  0.00  0.00    -0.054 A 
ENDBRANCH  23  39
ENDBRANCH  22  31
ENDBRANCH   1  22
TORSDOF 4
