REMARK  Name = ZINC12972607
REMARK  6 active torsions:
REMARK  status: ('A' for Active; 'I' for Inactive)
REMARK    1  A    between atoms: C_4  and  C_7
REMARK    2  A    between atoms: C_7  and  C_9
REMARK    3  A    between atoms: C_7  and  S_15
REMARK    4  A    between atoms: N_11  and  C_12
REMARK    5  A    between atoms: S_15  and  C_16
REMARK    6  A    between atoms: N_26  and  C_27
REMARK                            x       y       z     vdW  Elec       q    Type
REMARK                         _______ _______ _______ _____ _____    ______ ____
ROOT
ATOM      1  C   UNL     1      -3.008   0.686   1.207  0.00  0.00    +0.178 A 
ATOM      2  N   UNL     1      -4.133   0.018   1.283  0.00  0.00    -0.223 NA
ATOM      3  C   UNL     1      -4.801  -0.369   0.178  0.00  0.00    +0.079 A 
ATOM      4  C   UNL     1      -6.001  -1.082   0.259  0.00  0.00    +0.028 A 
ATOM      5  C   UNL     1      -6.645  -1.455  -0.886  0.00  0.00    +0.002 A 
ATOM      6  C   UNL     1      -6.125  -1.136  -2.135  0.00  0.00    +0.001 A 
ATOM      7  C   UNL     1      -4.954  -0.440  -2.247  0.00  0.00    +0.015 A 
ATOM      8  C   UNL     1      -4.275  -0.047  -1.094  0.00  0.00    +0.065 A 
ATOM      9  C   UNL     1      -3.016   0.707  -1.155  0.00  0.00    +0.267 A 
ATOM     10  O   UNL     1      -2.517   1.018  -2.220  0.00  0.00    -0.267 OA
ATOM     11  N   UNL     1      -2.429   1.039   0.019  0.00  0.00    -0.253 N 
ENDROOT
BRANCH  11  12
ATOM     12  C   UNL     1      -1.224   1.754   0.017  0.00  0.00    +0.087 A 
ATOM     13  C   UNL     1      -0.013   1.076   0.008  0.00  0.00    +0.029 A 
ATOM     14  C   UNL     1       1.174   1.783   0.000  0.00  0.00    +0.002 A 
ATOM     15  C   UNL     1       1.157   3.166   0.008  0.00  0.00    +0.003 A 
ATOM     16  C   UNL     1      -0.046   3.846   0.023  0.00  0.00    +0.040 A 
ATOM     17  C   UNL     1      -1.238   3.144   0.030  0.00  0.00    +0.147 A 
ATOM     18  F   UNL     1      -2.414   3.808   0.044  0.00  0.00    -0.203 F 
ENDBRANCH  11  12
BRANCH   1  19
ATOM     19  S   UNL     1      -2.204   1.150   2.704  0.00  0.00    -0.070 S 
BRANCH  19  20
ATOM     20  C   UNL     1      -3.360   0.455   3.911  0.00  0.00    +0.170 C 
BRANCH  20  24
ATOM     21  C   UNL     1      -7.112   2.475   3.618  0.00  0.00    +0.000 A 
ATOM     22  C   UNL     1      -7.042   1.112   3.399  0.00  0.00    +0.000 A 
ATOM     23  C   UNL     1      -5.828   0.458   3.494  0.00  0.00    +0.005 A 
ATOM     24  C   UNL     1      -4.683   1.167   3.807  0.00  0.00    -0.025 A 
ATOM     25  C   UNL     1      -4.754   2.530   4.031  0.00  0.00    +0.005 A 
ATOM     26  C   UNL     1      -5.968   3.184   3.932  0.00  0.00    +0.000 A 
ENDBRANCH  20  24
BRANCH  20  27
ATOM     27  C   UNL     1      -2.802   0.630   5.300  0.00  0.00    +0.231 C 
ATOM     28  O   UNL     1      -2.011   1.521   5.528  0.00  0.00    -0.274 OA
ATOM     29  N   UNL     1      -3.182  -0.204   6.289  0.00  0.00    -0.311 N 
ATOM     30  H   UNL     1      -3.814  -0.916   6.106  0.00  0.00    +0.149 HD
BRANCH  29  31
ATOM     31  C   UNL     1      -2.639  -0.033   7.639  0.00  0.00    +0.073 C 
ATOM     32  C   UNL     1      -2.199  -1.293   8.387  0.00  0.00    +0.024 C 
ATOM     33  C   UNL     1      -3.475  -0.560   8.807  0.00  0.00    +0.024 C 
ENDBRANCH  29  31
ENDBRANCH  20  27
ENDBRANCH  19  20
ENDBRANCH   1  19
TORSDOF 6
