REMARK  Name = ZINC32985211
REMARK  5 active torsions:
REMARK  status: ('A' for Active; 'I' for Inactive)
REMARK    1  A    between atoms: C_5  and  N_7
REMARK    2  A    between atoms: C_15  and  C_32
REMARK    3  A    between atoms: C_18  and  N_23
REMARK    4  A    between atoms: N_23  and  S_24
REMARK    5  A    between atoms: S_24  and  C_27
REMARK                            x       y       z     vdW  Elec       q    Type
REMARK                         _______ _______ _______ _____ _____    ______ ____
ROOT
ATOM      1  N   UNL     1      -8.908  -3.860   3.920  0.00  0.00    -0.325 N 
ATOM      2  C   UNL     1      -9.145  -2.598   3.206  0.00  0.00    +0.124 C 
ATOM      3  C   UNL     1      -7.802  -1.935   2.887  0.00  0.00    +0.125 C 
ATOM      4  N   UNL     1      -7.066  -1.700   4.137  0.00  0.00    -0.314 N 
ATOM      5  C   UNL     1      -6.829  -2.962   4.851  0.00  0.00    +0.125 C 
ATOM      6  C   UNL     1      -8.172  -3.625   5.170  0.00  0.00    +0.124 C 
ATOM      7  C   UNL     1      -5.872  -1.034   3.893  0.00  0.00    +0.100 A 
ATOM      8  C   UNL     1      -5.038  -0.726   4.976  0.00  0.00    +0.057 A 
ATOM      9  C   UNL     1      -3.841  -0.061   4.746  0.00  0.00    +0.075 A 
ATOM     10  C   UNL     1      -3.519   0.283   3.360  0.00  0.00    +0.014 A 
ATOM     11  C   UNL     1      -2.337   0.952   3.031  0.00  0.00    +0.037 A 
ATOM     12  C   UNL     1      -2.074   1.255   1.710  0.00  0.00    +0.075 A 
ATOM     13  C   UNL     1      -2.984   0.903   0.706  0.00  0.00    +0.029 A 
ATOM     14  C   UNL     1      -4.137   0.248   1.004  0.00  0.00    +0.028 A 
ATOM     15  C   UNL     1      -4.435  -0.077   2.341  0.00  0.00    +0.049 A 
ATOM     16  N   UNL     1      -5.565  -0.717   2.656  0.00  0.00    -0.343 N 
ATOM     17  H   UNL     1      -6.249  -0.979   1.835  0.00  0.00    +0.167 HD
ENDROOT
BRANCH   1  22
ATOM     18  C   UNL     1     -12.107  -5.579   3.351  0.00  0.00    +0.002 A 
ATOM     19  C   UNL     1     -12.492  -5.856   4.650  0.00  0.00    +0.003 A 
ATOM     20  C   UNL     1     -11.689  -5.472   5.709  0.00  0.00    +0.040 A 
ATOM     21  C   UNL     1     -10.499  -4.809   5.471  0.00  0.00    +0.144 A 
ATOM     22  C   UNL     1     -10.110  -4.530   4.165  0.00  0.00    +0.065 A 
ATOM     23  C   UNL     1     -10.922  -4.914   3.106  0.00  0.00    +0.026 A 
ATOM     24  F   UNL     1      -9.716  -4.433   6.505  0.00  0.00    -0.204 F 
ENDBRANCH   1  22
BRANCH   9  25
ATOM     25  C   UNL     1      -2.930   0.286   5.856  0.00  0.00    +0.387 C 
ATOM     26  O   UNL     1      -1.843   0.773   5.619  0.00  0.00    -0.241 OA
ATOM     27  O   UNL     1      -3.304   0.061   7.130  0.00  0.00    -0.241 OA
ENDBRANCH   9  25
BRANCH  12  28
ATOM     28  N   UNL     1      -0.896   1.923   1.374  0.00  0.00    -0.097 NA
BRANCH  28  29
ATOM     29  S   UNL     1       0.355   1.095   0.673  0.00  0.00    +0.098 S 
ATOM     30  O   UNL     1       1.411   2.029   0.493  0.00  0.00    -0.148 OA
ATOM     31  O   UNL     1      -0.202   0.357  -0.407  0.00  0.00    -0.148 OA
BRANCH  29  32
ATOM     32  C   UNL     1       0.922  -0.087   1.850  0.00  0.00    +0.148 A 
ATOM     33  C   UNL     1       0.460  -1.337   2.095  0.00  0.00    +0.037 A 
ATOM     34  C   UNL     1       1.067  -2.095   3.079  0.00  0.00    +0.010 A 
ATOM     35  C   UNL     1       2.106  -1.566   3.769  0.00  0.00    +0.047 A 
ATOM     36  S   UNL     1       2.260   0.049   3.025  0.00  0.00    -0.077 S 
ENDBRANCH  29  32
ENDBRANCH  28  29
ENDBRANCH  12  28
TORSDOF 5
