REMARK  Name = ZINC16259234
REMARK  10 active torsions:
REMARK  status: ('A' for Active; 'I' for Inactive)
REMARK    1  A    between atoms: C_1  and  N_59
REMARK    2  A    between atoms: C_2  and  N_59
REMARK    3  A    between atoms: C_3  and  C_5
REMARK    4  A    between atoms: C_3  and  C_26
REMARK    5  A    between atoms: C_3  and  N_59
REMARK    6  A    between atoms: C_5  and  N_6
REMARK    7  A    between atoms: C_7  and  C_9
REMARK    8  A    between atoms: N_12  and  S_15
REMARK    9  A    between atoms: S_15  and  C_18
REMARK   10  A    between atoms: C_21  and  C_24
REMARK                            x       y       z     vdW  Elec       q    Type
REMARK                         _______ _______ _______ _____ _____    ______ ____
ROOT
ATOM      1  N   UNL     1       0.453  -0.797   0.626  0.00  0.00    -0.316 N 
ATOM      2  C   UNL     1       0.362  -1.956  -0.055  0.00  0.00    +0.216 C 
ATOM      3  O   UNL     1      -0.306  -2.868   0.385  0.00  0.00    -0.276 OA
ATOM      4  H   UNL     1       0.988  -0.069   0.274  0.00  0.00    +0.149 HD
ENDROOT
BRANCH   2   5
ATOM      5  C   UNL     1       1.091  -2.121  -1.364  0.00  0.00    +0.077 C 
ATOM      6  C   UNL     1       0.598  -1.066  -2.358  0.00  0.00    +0.030 C 
ATOM      7  C   UNL     1       1.366  -1.214  -3.675  0.00  0.00    +0.110 C 
ATOM      8  N   UNL     1       1.231  -2.599  -4.148  0.00  0.00    -0.177 NA
ATOM      9  C   UNL     1       1.592  -3.694  -3.238  0.00  0.00    +0.110 C 
ATOM     10  C   UNL     1       0.822  -3.519  -1.926  0.00  0.00    +0.030 C 
BRANCH   8  11
ATOM     11  S   UNL     1       0.684  -2.918  -5.678  0.00  0.00    +0.061 S 
ATOM     12  O   UNL     1       0.955  -1.761  -6.457  0.00  0.00    -0.153 OA
ATOM     13  O   UNL     1       1.179  -4.204  -6.026  0.00  0.00    -0.153 OA
BRANCH  11  14
ATOM     14  C   UNL     1      -1.070  -3.062  -5.585  0.00  0.00    +0.106 A 
ATOM     15  C   UNL     1      -1.648  -4.296  -5.346  0.00  0.00    +0.030 A 
ATOM     16  C   UNL     1      -3.020  -4.415  -5.267  0.00  0.00    +0.021 A 
ATOM     17  C   UNL     1      -3.826  -3.288  -5.438  0.00  0.00    +0.052 A 
ATOM     18  C   UNL     1      -3.236  -2.046  -5.684  0.00  0.00    +0.021 A 
ATOM     19  C   UNL     1      -1.863  -1.941  -5.755  0.00  0.00    +0.030 A 
BRANCH  17  20
ATOM     20  C   UNL     1      -5.252  -3.405  -5.362  0.00  0.00    +0.099 C 
ATOM     21  N   UNL     1      -6.382  -3.498  -5.302  0.00  0.00    -0.191 NA
ENDBRANCH  17  20
ENDBRANCH  11  14
ENDBRANCH   8  11
ENDBRANCH   2   5
BRANCH   1  22
ATOM     22  C   UNL     1      -0.255  -0.638   1.899  0.00  0.00    +0.093 C 
BRANCH  22  23
ATOM     23  C   UNL     1      -0.148   0.816   2.363  0.00  0.00    -0.017 C 
BRANCH  23  24
ATOM     24  C   UNL     1      -0.519   0.906   3.821  0.00  0.00    -0.006 A 
ATOM     25  C   UNL     1       0.455   1.169   4.769  0.00  0.00    +0.126 A 
ATOM     26  C   UNL     1       0.113   1.252   6.108  0.00  0.00    +0.038 A 
ATOM     27  C   UNL     1      -1.201   1.073   6.497  0.00  0.00    +0.004 A 
ATOM     28  C   UNL     1      -2.174   0.811   5.551  0.00  0.00    +0.020 A 
ATOM     29  C   UNL     1      -1.834   0.733   4.212  0.00  0.00    +0.045 A 
ATOM     30 CL   UNL     1      -3.058   0.410   3.024  0.00  0.00    -0.083 Cl
ATOM     31  F   UNL     1       1.740   1.345   4.387  0.00  0.00    -0.205 F 
ENDBRANCH  23  24
BRANCH  23  34
ATOM     32  C   UNL     1      -0.606   1.759   0.180  0.00  0.00    -0.096 C 
ATOM     33  C   UNL     1      -1.219   2.980   2.179  0.00  0.00    -0.096 C 
ATOM     34  N   UNL     1      -1.088   1.639   1.572  0.00  0.00    +0.382 N 
ATOM     35  H   UNL     1      -2.008   1.183   1.569  0.00  0.00    -0.082 HD
ENDBRANCH  23  34
ENDBRANCH  22  23
ENDBRANCH   1  22
TORSDOF 8
