REMARK  Name = ZINC19315232
REMARK  9 active torsions:
REMARK  status: ('A' for Active; 'I' for Inactive)
REMARK    1  A    between atoms: C_1  and  C_2
REMARK    2  A    between atoms: C_3  and  C_24
REMARK    3  A    between atoms: C_4  and  C_16
REMARK    4  A    between atoms: C_10  and  C_14
REMARK    5  A    between atoms: C_10  and  C_15
REMARK    6  A    between atoms: C_19  and  O_22
REMARK    7  A    between atoms: O_22  and  C_23
REMARK    8  A    between atoms: C_24  and  O_26
REMARK    9  A    between atoms: O_26  and  C_27
REMARK                            x       y       z     vdW  Elec       q    Type
REMARK                         _______ _______ _______ _____ _____    ______ ____
ROOT
ATOM      1  C   UNL     1      -2.486  -2.761   0.813  0.00  0.00    +0.061 C 
ATOM      2  C   UNL     1      -1.213  -2.071   0.396  0.00  0.00    +0.016 C 
ATOM      3  C   UNL     1      -0.226  -2.780  -0.177  0.00  0.00    +0.065 C 
ATOM      4  C   UNL     1       1.059  -2.129  -0.597  0.00  0.00    +0.092 C 
ATOM      5  C   UNL     1       0.902  -0.632  -0.691  0.00  0.00    +0.024 C 
ATOM      6  C   UNL     1      -0.137  -0.009  -0.095  0.00  0.00    +0.016 C 
ATOM      7  N   UNL     1      -1.070  -0.727   0.604  0.00  0.00    -0.321 N 
ATOM      8  C   UNL     1      -0.301   1.488  -0.186  0.00  0.00    +0.058 C 
ATOM      9  C   UNL     1       1.075   2.150  -0.291  0.00  0.00    -0.023 C 
ATOM     10  C   UNL     1       1.789   1.591  -1.526  0.00  0.00    +0.086 C 
ATOM     11  C   UNL     1       1.867   0.093  -1.411  0.00  0.00    +0.162 C 
ATOM     12  O   UNL     1       2.780  -0.500  -1.950  0.00  0.00    -0.292 OA
ATOM     13  C   UNL     1       0.907   3.664  -0.435  0.00  0.00    +0.011 C 
ATOM     14  C   UNL     1       1.893   1.836   0.963  0.00  0.00    +0.011 C 
ATOM     15  H   UNL     1      -1.707  -0.213   1.339  0.00  0.00    +0.152 HD
ENDROOT
BRANCH   4  16
ATOM     16  C   UNL     1       2.130  -2.451   0.414  0.00  0.00    -0.035 A 
ATOM     17  C   UNL     1       1.988  -2.037   1.725  0.00  0.00    +0.008 A 
ATOM     18  C   UNL     1       2.965  -2.335   2.655  0.00  0.00    +0.046 A 
ATOM     19  C   UNL     1       4.095  -3.042   2.269  0.00  0.00    +0.120 A 
ATOM     20  C   UNL     1       4.238  -3.452   0.951  0.00  0.00    +0.046 A 
ATOM     21  C   UNL     1       3.255  -3.156   0.027  0.00  0.00    +0.008 A 
BRANCH  19  22
ATOM     22  O   UNL     1       5.061  -3.331   3.180  0.00  0.00    -0.495 OA
ATOM     23  C   UNL     1       4.848  -2.878   4.518  0.00  0.00    +0.277 C 
ENDBRANCH  19  22
ENDBRANCH   4  16
BRANCH   3  24
ATOM     24  C   UNL     1      -0.402  -4.168  -0.389  0.00  0.00    +0.337 C 
ATOM     25  O   UNL     1      -0.613  -4.590  -1.511  0.00  0.00    -0.245 OA
BRANCH  24  26
ATOM     26  O   UNL     1      -0.336  -5.023   0.653  0.00  0.00    -0.465 OA
ATOM     27  C   UNL     1      -0.523  -6.410   0.366  0.00  0.00    +0.280 C 
ENDBRANCH  24  26
ENDBRANCH   3  24
TORSDOF 4
