REMARK  Name = ZINC01823206
REMARK  11 active torsions:
REMARK  status: ('A' for Active; 'I' for Inactive)
REMARK    1  A    between atoms: C_1  and  C_2
REMARK    2  A    between atoms: C_2  and  O_3
REMARK    3  A    between atoms: O_3  and  C_4
REMARK    4  A    between atoms: C_4  and  C_6
REMARK    5  A    between atoms: C_7  and  C_36
REMARK    6  A    between atoms: C_8  and  C_35
REMARK    7  A    between atoms: C_10  and  N_11
REMARK    8  A    between atoms: C_12  and  C_14
REMARK    9  A    between atoms: C_14  and  S_15
REMARK   10  A    between atoms: S_15  and  C_16
REMARK   11  A    between atoms: N_28  and  C_29
REMARK                            x       y       z     vdW  Elec       q    Type
REMARK                         _______ _______ _______ _____ _____    ______ ____
ROOT
ATOM      1  C   UNL     1      -4.737  -2.248  -7.611  0.00  0.00    +0.178 A 
ATOM      2  N   UNL     1      -5.420  -1.739  -6.606  0.00  0.00    -0.215 NA
ATOM      3  C   UNL     1      -6.674  -2.112  -6.379  0.00  0.00    +0.117 A 
ATOM      4  C   UNL     1      -7.329  -3.055  -7.184  0.00  0.00    +0.076 A 
ATOM      5  C   UNL     1      -8.718  -3.370  -6.810  0.00  0.00    -0.023 A 
ATOM      6  C   UNL     1      -9.220  -2.728  -5.744  0.00  0.00    -0.004 A 
ATOM      7  S   UNL     1      -7.901  -1.682  -5.173  0.00  0.00    -0.073 S 
ATOM      8  C   UNL     1     -10.644  -3.125  -5.460  0.00  0.00    +0.043 C 
ATOM      9  C   UNL     1     -11.125  -3.800  -6.763  0.00  0.00    +0.010 C 
ATOM     10  C   UNL     1      -9.798  -4.305  -7.362  0.00  0.00    +0.037 C 
ATOM     11  C   UNL     1      -6.567  -3.592  -8.269  0.00  0.00    +0.268 A 
ATOM     12  O   UNL     1      -7.057  -4.418  -9.020  0.00  0.00    -0.267 OA
ATOM     13  N   UNL     1      -5.302  -3.169  -8.449  0.00  0.00    -0.255 N 
ENDROOT
BRANCH  13  14
ATOM     14  C   UNL     1      -4.548  -3.686  -9.511  0.00  0.00    +0.052 A 
ATOM     15  C   UNL     1      -4.566  -3.055 -10.748  0.00  0.00    +0.026 A 
ATOM     16  C   UNL     1      -3.822  -3.567 -11.793  0.00  0.00    +0.002 A 
ATOM     17  C   UNL     1      -3.061  -4.706 -11.609  0.00  0.00    +0.000 A 
ATOM     18  C   UNL     1      -3.041  -5.336 -10.379  0.00  0.00    +0.002 A 
ATOM     19  C   UNL     1      -3.778  -4.826  -9.328  0.00  0.00    +0.026 A 
ENDBRANCH  13  14
BRANCH   1  20
ATOM     20  S   UNL     1      -3.075  -1.730  -7.884  0.00  0.00    -0.078 S 
BRANCH  20  21
ATOM     21  C   UNL     1      -2.766  -0.532  -6.558  0.00  0.00    +0.173 C 
BRANCH  21  23
ATOM     22  N   UNL     1      -0.905   0.907  -5.792  0.00  0.00    -0.279 N 
ATOM     23  C   UNL     1      -1.360  -0.003  -6.677  0.00  0.00    +0.228 C 
ATOM     24  O   UNL     1      -0.637  -0.396  -7.568  0.00  0.00    -0.275 OA
ATOM     25  H   UNL     1      -1.482   1.221  -5.079  0.00  0.00    +0.155 HD
BRANCH  22  30
ATOM     26  C   UNL     1       1.022   2.324  -5.089  0.00  0.00    +0.091 A 
ATOM     27  C   UNL     1       2.389   2.651  -5.426  0.00  0.00    -0.025 A 
ATOM     28  C   UNL     1       2.896   2.017  -6.499  0.00  0.00    -0.008 A 
ATOM     29  S   UNL     1       1.548   0.993  -7.047  0.00  0.00    -0.078 S 
ATOM     30  C   UNL     1       0.389   1.393  -5.901  0.00  0.00    +0.086 A 
ATOM     31  C   UNL     1       4.275   2.143  -7.095  0.00  0.00    +0.052 C 
ATOM     32  C   UNL     1       3.196   3.640  -4.626  0.00  0.00    +0.045 C 
BRANCH  26  33
ATOM     33  C   UNL     1       0.342   2.938  -3.947  0.00  0.00    +0.342 C 
ATOM     34  O   UNL     1       0.404   2.416  -2.850  0.00  0.00    -0.245 OA
BRANCH  33  35
ATOM     35  O   UNL     1      -0.352   4.083  -4.111  0.00  0.00    -0.461 OA
BRANCH  35  37
ATOM     36  C   UNL     1      -1.722   5.915  -3.332  0.00  0.00    +0.048 C 
ATOM     37  C   UNL     1      -0.990   4.626  -2.953  0.00  0.00    +0.229 C 
ENDBRANCH  35  37
ENDBRANCH  33  35
ENDBRANCH  26  33
ENDBRANCH  22  30
ENDBRANCH  21  23
ENDBRANCH  20  21
ENDBRANCH   1  20
TORSDOF 8
