REMARK  Name = ZINC35991059
REMARK  16 active torsions:
REMARK  status: ('A' for Active; 'I' for Inactive)
REMARK    1  A    between atoms: C_1  and  C_2
REMARK    2  A    between atoms: C_2  and  O_3
REMARK    3  A    between atoms: O_3  and  C_4
REMARK    4  A    between atoms: C_4  and  C_6
REMARK    5  A    between atoms: N_9  and  C_12
REMARK    6  A    between atoms: C_12  and  C_13
REMARK    7  A    between atoms: C_14  and  C_32
REMARK    8  A    between atoms: C_15  and  C_22
REMARK    9  A    between atoms: N_20  and  C_21
REMARK   10  A    between atoms: C_25  and  O_30
REMARK   11  A    between atoms: C_26  and  O_28
REMARK   12  A    between atoms: O_28  and  C_29
REMARK   13  A    between atoms: O_30  and  C_31
REMARK   14  A    between atoms: C_32  and  O_34
REMARK   15  A    between atoms: O_34  and  C_35
REMARK   16  A    between atoms: C_35  and  C_36
REMARK                            x       y       z     vdW  Elec       q    Type
REMARK                         _______ _______ _______ _____ _____    ______ ____
ROOT
ATOM      1  C   UNL     1       1.611  -6.377  -5.397  0.00  0.00    +0.041 C 
ATOM      2  C   UNL     1       0.609  -6.760  -6.218  0.00  0.00    +0.080 C 
ATOM      3  C   UNL     1       0.272  -8.236  -6.278  0.00  0.00    +0.144 C 
ATOM      4  N   UNL     1       1.071  -9.138  -5.431  0.00  0.00    -0.288 N 
ATOM      5  C   UNL     1       2.041  -8.605  -4.663  0.00  0.00    +0.307 C 
ATOM      6  O   UNL     1       2.706  -9.341  -3.961  0.00  0.00    -0.252 OA
ATOM      7  N   UNL     1       2.300  -7.291  -4.652  0.00  0.00    -0.260 N 
ATOM      8  C   UNL     1       3.379  -6.806  -3.788  0.00  0.00    +0.139 C 
ATOM      9  H   UNL     1       0.903 -10.093  -5.427  0.00  0.00    +0.151 HD
ENDROOT
BRANCH   3  10
ATOM     10  C   UNL     1       0.422  -8.688  -7.708  0.00  0.00    -0.019 A 
ATOM     11  C   UNL     1      -0.701  -8.980  -8.460  0.00  0.00    +0.009 A 
ATOM     12  C   UNL     1      -0.569  -9.395  -9.772  0.00  0.00    +0.050 A 
ATOM     13  C   UNL     1       0.691  -9.520 -10.336  0.00  0.00    +0.162 A 
ATOM     14  C   UNL     1       1.821  -9.226  -9.579  0.00  0.00    +0.162 A 
ATOM     15  C   UNL     1       1.681  -8.805  -8.266  0.00  0.00    +0.055 A 
BRANCH  14  16
ATOM     16  O   UNL     1       3.059  -9.346 -10.128  0.00  0.00    -0.491 OA
ATOM     17  C   UNL     1       4.176  -9.132  -9.262  0.00  0.00    +0.277 C 
ENDBRANCH  14  16
BRANCH  13  18
ATOM     18  O   UNL     1       0.823  -9.928 -11.626  0.00  0.00    -0.491 OA
ATOM     19  C   UNL     1      -0.381 -10.213 -12.343  0.00  0.00    +0.277 C 
ENDBRANCH  13  18
ENDBRANCH   3  10
BRANCH   2  20
ATOM     20  C   UNL     1      -0.102  -5.815  -6.994  0.00  0.00    +0.339 C 
ATOM     21  O   UNL     1       0.107  -4.626  -6.847  0.00  0.00    -0.245 OA
BRANCH  20  22
ATOM     22  O   UNL     1      -1.014  -6.233  -7.897  0.00  0.00    -0.462 OA
BRANCH  22  23
ATOM     23  C   UNL     1      -1.613  -5.234  -8.724  0.00  0.00    +0.229 C 
ATOM     24  C   UNL     1      -2.692  -5.875  -9.598  0.00  0.00    +0.048 C 
ENDBRANCH  22  23
ENDBRANCH  20  22
ENDBRANCH   2  20
BRANCH   1  25
ATOM     25  C   UNL     1       1.978  -4.918  -5.307  0.00  0.00    +0.136 C 
BRANCH  25  29
ATOM     26  C   UNL     1       0.191  -2.565  -2.216  0.00  0.00    +0.100 C 
ATOM     27  C   UNL     1       0.122  -2.082  -3.667  0.00  0.00    +0.030 C 
ATOM     28  C   UNL     1       1.217  -2.773  -4.483  0.00  0.00    +0.085 C 
ATOM     29  N   UNL     1       1.029  -4.228  -4.423  0.00  0.00    -0.297 NA
ATOM     30  C   UNL     1       1.139  -4.722  -3.045  0.00  0.00    +0.085 C 
ATOM     31  C   UNL     1       0.041  -4.089  -2.186  0.00  0.00    +0.030 C 
BRANCH  26  32
ATOM     32  C   UNL     1      -0.922  -1.934  -1.421  0.00  0.00    +0.310 C 
ATOM     33  O   UNL     1      -1.752  -2.630  -0.885  0.00  0.00    -0.251 OA
BRANCH  32  34
ATOM     34  O   UNL     1      -0.993  -0.598  -1.309  0.00  0.00    -0.465 OA
BRANCH  34  36
ATOM     35  C   UNL     1      -1.989   1.460  -0.526  0.00  0.00    +0.048 C 
ATOM     36  C   UNL     1      -2.074  -0.068  -0.540  0.00  0.00    +0.229 C 
ENDBRANCH  34  36
ENDBRANCH  32  34
ENDBRANCH  26  32
ENDBRANCH  25  29
ENDBRANCH   1  25
TORSDOF 11
