REMARK  Name = ZINC40826765
REMARK  10 active torsions:
REMARK  status: ('A' for Active; 'I' for Inactive)
REMARK    1  A    between atoms: C_1  and  C_2
REMARK    2  A    between atoms: C_5  and  O_8
REMARK    3  A    between atoms: O_8  and  C_9
REMARK    4  A    between atoms: C_9  and  C_11
REMARK    5  A    between atoms: C_12  and  C_36
REMARK    6  A    between atoms: N_20  and  N_21
REMARK    7  A    between atoms: C_22  and  C_24
REMARK    8  A    between atoms: C_24  and  C_25
REMARK    9  A    between atoms: C_32  and  C_35
REMARK   10  A    between atoms: C_33  and  C_34
REMARK                            x       y       z     vdW  Elec       q    Type
REMARK                         _______ _______ _______ _____ _____    ______ ____
ROOT
ATOM      1  C   UNL     1       0.310  -6.226   1.197  0.00  0.00    +0.215 A 
ATOM      2  C   UNL     1       0.431  -6.991   2.325  0.00  0.00    +0.011 A 
ATOM      3  C   UNL     1       0.532  -8.317   1.889  0.00  0.00    +0.042 A 
ATOM      4  C   UNL     1       0.471  -8.307   0.515  0.00  0.00    +0.115 A 
ATOM      5  O   UNL     1       0.329  -7.044   0.119  0.00  0.00    -0.452 OA
ATOM      6  C   UNL     1       0.553  -9.560  -0.319  0.00  0.00    +0.075 C 
ATOM      7  C   UNL     1       1.207 -10.675   0.501  0.00  0.00    +0.014 C 
ATOM      8  C   UNL     1       0.490 -10.850   1.844  0.00  0.00    +0.058 C 
ATOM      9  C   UNL     1       0.679  -9.575   2.654  0.00  0.00    +0.070 C 
ATOM     10  N   UNL     1       0.949  -9.591   3.923  0.00  0.00    -0.184 NA
ATOM     11  C   UNL     1       0.452  -6.503   3.750  0.00  0.00    +0.048 C 
ENDROOT
BRANCH  10  12
ATOM     12  N   UNL     1       1.077 -10.813   4.597  0.00  0.00    -0.206 N 
ATOM     13  C   UNL     1       1.357 -10.829   5.915  0.00  0.00    +0.237 C 
ATOM     14  O   UNL     1       1.499  -9.786   6.518  0.00  0.00    -0.274 OA
ATOM     15  H   UNL     1       0.963 -11.647   4.115  0.00  0.00    +0.177 HD
BRANCH  13  16
ATOM     16  C   UNL     1       1.494 -12.143   6.640  0.00  0.00    +0.136 C 
BRANCH  16  17
ATOM     17  C   UNL     1       1.807 -11.885   8.092  0.00  0.00    +0.007 A 
ATOM     18  C   UNL     1       3.020 -11.848   8.659  0.00  0.00    +0.200 A 
ATOM     19  O   UNL     1       2.909 -11.591   9.975  0.00  0.00    -0.462 OA
ATOM     20  C   UNL     1       1.616 -11.449  10.329  0.00  0.00    +0.138 A 
ATOM     21  C   UNL     1       0.844 -11.619   9.167  0.00  0.00    +0.024 A 
ATOM     22  C   UNL     1      -0.545 -11.520   9.229  0.00  0.00    +0.012 A 
ATOM     23  C   UNL     1      -1.155 -11.251  10.434  0.00  0.00    +0.004 A 
ATOM     24  C   UNL     1      -0.394 -11.079  11.581  0.00  0.00    -0.044 A 
ATOM     25  C   UNL     1       0.980 -11.183  11.535  0.00  0.00    -0.005 A 
ATOM     26  C   UNL     1       1.793 -10.991  12.789  0.00  0.00    +0.048 C 
ATOM     27  C   UNL     1      -1.076 -10.786  12.892  0.00  0.00    +0.044 C 
ENDBRANCH  16  17
ENDBRANCH  13  16
ENDBRANCH  10  12
BRANCH   1  28
ATOM     28  C   UNL     1       0.176  -4.768   1.162  0.00  0.00    +0.380 C 
ATOM     29  O   UNL     1       0.171  -4.132   2.199  0.00  0.00    -0.241 OA
BRANCH  28  30
ATOM     30  O   UNL     1       0.058  -4.129  -0.021  0.00  0.00    -0.420 OA
BRANCH  30  35
ATOM     31  C   UNL     1       0.048   1.503   0.003  0.00  0.00    +0.044 C 
ATOM     32  C   UNL     1       0.051  -0.004  -0.003  0.00  0.00    -0.050 A 
ATOM     33  C   UNL     1       1.209  -0.693   0.305  0.00  0.00    +0.007 A 
ATOM     34  C   UNL     1       1.214  -2.075   0.300  0.00  0.00    +0.046 A 
ATOM     35  C   UNL     1       0.055  -2.770  -0.015  0.00  0.00    +0.132 A 
ATOM     36  C   UNL     1      -1.106  -2.076  -0.324  0.00  0.00    +0.046 A 
ATOM     37  C   UNL     1      -1.107  -0.695  -0.312  0.00  0.00    +0.007 A 
ENDBRANCH  30  35
ENDBRANCH  28  30
ENDBRANCH   1  28
TORSDOF 6
