REMARK  Name = ZINC40168636
REMARK  8 active torsions:
REMARK  status: ('A' for Active; 'I' for Inactive)
REMARK    1  A    between atoms: C_1  and  C_2
REMARK    2  A    between atoms: C_2  and  C_4
REMARK    3  A    between atoms: C_2  and  O_16
REMARK    4  A    between atoms: N_6  and  C_7
REMARK    5  A    between atoms: C_10  and  C_13
REMARK    6  A    between atoms: C_13  and  C_15
REMARK    7  A    between atoms: O_16  and  C_17
REMARK    8  A    between atoms: C_27  and  C_28
REMARK                            x       y       z     vdW  Elec       q    Type
REMARK                         _______ _______ _______ _____ _____    ______ ____
ROOT
ATOM      1  C   UNL     1       0.138  -0.029   2.123  0.00  0.00    +0.212 A 
ATOM      2  C   UNL     1      -0.548  -1.245   2.371  0.00  0.00    +0.235 A 
ATOM      3  O   UNL     1      -0.850  -2.000   1.462  0.00  0.00    -0.283 OA
ATOM      4  C   UNL     1      -0.884  -1.560   3.773  0.00  0.00    +0.068 A 
ATOM      5  C   UNL     1      -1.558  -2.734   4.110  0.00  0.00    +0.015 A 
ATOM      6  C   UNL     1      -1.852  -2.993   5.430  0.00  0.00    +0.001 A 
ATOM      7  C   UNL     1      -1.482  -2.093   6.420  0.00  0.00    +0.004 A 
ATOM      8  C   UNL     1      -0.816  -0.929   6.099  0.00  0.00    +0.047 A 
ATOM      9  C   UNL     1      -0.508  -0.649   4.773  0.00  0.00    +0.140 A 
ATOM     10  O   UNL     1       0.144   0.484   4.440  0.00  0.00    -0.451 OA
ATOM     11  C   UNL     1       0.461   0.783   3.170  0.00  0.00    +0.181 A 
ENDROOT
BRANCH  11  12
ATOM     12  C   UNL     1       1.182   2.042   2.896  0.00  0.00    +0.021 A 
ATOM     13  C   UNL     1       0.735   3.242   3.454  0.00  0.00    +0.013 A 
ATOM     14  C   UNL     1       1.413   4.414   3.195  0.00  0.00    +0.021 A 
ATOM     15  C   UNL     1       2.534   4.404   2.382  0.00  0.00    +0.041 A 
ATOM     16  C   UNL     1       2.982   3.217   1.825  0.00  0.00    +0.021 A 
ATOM     17  C   UNL     1       2.317   2.037   2.081  0.00  0.00    +0.013 A 
ATOM     18 CL   UNL     1       3.382   5.884   2.060  0.00  0.00    -0.084 Cl
ENDBRANCH  11  12
BRANCH   1  19
ATOM     19  O   UNL     1       0.477   0.321   0.853  0.00  0.00    -0.473 OA
BRANCH  19  21
ATOM     20  C   UNL     1      -1.245   1.826   0.071  0.00  0.00    +0.062 C 
ATOM     21  C   UNL     1      -0.589   0.453  -0.090  0.00  0.00    +0.256 C 
BRANCH  21  22
ATOM     22  C   UNL     1      -0.043   0.317  -1.488  0.00  0.00    +0.258 C 
ATOM     23  O   UNL     1       1.147   0.433  -1.688  0.00  0.00    -0.271 OA
ATOM     24  N   UNL     1      -0.878   0.067  -2.516  0.00  0.00    -0.282 N 
ATOM     25  H   UNL     1      -1.816  -0.113  -2.346  0.00  0.00    +0.155 HD
BRANCH  24  26
ATOM     26  C   UNL     1      -0.394   0.067  -3.822  0.00  0.00    +0.034 A 
ATOM     27  C   UNL     1       0.913  -0.339  -4.078  0.00  0.00    +0.024 A 
ATOM     28  C   UNL     1       1.394  -0.341  -5.362  0.00  0.00    +0.013 A 
ATOM     29  C   UNL     1       0.568   0.066  -6.417  0.00  0.00    +0.017 A 
ATOM     30  C   UNL     1      -0.746   0.474  -6.155  0.00  0.00    +0.013 A 
ATOM     31  C   UNL     1      -1.220   0.468  -4.869  0.00  0.00    +0.024 A 
BRANCH  29  32
ATOM     32  C   UNL     1       1.078   0.066  -7.794  0.00  0.00    +0.160 C 
ATOM     33  O   UNL     1       2.217  -0.287  -8.019  0.00  0.00    -0.292 OA
ATOM     34  C   UNL     1       0.188   0.505  -8.928  0.00  0.00    +0.091 C 
ENDBRANCH  29  32
ENDBRANCH  24  26
ENDBRANCH  21  22
ENDBRANCH  19  21
ENDBRANCH   1  19
TORSDOF 6
