REMARK  Name = ZINC57460565
REMARK  9 active torsions:
REMARK  status: ('A' for Active; 'I' for Inactive)
REMARK    1  A    between atoms: C_1  and  C_2
REMARK    2  A    between atoms: C_6  and  C_8
REMARK    3  A    between atoms: C_10  and  C_17
REMARK    4  A    between atoms: C_11  and  C_16
REMARK    5  A    between atoms: N_19  and  C_20
REMARK    6  A    between atoms: C_23  and  O_28
REMARK    7  A    between atoms: C_25  and  O_26
REMARK    8  A    between atoms: O_26  and  C_27
REMARK    9  A    between atoms: O_28  and  C_29
REMARK                            x       y       z     vdW  Elec       q    Type
REMARK                         _______ _______ _______ _____ _____    ______ ____
ROOT
ATOM      1  C   UNL     1       0.205  -3.020   2.800  0.00  0.00    +0.139 C 
ATOM      2  C   UNL     1      -1.216  -3.478   3.056  0.00  0.00    +0.056 C 
ATOM      3  C   UNL     1      -1.451  -4.807   3.091  0.00  0.00    +0.017 C 
ATOM      4  N   UNL     1      -0.442  -5.707   2.901  0.00  0.00    -0.300 N 
ATOM      5  C   UNL     1       0.831  -5.358   2.671  0.00  0.00    +0.135 C 
ATOM      6  S   UNL     1       2.000  -6.588   2.450  0.00  0.00    -0.019 S 
ATOM      7  N   UNL     1       1.220  -4.069   2.608  0.00  0.00    -0.315 N 
ATOM      8  C   UNL     1      -2.851  -5.306   3.344  0.00  0.00    +0.061 C 
ATOM      9  H   UNL     1      -0.658  -6.652   2.935  0.00  0.00    +0.154 HD
ATOM     10  H   UNL     1       2.147  -3.839   2.439  0.00  0.00    +0.149 HD
ENDROOT
BRANCH   1  16
ATOM     11  C   UNL     1       0.168   1.525   0.704  0.00  0.00    +0.044 C 
ATOM     12  C   UNL     1       0.179   0.024   0.566  0.00  0.00    -0.050 A 
ATOM     13  C   UNL     1       0.182  -0.555  -0.689  0.00  0.00    +0.003 A 
ATOM     14  C   UNL     1       0.193  -1.931  -0.815  0.00  0.00    +0.001 A 
ATOM     15  C   UNL     1       0.200  -2.729   0.314  0.00  0.00    +0.006 A 
ATOM     16  C   UNL     1       0.197  -2.150   1.569  0.00  0.00    -0.022 A 
ATOM     17  C   UNL     1       0.192  -0.773   1.695  0.00  0.00    +0.009 A 
ENDBRANCH   1  16
BRANCH   2  18
ATOM     18  C   UNL     1      -2.263  -2.544   3.253  0.00  0.00    +0.248 C 
ATOM     19  O   UNL     1      -2.380  -1.978   4.325  0.00  0.00    -0.270 OA
ATOM     20  N   UNL     1      -3.129  -2.281   2.255  0.00  0.00    -0.279 N 
ATOM     21  H   UNL     1      -3.079  -2.782   1.425  0.00  0.00    +0.155 HD
BRANCH  20  22
ATOM     22  C   UNL     1      -4.102  -1.284   2.414  0.00  0.00    +0.076 A 
ATOM     23  C   UNL     1      -3.950  -0.317   3.397  0.00  0.00    +0.030 A 
ATOM     24  C   UNL     1      -4.909   0.665   3.554  0.00  0.00    +0.047 A 
ATOM     25  C   UNL     1      -6.025   0.687   2.731  0.00  0.00    +0.124 A 
ATOM     26  C   UNL     1      -6.181  -0.278   1.747  0.00  0.00    +0.093 A 
ATOM     27  C   UNL     1      -5.219  -1.260   1.582  0.00  0.00    +0.145 A 
BRANCH  27  28
ATOM     28  O   UNL     1      -5.367  -2.204   0.614  0.00  0.00    -0.493 OA
ATOM     29  C   UNL     1      -6.537  -2.118  -0.202  0.00  0.00    +0.277 C 
ENDBRANCH  27  28
BRANCH  25  30
ATOM     30  O   UNL     1      -6.967   1.655   2.888  0.00  0.00    -0.495 OA
ATOM     31  C   UNL     1      -6.742   2.616   3.921  0.00  0.00    +0.277 C 
ENDBRANCH  25  30
ENDBRANCH  20  22
ENDBRANCH   2  18
TORSDOF 5
