REMARK  Name = ZINC12880610
REMARK  15 active torsions:
REMARK  status: ('A' for Active; 'I' for Inactive)
REMARK    1  A    between atoms: C_1  and  C_2
REMARK    2  A    between atoms: C_5  and  N_9
REMARK    3  A    between atoms: C_6  and  C_8
REMARK    4  A    between atoms: N_9  and  C_10
REMARK    5  A    between atoms: C_10  and  C_12
REMARK    6  A    between atoms: C_10  and  C_20
REMARK    7  A    between atoms: C_15  and  O_18
REMARK    8  A    between atoms: O_18  and  C_19
REMARK    9  A    between atoms: N_22  and  C_23
REMARK   10  A    between atoms: C_28  and  C_30
REMARK   11  A    between atoms: C_31  and  C_39
REMARK   12  A    between atoms: C_33  and  C_35
REMARK   13  A    between atoms: C_35  and  C_36
REMARK   14  A    between atoms: C_35  and  C_37
REMARK   15  A    between atoms: C_35  and  C_38
REMARK                            x       y       z     vdW  Elec       q    Type
REMARK                         _______ _______ _______ _____ _____    ______ ____
ROOT
ATOM      1  N   UNL     1       0.926  -2.825   0.399  0.00  0.00    -0.249 N 
ATOM      2  C   UNL     1       1.933  -1.938   0.273  0.00  0.00    +0.287 C 
ATOM      3  O   UNL     1       3.031  -2.312  -0.097  0.00  0.00    -0.266 OA
ENDROOT
BRANCH   1   8
ATOM      4  C   UNL     1      -4.188  -1.080   2.124  0.00  0.00    +0.044 C 
ATOM      5  C   UNL     1      -2.829  -1.544   1.666  0.00  0.00    -0.050 A 
ATOM      6  C   UNL     1      -2.515  -1.535   0.319  0.00  0.00    +0.005 A 
ATOM      7  C   UNL     1      -1.270  -1.955  -0.104  0.00  0.00    +0.024 A 
ATOM      8  C   UNL     1      -0.335  -2.395   0.825  0.00  0.00    +0.041 A 
ATOM      9  C   UNL     1      -0.653  -2.403   2.176  0.00  0.00    -0.029 A 
ATOM     10  C   UNL     1      -1.899  -1.978   2.593  0.00  0.00    +0.008 A 
ATOM     11  C   UNL     1       0.360  -2.875   3.187  0.00  0.00    +0.045 C 
ENDBRANCH   1   8
BRANCH   2  12
ATOM     12  C   UNL     1       1.706  -0.522   0.582  0.00  0.00    +0.193 A 
ATOM     13  C   UNL     1       2.634   0.476   0.497  0.00  0.00    +0.000 A 
ATOM     14  C   UNL     1       1.988   1.661   0.882  0.00  0.00    +0.049 A 
ATOM     15  C   UNL     1       0.710   1.338   1.181  0.00  0.00    +0.112 A 
ATOM     16  O   UNL     1       0.544   0.022   0.999  0.00  0.00    -0.454 OA
ATOM     17  C   UNL     1       4.073   0.334   0.071  0.00  0.00    +0.048 C 
BRANCH  15  18
ATOM     18  C   UNL     1      -0.355   2.302   1.637  0.00  0.00    +0.020 C 
ATOM     19  C   UNL     1      -0.565   3.374   0.567  0.00  0.00    +0.019 C 
ATOM     20  C   UNL     1      -1.665   1.544   1.865  0.00  0.00    +0.019 C 
ATOM     21  C   UNL     1       0.084   2.965   2.945  0.00  0.00    +0.019 C 
ENDBRANCH  15  18
ENDBRANCH   2  12
BRANCH   1  22
ATOM     22  C   UNL     1       1.153  -4.239   0.091  0.00  0.00    +0.198 C 
BRANCH  22  23
ATOM     23  C   UNL     1      -0.076  -5.035   0.450  0.00  0.00    -0.018 A 
ATOM     24  C   UNL     1      -1.258  -4.824  -0.235  0.00  0.00    +0.009 A 
ATOM     25  C   UNL     1      -2.384  -5.556   0.088  0.00  0.00    +0.046 A 
ATOM     26  C   UNL     1      -2.331  -6.495   1.109  0.00  0.00    +0.120 A 
ATOM     27  C   UNL     1      -1.145  -6.700   1.798  0.00  0.00    +0.046 A 
ATOM     28  C   UNL     1      -0.020  -5.969   1.467  0.00  0.00    +0.009 A 
BRANCH  26  29
ATOM     29  O   UNL     1      -3.439  -7.211   1.433  0.00  0.00    -0.495 OA
ATOM     30  C   UNL     1      -4.625  -6.947   0.681  0.00  0.00    +0.277 C 
ENDBRANCH  26  29
ENDBRANCH  22  23
BRANCH  22  31
ATOM     31  C   UNL     1       1.439  -4.393  -1.381  0.00  0.00    +0.239 C 
ATOM     32  O   UNL     1       1.452  -3.417  -2.101  0.00  0.00    -0.273 OA
ATOM     33  N   UNL     1       1.680  -5.614  -1.896  0.00  0.00    -0.311 N 
ATOM     34  H   UNL     1       1.669  -6.395  -1.320  0.00  0.00    +0.149 HD
BRANCH  33  35
ATOM     35  C   UNL     1       1.958  -5.764  -3.327  0.00  0.00    +0.073 C 
ATOM     36  C   UNL     1       0.638  -5.934  -4.107  0.00  0.00    +0.022 C 
ATOM     37  C   UNL     1       0.983  -6.956  -5.218  0.00  0.00    +0.002 C 
ATOM     38  C   UNL     1       1.934  -7.941  -4.494  0.00  0.00    +0.002 C 
ATOM     39  C   UNL     1       2.782  -7.040  -3.574  0.00  0.00    +0.022 C 
ENDBRANCH  33  35
ENDBRANCH  22  31
ENDBRANCH   1  22
TORSDOF 8
