REMARK  Name = ZINC45605954
REMARK  11 active torsions:
REMARK  status: ('A' for Active; 'I' for Inactive)
REMARK    1  A    between atoms: C_1  and  C_2
REMARK    2  A    between atoms: C_4  and  C_7
REMARK    3  A    between atoms: C_16  and  C_18
REMARK    4  A    between atoms: C_18  and  N_19
REMARK    5  A    between atoms: N_19  and  C_20
REMARK    6  A    between atoms: N_19  and  C_21
REMARK    7  A    between atoms: C_21  and  C_22
REMARK    8  A    between atoms: C_25  and  O_30
REMARK    9  A    between atoms: C_26  and  O_28
REMARK   10  A    between atoms: O_28  and  C_29
REMARK   11  A    between atoms: O_30  and  C_31
REMARK                            x       y       z     vdW  Elec       q    Type
REMARK                         _______ _______ _______ _____ _____    ______ ____
ROOT
ATOM      1  C   UNL     1      -1.982  -3.083  -0.006  0.00  0.00    +0.001 A 
ATOM      2  C   UNL     1      -1.759  -4.460  -0.009  0.00  0.00    +0.012 A 
ATOM      3  C   UNL     1      -2.824  -5.331  -0.009  0.00  0.00    +0.024 A 
ATOM      4  C   UNL     1      -4.135  -4.848  -0.006  0.00  0.00    +0.039 A 
ATOM      5  C   UNL     1      -4.352  -3.478  -0.003  0.00  0.00    -0.024 A 
ATOM      6  C   UNL     1      -3.289  -2.599   0.003  0.00  0.00    +0.015 A 
ATOM      7  C   UNL     1      -5.843  -3.227  -0.001  0.00  0.00    +0.056 C 
ATOM      8  C   UNL     1      -6.472  -4.630  -0.003  0.00  0.00    +0.118 C 
ATOM      9  N   UNL     1      -5.339  -5.559  -0.006  0.00  0.00    -0.272 N 
ATOM     10  C   UNL     1      -5.443  -6.903  -0.009  0.00  0.00    +0.203 C 
ATOM     11  O   UNL     1      -6.536  -7.427  -0.009  0.00  0.00    -0.277 OA
ENDROOT
BRANCH   1  15
ATOM     12  C   UNL     1      -0.018   1.503   0.010  0.00  0.00    +0.073 C 
ATOM     13  C   UNL     1       0.002  -0.004   0.002  0.00  0.00    +0.076 A 
ATOM     14  N   UNL     1      -1.014  -0.828   0.002  0.00  0.00    -0.244 NA
ATOM     15  C   UNL     1      -0.837  -2.141  -0.006  0.00  0.00    +0.078 A 
ATOM     16  C   UNL     1       0.460  -2.583  -0.015  0.00  0.00    +0.075 A 
ATOM     17  S   UNL     1       1.337  -1.028  -0.017  0.00  0.00    -0.080 S 
ENDBRANCH   1  15
BRANCH  10  18
ATOM     18  C   UNL     1      -4.199  -7.754  -0.013  0.00  0.00    +0.019 C 
BRANCH  18  19
ATOM     19  N   UNL     1      -4.577  -9.174  -0.015  0.00  0.00    +0.386 N 
ATOM     20  C   UNL     1      -5.271  -9.493  -1.271  0.00  0.00    -0.095 C 
ATOM     21  H   UNL     1      -5.190  -9.360   0.764  0.00  0.00    -0.081 HD
BRANCH  19  22
ATOM     22  C   UNL     1      -3.370 -10.002   0.102  0.00  0.00    -0.043 C 
BRANCH  22  23
ATOM     23  C   UNL     1      -3.765 -11.452   0.223  0.00  0.00    -0.060 A 
ATOM     24  C   UNL     1      -3.992 -12.003   1.470  0.00  0.00    +0.005 A 
ATOM     25  C   UNL     1      -4.355 -13.332   1.586  0.00  0.00    +0.050 A 
ATOM     26  C   UNL     1      -4.492 -14.114   0.450  0.00  0.00    +0.168 A 
ATOM     27  C   UNL     1      -4.265 -13.559  -0.805  0.00  0.00    +0.162 A 
ATOM     28  C   UNL     1      -3.906 -12.225  -0.915  0.00  0.00    +0.051 A 
BRANCH  27  29
ATOM     29  O   UNL     1      -4.399 -14.323  -1.923  0.00  0.00    -0.491 OA
ATOM     30  C   UNL     1      -4.149 -13.686  -3.177  0.00  0.00    +0.277 C 
ENDBRANCH  27  29
BRANCH  26  31
ATOM     31  O   UNL     1      -4.849 -15.422   0.563  0.00  0.00    -0.431 OA
BRANCH  31  32
ATOM     32  C   UNL     1      -5.066 -15.924   1.883  0.00  0.00    +0.541 C 
ATOM     33  F   UNL     1      -3.893 -15.789   2.632  0.00  0.00    -0.166 F 
ATOM     34  F   UNL     1      -6.096 -15.200   2.494  0.00  0.00    -0.166 F 
ENDBRANCH  31  32
ENDBRANCH  26  31
ENDBRANCH  22  23
ENDBRANCH  19  22
ENDBRANCH  18  19
ENDBRANCH  10  18
TORSDOF 8
