REMARK  Name = ZINC16901484
REMARK  6 active torsions:
REMARK  status: ('A' for Active; 'I' for Inactive)
REMARK    1  A    between atoms: C_1  and  O_2
REMARK    2  A    between atoms: O_2  and  C_3
REMARK    3  A    between atoms: C_5  and  C_10
REMARK    4  A    between atoms: C_8  and  O_9
REMARK    5  A    between atoms: N_16  and  C_17
REMARK    6  A    between atoms: C_22  and  C_23
REMARK                            x       y       z     vdW  Elec       q    Type
REMARK                         _______ _______ _______ _____ _____    ______ ____
ROOT
ATOM      1  C   UNL     1       1.607   0.299  -4.865  0.00  0.00    +0.028 C 
ATOM      2  C   UNL     1       2.480  -0.297  -5.717  0.00  0.00    +0.078 C 
ATOM      3  C   UNL     1       3.276   0.295  -6.808  0.00  0.00    +0.256 C 
ATOM      4  O   UNL     1       3.215   1.483  -7.068  0.00  0.00    -0.269 OA
ATOM      5  N   UNL     1       4.058  -0.522  -7.492  0.00  0.00    -0.260 N 
ATOM      6  C   UNL     1       4.114  -1.864  -7.183  0.00  0.00    +0.166 C 
ATOM      7  N   UNL     1       4.830  -2.805  -7.755  0.00  0.00    -0.225 NA
ATOM      8  S   UNL     1       2.980  -2.010  -5.811  0.00  0.00    -0.049 S 
ATOM      9  H   UNL     1       4.599  -0.174  -8.219  0.00  0.00    +0.157 HD
ENDROOT
BRANCH   1  12
ATOM     10  C   UNL     1      -0.840  -0.699  -2.204  0.00  0.00    +0.162 A 
ATOM     11  C   UNL     1      -0.019   0.078  -2.998  0.00  0.00    +0.057 A 
ATOM     12  C   UNL     1       0.733  -0.521  -4.017  0.00  0.00    -0.020 A 
ATOM     13  C   UNL     1       0.648  -1.903  -4.223  0.00  0.00    +0.012 A 
ATOM     14  C   UNL     1      -0.173  -2.669  -3.426  0.00  0.00    +0.050 A 
ATOM     15  C   UNL     1      -0.914  -2.075  -2.413  0.00  0.00    +0.158 A 
BRANCH  10  17
ATOM     16  C   UNL     1      -1.447   1.294  -1.056  0.00  0.00    +0.277 C 
ATOM     17  O   UNL     1      -1.572  -0.121  -1.214  0.00  0.00    -0.491 OA
ENDBRANCH  10  17
BRANCH  15  18
ATOM     18  O   UNL     1      -1.718  -2.837  -1.627  0.00  0.00    -0.503 OA
ATOM     19  H   UNL     1      -2.619  -2.936  -1.964  0.00  0.00    +0.292 HD
ENDBRANCH  15  18
ENDBRANCH   1  12
BRANCH   7  20
ATOM     20  C   UNL     1       5.673  -2.492  -8.787  0.00  0.00    +0.078 A 
ATOM     21  C   UNL     1       6.555  -1.415  -8.670  0.00  0.00    +0.028 A 
ATOM     22  C   UNL     1       7.402  -1.105  -9.713  0.00  0.00    +0.002 A 
ATOM     23  C   UNL     1       7.380  -1.859 -10.874  0.00  0.00    +0.001 A 
ATOM     24  C   UNL     1       6.509  -2.928 -10.996  0.00  0.00    +0.014 A 
ATOM     25  C   UNL     1       5.660  -3.252  -9.959  0.00  0.00    +0.080 A 
BRANCH  25  26
ATOM     26  C   UNL     1       4.717  -4.419 -10.091  0.00  0.00    +0.419 C 
ATOM     27  F   UNL     1       4.889  -5.018 -11.344  0.00  0.00    -0.166 F 
ATOM     28  F   UNL     1       4.987  -5.355  -9.087  0.00  0.00    -0.166 F 
ATOM     29  F   UNL     1       3.398  -3.970  -9.966  0.00  0.00    -0.166 F 
ENDBRANCH  25  26
ENDBRANCH   7  20
TORSDOF 5
