REMARK  Name = ZINC08772214
REMARK  6 active torsions:
REMARK  status: ('A' for Active; 'I' for Inactive)
REMARK    1  A    between atoms: C_6  and  C_7
REMARK    2  A    between atoms: C_10  and  C_12
REMARK    3  A    between atoms: C_12  and  N_13
REMARK    4  A    between atoms: N_13  and  C_14
REMARK    5  A    between atoms: C_17  and  S_19
REMARK    6  A    between atoms: S_19  and  N_22
REMARK                            x       y       z     vdW  Elec       q    Type
REMARK                         _______ _______ _______ _____ _____    ______ ____
ROOT
ATOM      1  C   UNL     1       2.344   0.346   5.263  0.00  0.00    +0.097 A 
ATOM      2  C   UNL     1       1.356   1.301   5.487  0.00  0.00    +0.043 A 
ATOM      3  C   UNL     1       0.279   1.369   4.623  0.00  0.00    +0.033 A 
ATOM      4  C   UNL     1       0.225   0.478   3.559  0.00  0.00    +0.121 A 
ATOM      5  C   UNL     1       1.237  -0.447   3.400  0.00  0.00    +0.112 A 
ATOM      6  N   UNL     1       2.313  -0.539   4.226  0.00  0.00    -0.348 N 
ATOM      7  H   UNL     1       3.057  -1.231   4.078  0.00  0.00    +0.167 HD
ENDROOT
BRANCH   4   8
ATOM      8  S   UNL     1      -1.126   0.522   2.429  0.00  0.00    +0.062 S 
ATOM      9  O   UNL     1      -2.215   1.118   3.120  0.00  0.00    -0.153 OA
ATOM     10  O   UNL     1      -1.210  -0.770   1.845  0.00  0.00    -0.153 OA
BRANCH   8  11
ATOM     11  N   UNL     1      -0.712   1.565   1.211  0.00  0.00    -0.172 NA
ATOM     12  C   UNL     1      -0.013   1.086   0.008  0.00  0.00    +0.137 C 
ATOM     13  C   UNL     1      -0.764   1.599  -1.226  0.00  0.00    +0.177 C 
ATOM     14  O   UNL     1      -0.940   3.013  -1.115  0.00  0.00    -0.377 OA
ATOM     15  C   UNL     1      -1.734   3.419   0.003  0.00  0.00    +0.177 C 
ATOM     16  C   UNL     1      -1.032   2.999   1.299  0.00  0.00    +0.137 C 
ENDBRANCH   8  11
ENDBRANCH   4   8
BRANCH   1  17
ATOM     17  N   UNL     1       3.432   0.266   6.124  0.00  0.00    -0.323 N 
ATOM     18  H   UNL     1       4.123  -0.397   5.972  0.00  0.00    +0.148 HD
BRANCH  17  19
ATOM     19  C   UNL     1       3.535   1.184   7.262  0.00  0.00    +0.177 C 
BRANCH  19  23
ATOM     20  C   UNL     1       6.179   0.020   9.499  0.00  0.00    +0.135 A 
ATOM     21  C   UNL     1       6.895   0.897   8.746  0.00  0.00    +0.050 A 
ATOM     22  C   UNL     1       6.003   1.446   7.804  0.00  0.00    +0.047 A 
ATOM     23  C   UNL     1       4.797   0.890   8.031  0.00  0.00    +0.123 A 
ATOM     24  O   UNL     1       4.908   0.027   9.054  0.00  0.00    -0.458 OA
BRANCH  20  30
ATOM     25  C   UNL     1       8.051  -0.714  10.969  0.00  0.00    +0.012 A 
ATOM     26  C   UNL     1       8.534  -1.478  12.012  0.00  0.00    +0.016 A 
ATOM     27  C   UNL     1       7.688  -2.334  12.696  0.00  0.00    +0.018 A 
ATOM     28  C   UNL     1       6.353  -2.426  12.343  0.00  0.00    +0.016 A 
ATOM     29  C   UNL     1       5.856  -1.664  11.306  0.00  0.00    +0.012 A 
ATOM     30  C   UNL     1       6.704  -0.799  10.612  0.00  0.00    +0.017 A 
ATOM     31 BR   UNL     1       8.360  -3.383  14.119  0.00  0.00    -0.050 Br
ENDBRANCH  20  30
ENDBRANCH  19  23
ENDBRANCH  17  19
ENDBRANCH   1  17
TORSDOF 6
