REMARK  Name = ZINC40720453
REMARK  13 active torsions:
REMARK  status: ('A' for Active; 'I' for Inactive)
REMARK    1  A    between atoms: C_1  and  C_2
REMARK    2  A    between atoms: C_2  and  N_3
REMARK    3  A    between atoms: C_7  and  C_9
REMARK    4  A    between atoms: C_9  and  N_10
REMARK    5  A    between atoms: N_10  and  C_11
REMARK    6  A    between atoms: C_11  and  C_12
REMARK    7  A    between atoms: C_14  and  O_28
REMARK    8  A    between atoms: C_15  and  O_19
REMARK    9  A    between atoms: O_19  and  C_20
REMARK   10  A    between atoms: C_20  and  C_21
REMARK   11  A    between atoms: C_26  and  C_27
REMARK   12  A    between atoms: O_28  and  C_29
REMARK   13  A    between atoms: C_29  and  C_30
REMARK                            x       y       z     vdW  Elec       q    Type
REMARK                         _______ _______ _______ _____ _____    ______ ____
ROOT
ATOM      1  C   UNL     1      -3.473  -1.067   3.961  0.00  0.00    -0.060 A 
ATOM      2  C   UNL     1      -3.524   0.208   4.495  0.00  0.00    +0.051 A 
ATOM      3  C   UNL     1      -4.723   0.900   4.523  0.00  0.00    +0.163 A 
ATOM      4  C   UNL     1      -5.876   0.310   4.012  0.00  0.00    +0.176 A 
ATOM      5  C   UNL     1      -5.818  -0.967   3.477  0.00  0.00    +0.063 A 
ATOM      6  C   UNL     1      -4.615  -1.651   3.449  0.00  0.00    +0.021 A 
ATOM      7 BR   UNL     1      -7.381  -1.773   2.782  0.00  0.00    -0.046 Br
ENDROOT
BRANCH   1   8
ATOM      8  C   UNL     1      -2.166  -1.818   3.933  0.00  0.00    -0.047 C 
BRANCH   8   9
ATOM      9  N   UNL     1      -1.460  -1.523   2.679  0.00  0.00    +0.383 N 
ATOM     10  H   UNL     1      -1.279  -0.532   2.620  0.00  0.00    -0.085 HD
ATOM     11  H   UNL     1      -2.029  -1.808   1.897  0.00  0.00    -0.085 HD
BRANCH   9  12
ATOM     12  C   UNL     1      -0.186  -2.255   2.651  0.00  0.00    -0.063 C 
BRANCH  12  17
ATOM     13  N   UNL     1       0.713  -0.491   1.192  0.00  0.00    -0.301 NA
ATOM     14  C   UNL     1       2.156  -0.184   1.109  0.00  0.00    +0.084 C 
ATOM     15  C   UNL     1       2.854  -1.371   1.819  0.00  0.00    +0.017 C 
ATOM     16  C   UNL     1       1.964  -2.564   1.383  0.00  0.00    +0.018 C 
ATOM     17  C   UNL     1       0.550  -1.948   1.345  0.00  0.00    +0.040 C 
BRANCH  13  19
ATOM     18  C   UNL     1      -0.019   1.526   0.010  0.00  0.00    +0.020 C 
ATOM     19  C   UNL     1       0.002  -0.004   0.002  0.00  0.00    +0.081 C 
ENDBRANCH  13  19
ENDBRANCH  12  17
ENDBRANCH   9  12
ENDBRANCH   8   9
ENDBRANCH   1   8
BRANCH   4  20
ATOM     20  O   UNL     1      -7.056   0.986   4.037  0.00  0.00    -0.483 OA
BRANCH  20  21
ATOM     21  C   UNL     1      -7.362   1.800   2.903  0.00  0.00    +0.265 C 
BRANCH  21  22
ATOM     22  C   UNL     1      -8.698   2.465   3.108  0.00  0.00    -0.007 A 
ATOM     23  C   UNL     1      -9.412   2.239   4.270  0.00  0.00    +0.007 A 
ATOM     24  C   UNL     1     -10.637   2.850   4.459  0.00  0.00    +0.000 A 
ATOM     25  C   UNL     1     -11.149   3.687   3.485  0.00  0.00    +0.000 A 
ATOM     26  C   UNL     1     -10.435   3.914   2.323  0.00  0.00    +0.004 A 
ATOM     27  C   UNL     1      -9.208   3.307   2.137  0.00  0.00    -0.044 A 
ATOM     28  C   UNL     1      -8.427   3.558   0.873  0.00  0.00    +0.044 C 
ENDBRANCH  21  22
ENDBRANCH  20  21
ENDBRANCH   4  20
BRANCH   3  29
ATOM     29  O   UNL     1      -4.775   2.153   5.048  0.00  0.00    -0.489 OA
BRANCH  29  30
ATOM     30  C   UNL     1      -3.554   2.695   5.555  0.00  0.00    +0.226 C 
ATOM     31  C   UNL     1      -3.808   4.102   6.101  0.00  0.00    +0.048 C 
ENDBRANCH  29  30
ENDBRANCH   3  29
TORSDOF 10
