REMARK  Name = ZINC35926282
REMARK  6 active torsions:
REMARK  status: ('A' for Active; 'I' for Inactive)
REMARK    1  A    between atoms: C_4  and  O_7
REMARK    2  A    between atoms: O_7  and  C_8
REMARK    3  A    between atoms: C_8  and  C_9
REMARK    4  A    between atoms: C_23  and  C_25
REMARK    5  A    between atoms: C_25  and  N_26
REMARK    6  A    between atoms: N_29  and  C_32
REMARK                            x       y       z     vdW  Elec       q    Type
REMARK                         _______ _______ _______ _____ _____    ______ ____
ROOT
ATOM      1  C   UNL     1       4.701  -2.633  -2.429  0.00  0.00    +0.253 C 
ATOM      2  O   UNL     1       3.594  -2.184  -2.222  0.00  0.00    -0.272 OA
ATOM      3  N   UNL     1       4.897  -3.967  -2.438  0.00  0.00    -0.296 N 
ATOM      4  C   UNL     1       6.235  -4.524  -2.681  0.00  0.00    +0.127 C 
ATOM      5  C   UNL     1       6.599  -5.452  -1.515  0.00  0.00    +0.127 C 
ATOM      6  N   UNL     1       5.479  -6.374  -1.282  0.00  0.00    -0.298 N 
ATOM      7  C   UNL     1       4.141  -5.816  -1.038  0.00  0.00    +0.127 C 
ATOM      8  C   UNL     1       3.778  -4.889  -2.199  0.00  0.00    +0.127 C 
ATOM      9  C   UNL     1       5.678  -7.728  -1.291  0.00  0.00    +0.198 A 
ATOM     10  N   UNL     1       6.943  -8.217  -1.399  0.00  0.00    -0.295 N 
ATOM     11  H   UNL     1       7.695  -7.609  -1.468  0.00  0.00    +0.172 HD
ATOM     12  C   UNL     1       7.147  -9.552  -1.408  0.00  0.00    +0.253 A 
ATOM     13  O   UNL     1       8.275 -10.008  -1.504  0.00  0.00    -0.268 OA
ATOM     14  C   UNL     1       6.035 -10.407  -1.305  0.00  0.00    +0.091 A 
ATOM     15  C   UNL     1       4.790  -9.859  -1.199  0.00  0.00    +0.034 A 
ATOM     16  N   UNL     1       4.641  -8.536  -1.190  0.00  0.00    -0.223 NA
ENDROOT
BRANCH   1  17
ATOM     17  C   UNL     1       5.858  -1.700  -2.676  0.00  0.00    +0.324 C 
BRANCH  17  18
ATOM     18  O   UNL     1       5.401  -0.347  -2.616  0.00  0.00    -0.483 OA
BRANCH  18  22
ATOM     19  C   UNL     1       8.211   2.610  -3.230  0.00  0.00    +0.000 A 
ATOM     20  C   UNL     1       6.894   2.950  -2.980  0.00  0.00    +0.004 A 
ATOM     21  C   UNL     1       5.951   1.962  -2.774  0.00  0.00    +0.045 A 
ATOM     22  C   UNL     1       6.326   0.627  -2.818  0.00  0.00    +0.121 A 
ATOM     23  C   UNL     1       7.648   0.288  -3.070  0.00  0.00    +0.045 A 
ATOM     24  C   UNL     1       8.587   1.280  -3.274  0.00  0.00    +0.004 A 
ENDBRANCH  18  22
ENDBRANCH  17  18
ENDBRANCH   1  17
BRANCH  15  25
ATOM     25  C   UNL     1       3.582 -10.753  -1.087  0.00  0.00    -0.022 C 
BRANCH  25  26
ATOM     26  N   UNL     1       2.953 -10.564   0.227  0.00  0.00    +0.385 N 
ATOM     27  C   UNL     1       3.877 -11.009   1.278  0.00  0.00    -0.059 C 
ATOM     28  C   UNL     1       3.269 -10.707   2.652  0.00  0.00    +0.086 C 
ATOM     29  N   UNL     1       1.934 -11.322   2.717  0.00  0.00    -0.331 N 
ATOM     30  C   UNL     1       0.996 -11.059   1.615  0.00  0.00    +0.086 C 
ATOM     31  C   UNL     1       1.711 -11.344   0.289  0.00  0.00    -0.059 C 
ATOM     32  H   UNL     1       2.742  -9.586   0.360  0.00  0.00    -0.081 HD
BRANCH  29  33
ATOM     33  C   UNL     1       1.568 -12.133   3.795  0.00  0.00    +0.065 A 
ATOM     34  C   UNL     1       0.965 -11.573   4.913  0.00  0.00    +0.026 A 
ATOM     35  C   UNL     1       0.603 -12.377   5.977  0.00  0.00    +0.002 A 
ATOM     36  C   UNL     1       0.842 -13.738   5.930  0.00  0.00    +0.003 A 
ATOM     37  C   UNL     1       1.443 -14.300   4.819  0.00  0.00    +0.040 A 
ATOM     38  C   UNL     1       1.801 -13.503   3.748  0.00  0.00    +0.144 A 
ATOM     39  F   UNL     1       2.383 -14.053   2.659  0.00  0.00    -0.204 F 
ENDBRANCH  29  33
ENDBRANCH  25  26
ENDBRANCH  15  25
TORSDOF 6
