REMARK  Name = ZINC02185693
REMARK  9 active torsions:
REMARK  status: ('A' for Active; 'I' for Inactive)
REMARK    1  A    between atoms: C_1  and  C_2
REMARK    2  A    between atoms: C_3  and  C_33
REMARK    3  A    between atoms: C_4  and  C_23
REMARK    4  A    between atoms: C_10  and  C_15
REMARK    5  A    between atoms: C_18  and  O_21
REMARK    6  A    between atoms: O_21  and  C_22
REMARK    7  A    between atoms: C_33  and  O_35
REMARK    8  A    between atoms: O_35  and  C_36
REMARK    9  A    between atoms: C_36  and  C_37
REMARK                            x       y       z     vdW  Elec       q    Type
REMARK                         _______ _______ _______ _____ _____    ______ ____
ROOT
ATOM      1  C   UNL     1      -1.367   1.921  -0.492  0.00  0.00    +0.061 C 
ATOM      2  C   UNL     1      -0.033   1.270  -0.234  0.00  0.00    +0.016 C 
ATOM      3  C   UNL     1       0.029  -0.049   0.019  0.00  0.00    +0.065 C 
ATOM      4  C   UNL     1       1.341  -0.733   0.265  0.00  0.00    +0.094 C 
ATOM      5  C   UNL     1       2.417   0.266   0.610  0.00  0.00    +0.024 C 
ATOM      6  C   UNL     1       2.255   1.577   0.334  0.00  0.00    +0.016 C 
ATOM      7  N   UNL     1       1.107   2.024  -0.265  0.00  0.00    -0.321 N 
ATOM      8  C   UNL     1       3.326   2.582   0.677  0.00  0.00    +0.059 C 
ATOM      9  C   UNL     1       4.700   1.914   0.605  0.00  0.00    +0.032 C 
ATOM     10  C   UNL     1       4.716   0.728   1.575  0.00  0.00    +0.088 C 
ATOM     11  C   UNL     1       3.591  -0.207   1.223  0.00  0.00    +0.162 C 
ATOM     12  O   UNL     1       3.700  -1.391   1.472  0.00  0.00    -0.292 OA
ATOM     13  H   UNL     1       1.108   2.999  -0.773  0.00  0.00    +0.152 HD
ENDROOT
BRANCH   4  14
ATOM     14  C   UNL     1       1.746  -1.488  -0.975  0.00  0.00    -0.013 A 
ATOM     15  C   UNL     1       1.930  -0.810  -2.166  0.00  0.00    +0.055 A 
ATOM     16  C   UNL     1       2.305  -1.501  -3.306  0.00  0.00    +0.167 A 
ATOM     17  C   UNL     1       2.488  -2.881  -3.252  0.00  0.00    +0.168 A 
ATOM     18  C   UNL     1       2.298  -3.555  -2.057  0.00  0.00    +0.069 A 
ATOM     19  C   UNL     1       1.927  -2.858  -0.920  0.00  0.00    +0.049 A 
ATOM     20 CL   UNL     1       1.688  -3.705   0.576  0.00  0.00    -0.083 Cl
ATOM     21  O   UNL     1       2.847  -3.323  -4.493  0.00  0.00    -0.453 OA
ATOM     22  C   UNL     1       3.279  -2.150  -5.208  0.00  0.00    +0.466 C 
ATOM     23  O   UNL     1       2.550  -1.079  -4.581  0.00  0.00    -0.453 OA
ENDBRANCH   4  14
BRANCH   9  24
ATOM     24  C   UNL     1       5.766   2.906   0.994  0.00  0.00    -0.043 A 
ATOM     25  C   UNL     1       5.741   3.490   2.247  0.00  0.00    +0.007 A 
ATOM     26  C   UNL     1       6.721   4.396   2.608  0.00  0.00    +0.046 A 
ATOM     27  C   UNL     1       7.723   4.727   1.708  0.00  0.00    +0.120 A 
ATOM     28  C   UNL     1       7.743   4.143   0.449  0.00  0.00    +0.046 A 
ATOM     29  C   UNL     1       6.765   3.234   0.095  0.00  0.00    +0.007 A 
BRANCH  27  30
ATOM     30  O   UNL     1       8.684   5.622   2.058  0.00  0.00    -0.495 OA
ATOM     31  C   UNL     1       8.601   6.183   3.370  0.00  0.00    +0.277 C 
ENDBRANCH  27  30
ENDBRANCH   9  24
BRANCH   3  32
ATOM     32  C   UNL     1      -1.165  -0.805   0.055  0.00  0.00    +0.338 C 
ATOM     33  O   UNL     1      -2.243  -0.245  -0.021  0.00  0.00    -0.245 OA
BRANCH  32  34
ATOM     34  O   UNL     1      -1.110  -2.148   0.172  0.00  0.00    -0.457 OA
BRANCH  34  35
ATOM     35  C   UNL     1      -2.355  -2.849   0.201  0.00  0.00    +0.259 C 
BRANCH  35  36
ATOM     36  C   UNL     1      -2.097  -4.327   0.335  0.00  0.00    +0.006 C 
ATOM     37  C   UNL     1      -2.795  -5.040   1.184  0.00  0.00    +0.007 C 
ENDBRANCH  35  36
ENDBRANCH  34  35
ENDBRANCH  32  34
ENDBRANCH   3  32
TORSDOF 7
