REMARK  Name = ZINC07571351
REMARK  8 active torsions:
REMARK  status: ('A' for Active; 'I' for Inactive)
REMARK    1  A    between atoms: C_1  and  C_2
REMARK    2  A    between atoms: C_5  and  C_9
REMARK    3  A    between atoms: C_6  and  C_8
REMARK    4  A    between atoms: C_9  and  N_11
REMARK    5  A    between atoms: N_13  and  C_25
REMARK    6  A    between atoms: C_25  and  C_26
REMARK    7  A    between atoms: C_26  and  S_27
REMARK    8  A    between atoms: S_27  and  C_28
REMARK                            x       y       z     vdW  Elec       q    Type
REMARK                         _______ _______ _______ _____ _____    ______ ____
ROOT
ATOM      1  N   UNL     1      -2.298   8.620  -4.695  0.00  0.00    -0.152 NA
ATOM      2  C   UNL     1      -1.786   7.534  -4.124  0.00  0.00    +0.167 A 
ATOM      3  N   UNL     1      -1.347   6.394  -4.722  0.00  0.00    -0.320 N 
ATOM      4  C   UNL     1      -0.841   5.359  -3.954  0.00  0.00    +0.061 A 
ATOM      5  C   UNL     1      -0.346   4.119  -4.386  0.00  0.00    +0.076 A 
ATOM      6  C   UNL     1       0.126   3.187  -3.482  0.00  0.00    +0.164 A 
ATOM      7  C   UNL     1       0.124   3.460  -2.117  0.00  0.00    +0.163 A 
ATOM      8  C   UNL     1      -0.360   4.679  -1.667  0.00  0.00    +0.066 A 
ATOM      9  C   UNL     1      -0.829   5.600  -2.574  0.00  0.00    +0.043 A 
ATOM     10  S   UNL     1      -1.517   7.231  -2.438  0.00  0.00    -0.052 S 
ATOM     11  O   UNL     1       0.592   2.552  -1.219  0.00  0.00    -0.485 OA
ATOM     12  C   UNL     1       0.727   1.202  -1.678  0.00  0.00    +0.270 C 
ATOM     13  C   UNL     1       1.411   1.231  -3.052  0.00  0.00    +0.270 C 
ATOM     14  O   UNL     1       0.594   1.993  -3.946  0.00  0.00    -0.485 OA
ENDROOT
BRANCH   1  15
ATOM     15  C   UNL     1      -2.680   9.654  -3.941  0.00  0.00    +0.270 C 
ATOM     16  O   UNL     1      -2.559   9.603  -2.729  0.00  0.00    -0.268 OA
BRANCH  15  21
ATOM     17  C   UNL     1      -4.897  14.357  -6.414  0.00  0.00    +0.044 C 
ATOM     18  C   UNL     1      -4.317  13.126  -5.767  0.00  0.00    -0.050 A 
ATOM     19  C   UNL     1      -3.818  12.103  -6.554  0.00  0.00    +0.004 A 
ATOM     20  C   UNL     1      -3.281  10.976  -5.967  0.00  0.00    +0.013 A 
ATOM     21  C   UNL     1      -3.251  10.864  -4.577  0.00  0.00    +0.042 A 
ATOM     22  C   UNL     1      -3.756  11.898  -3.789  0.00  0.00    -0.038 A 
ATOM     23  C   UNL     1      -4.286  13.022  -4.388  0.00  0.00    +0.007 A 
ATOM     24  C   UNL     1      -3.721  11.787  -2.286  0.00  0.00    +0.044 C 
ENDBRANCH  15  21
ENDBRANCH   1  15
BRANCH   3  25
ATOM     25  C   UNL     1      -1.409   6.261  -6.179  0.00  0.00    +0.135 C 
BRANCH  25  26
ATOM     26  C   UNL     1      -2.675   6.945  -6.700  0.00  0.00    +0.090 C 
BRANCH  26  27
ATOM     27  S   UNL     1      -2.853   6.617  -8.475  0.00  0.00    -0.162 S 
ATOM     28  C   UNL     1      -4.380   7.483  -8.931  0.00  0.00    +0.084 C 
ENDBRANCH  26  27
ENDBRANCH  25  26
ENDBRANCH   3  25
TORSDOF 5
