REMARK  Name = ZINC04704750
REMARK  4 active torsions:
REMARK  status: ('A' for Active; 'I' for Inactive)
REMARK    1  A    between atoms: C_1  and  C_2
REMARK    2  A    between atoms: C_5  and  N_8
REMARK    3  A    between atoms: C_14  and  C_15
REMARK    4  A    between atoms: C_18  and  O_21
REMARK                            x       y       z     vdW  Elec       q    Type
REMARK                         _______ _______ _______ _____ _____    ______ ____
ROOT
ATOM      1  N   UNL     1       2.059   4.155  -0.144  0.00  0.00    -0.226 NA
ATOM      2  C   UNL     1       1.051   3.313  -0.167  0.00  0.00    +0.166 C 
ATOM      3  N   UNL     1       1.061   1.972  -0.487  0.00  0.00    -0.260 N 
ATOM      4  C   UNL     1      -0.055   1.264  -0.460  0.00  0.00    +0.256 C 
ATOM      5  O   UNL     1      -0.064   0.080  -0.740  0.00  0.00    -0.269 OA
ATOM      6  C   UNL     1      -1.290   1.977  -0.082  0.00  0.00    +0.078 C 
ATOM      7  C   UNL     1      -2.559   1.505   0.021  0.00  0.00    +0.028 C 
ATOM      8  S   UNL     1      -0.666   3.626   0.208  0.00  0.00    -0.049 S 
ATOM      9  H   UNL     1       1.896   1.544  -0.735  0.00  0.00    +0.157 HD
ENDROOT
BRANCH   1  14
ATOM     10  C   UNL     1       7.251   2.382  -1.474  0.00  0.00    +0.044 C 
ATOM     11  C   UNL     1       5.865   2.856  -1.119  0.00  0.00    -0.050 A 
ATOM     12  C   UNL     1       5.390   4.047  -1.639  0.00  0.00    +0.005 A 
ATOM     13  C   UNL     1       4.122   4.486  -1.318  0.00  0.00    +0.028 A 
ATOM     14  C   UNL     1       3.318   3.725  -0.467  0.00  0.00    +0.067 A 
ATOM     15  C   UNL     1       3.805   2.526   0.057  0.00  0.00    +0.028 A 
ATOM     16  C   UNL     1       5.073   2.096  -0.276  0.00  0.00    +0.005 A 
ENDBRANCH   1  14
BRANCH   7  17
ATOM     17  C   UNL     1      -2.819   0.065  -0.097  0.00  0.00    -0.024 A 
ATOM     18  C   UNL     1      -3.946  -0.391  -0.791  0.00  0.00    +0.011 A 
ATOM     19  C   UNL     1      -4.182  -1.743  -0.904  0.00  0.00    +0.046 A 
ATOM     20  C   UNL     1      -3.310  -2.654  -0.320  0.00  0.00    +0.117 A 
ATOM     21  C   UNL     1      -2.193  -2.207   0.376  0.00  0.00    +0.046 A 
ATOM     22  C   UNL     1      -1.944  -0.858   0.490  0.00  0.00    +0.011 A 
BRANCH  20  23
ATOM     23  O   UNL     1      -3.551  -3.986  -0.429  0.00  0.00    -0.507 OA
ATOM     24  H   UNL     1      -4.095  -4.347   0.285  0.00  0.00    +0.292 HD
ENDBRANCH  20  23
ENDBRANCH   7  17
TORSDOF 3
