REMARK  Name = ZINC40984059
REMARK  9 active torsions:
REMARK  status: ('A' for Active; 'I' for Inactive)
REMARK    1  A    between atoms: C_1  and  C_2
REMARK    2  A    between atoms: C_3  and  C_16
REMARK    3  A    between atoms: C_5  and  C_7
REMARK    4  A    between atoms: C_12  and  O_13
REMARK    5  A    between atoms: O_13  and  C_14
REMARK    6  A    between atoms: C_16  and  N_17
REMARK    7  A    between atoms: C_20  and  C_23
REMARK    8  A    between atoms: N_28  and  C_31
REMARK    9  A    between atoms: C_31  and  C_32
REMARK                            x       y       z     vdW  Elec       q    Type
REMARK                         _______ _______ _______ _____ _____    ______ ____
ROOT
ATOM      1  N   UNL     1      -2.997  -0.225  -1.363  0.00  0.00    +0.383 N 
ATOM      2  C   UNL     1      -2.263   0.867  -2.013  0.00  0.00    -0.078 C 
ATOM      3  C   UNL     1      -2.690   0.974  -3.478  0.00  0.00    -0.006 C 
ATOM      4  C   UNL     1      -4.194   1.255  -3.547  0.00  0.00    +0.072 C 
ATOM      5  C   UNL     1      -4.945   0.148  -2.802  0.00  0.00    -0.006 C 
ATOM      6  C   UNL     1      -4.434   0.072  -1.362  0.00  0.00    -0.078 C 
ATOM      7  H   UNL     1      -2.833  -1.084  -1.867  0.00  0.00    -0.081 HD
ENDROOT
BRANCH   4   8
ATOM      8  C   UNL     1      -4.636   1.284  -4.987  0.00  0.00    +0.219 C 
ATOM      9  O   UNL     1      -4.927   0.251  -5.553  0.00  0.00    -0.275 OA
ATOM     10  N   UNL     1      -4.709   2.457  -5.647  0.00  0.00    -0.299 N 
ATOM     11  C   UNL     1      -4.246   3.704  -5.021  0.00  0.00    +0.123 C 
ATOM     12  C   UNL     1      -3.286   4.406  -5.987  0.00  0.00    +0.103 C 
ATOM     13  N   UNL     1      -3.942   4.571  -7.291  0.00  0.00    -0.296 NA
ATOM     14  C   UNL     1      -4.254   3.271  -7.899  0.00  0.00    +0.103 C 
ATOM     15  C   UNL     1      -5.248   2.522  -7.014  0.00  0.00    +0.123 C 
BRANCH  13  16
ATOM     16  C   UNL     1      -3.121   5.391  -8.193  0.00  0.00    +0.111 C 
BRANCH  16  17
ATOM     17  C   UNL     1      -3.923   5.743  -9.420  0.00  0.00    -0.019 C 
ATOM     18  C   UNL     1      -4.069   6.998  -9.768  0.00  0.00    +0.005 C 
ENDBRANCH  16  17
ENDBRANCH  13  16
ENDBRANCH   4   8
BRANCH   1  19
ATOM     19  C   UNL     1      -2.527  -0.374   0.021  0.00  0.00    -0.019 C 
BRANCH  19  22
ATOM     20  C   UNL     1      -0.046   1.526   0.034  0.00  0.00    +0.088 C 
ATOM     21  C   UNL     1      -0.015   0.020   0.024  0.00  0.00    +0.124 A 
ATOM     22  C   UNL     1      -1.082  -0.800   0.018  0.00  0.00    +0.066 A 
ATOM     23  N   UNL     1      -0.630  -2.063   0.008  0.00  0.00    -0.216 NA
ATOM     24  C   UNL     1       0.683  -2.040   0.009  0.00  0.00    +0.231 A 
ATOM     25  O   UNL     1       1.087  -0.757   0.013  0.00  0.00    -0.440 OA
BRANCH  24  26
ATOM     26  C   UNL     1       1.567  -3.223   0.000  0.00  0.00    +0.079 A 
ATOM     27  C   UNL     1       1.020  -4.507  -0.015  0.00  0.00    +0.032 A 
ATOM     28  C   UNL     1       1.851  -5.608  -0.023  0.00  0.00    +0.019 A 
ATOM     29  C   UNL     1       3.227  -5.444  -0.016  0.00  0.00    +0.019 A 
ATOM     30  C   UNL     1       3.779  -4.178  -0.000  0.00  0.00    +0.047 A 
ATOM     31  C   UNL     1       2.958  -3.062   0.002  0.00  0.00    +0.132 A 
ATOM     32 BR   UNL     1       1.110  -7.348  -0.044  0.00  0.00    -0.050 Br
BRANCH  31  33
ATOM     33  O   UNL     1       3.500  -1.817   0.011  0.00  0.00    -0.494 OA
ATOM     34  C   UNL     1       4.926  -1.730   0.012  0.00  0.00    +0.277 C 
ENDBRANCH  31  33
ENDBRANCH  24  26
ENDBRANCH  19  22
ENDBRANCH   1  19
TORSDOF 7
