REMARK  Name = ZINC20258452
REMARK  6 active torsions:
REMARK  status: ('A' for Active; 'I' for Inactive)
REMARK    1  A    between atoms: C_1  and  C_2
REMARK    2  A    between atoms: C_2  and  N_3
REMARK    3  A    between atoms: N_3  and  C_4
REMARK    4  A    between atoms: C_6  and  O_11
REMARK    5  A    between atoms: C_9  and  C_10
REMARK    6  A    between atoms: C_12  and  C_14
REMARK                            x       y       z     vdW  Elec       q    Type
REMARK                         _______ _______ _______ _____ _____    ______ ____
ROOT
ATOM      1  N   UNL     1      -0.028   0.001  -2.412  0.00  0.00    -0.266 N 
ATOM      2  C   UNL     1      -1.210   0.331  -2.969  0.00  0.00    +0.271 C 
ATOM      3  O   UNL     1      -1.239   1.029  -3.964  0.00  0.00    -0.268 OA
ENDROOT
BRANCH   2   4
ATOM      4  C   UNL     1      -2.468  -0.153  -2.370  0.00  0.00    +0.142 A 
ATOM      5  C   UNL     1      -3.669   0.096  -3.005  0.00  0.00    +0.119 A 
ATOM      6  N   UNL     1      -4.822  -0.349  -2.464  0.00  0.00    -0.326 N 
ATOM      7  H   UNL     1      -5.778  -0.158  -2.973  0.00  0.00    +0.168 HD
ATOM      8  C   UNL     1      -4.787  -1.028  -1.298  0.00  0.00    +0.267 A 
ATOM      9  O   UNL     1      -5.819  -1.434  -0.793  0.00  0.00    -0.266 OA
ATOM     10  C   UNL     1      -3.541  -1.266  -0.666  0.00  0.00    +0.181 A 
ATOM     11  N   UNL     1      -2.437  -0.829  -1.212  0.00  0.00    -0.244 NA
ENDBRANCH   2   4
BRANCH   1  12
ATOM     12  C   UNL     1       0.004  -0.709  -1.208  0.00  0.00    +0.043 A 
ATOM     13  C   UNL     1       0.023  -2.097  -1.219  0.00  0.00    +0.069 A 
ATOM     14  C   UNL     1       0.048  -2.797  -0.023  0.00  0.00    +0.119 A 
ATOM     15  C   UNL     1       0.061  -2.109   1.182  0.00  0.00    +0.046 A 
ATOM     16  C   UNL     1       0.047  -0.727   1.192  0.00  0.00    +0.009 A 
ATOM     17  C   UNL     1       0.022  -0.026   0.002  0.00  0.00    -0.029 A 
ATOM     18  C   UNL     1       0.007   1.481   0.016  0.00  0.00    +0.045 C 
BRANCH  14  19
ATOM     19  O   UNL     1       0.061  -4.156  -0.031  0.00  0.00    -0.507 OA
ATOM     20  H   UNL     1       0.081  -4.711   0.918  0.00  0.00    +0.292 HD
ENDBRANCH  14  19
ENDBRANCH   1  12
BRANCH   1  22
ATOM     21  C   UNL     1       1.591  -0.665  -4.120  0.00  0.00    +0.025 C 
ATOM     22  C   UNL     1       1.224   0.385  -3.069  0.00  0.00    +0.111 C 
ENDBRANCH   1  22
TORSDOF 4
