REMARK  Name = ZINC11491182
REMARK  7 active torsions:
REMARK  status: ('A' for Active; 'I' for Inactive)
REMARK    1  A    between atoms: C_1  and  N_2
REMARK    2  A    between atoms: N_2  and  C_3
REMARK    3  A    between atoms: C_8  and  C_9
REMARK    4  A    between atoms: C_9  and  O_11
REMARK    5  A    between atoms: O_11  and  C_12
REMARK    6  A    between atoms: C_12  and  C_13
REMARK    7  A    between atoms: C_19  and  C_21
REMARK                            x       y       z     vdW  Elec       q    Type
REMARK                         _______ _______ _______ _____ _____    ______ ____
ROOT
ATOM      1  C   UNL     1      -0.239   1.286   4.883  0.00  0.00    +0.050 A 
ATOM      2  C   UNL     1      -0.834   1.723   6.061  0.00  0.00    +0.024 A 
ATOM      3  C   UNL     1      -1.947   2.537   6.013  0.00  0.00    +0.002 A 
ATOM      4  C   UNL     1      -2.478   2.929   4.794  0.00  0.00    +0.001 A 
ATOM      5  C   UNL     1      -1.899   2.510   3.616  0.00  0.00    +0.017 A 
ATOM      6  C   UNL     1      -0.771   1.686   3.647  0.00  0.00    +0.080 A 
ENDROOT
BRANCH   1   8
ATOM      7  C   UNL     1       0.716  -0.995   4.947  0.00  0.00    +0.138 C 
ATOM      8  N   UNL     1       0.880   0.461   4.929  0.00  0.00    -0.269 N 
ATOM      9  C   UNL     1       2.114   1.001   4.957  0.00  0.00    +0.257 C 
ATOM     10  O   UNL     1       3.094   0.281   4.908  0.00  0.00    -0.269 OA
BRANCH   9  11
ATOM     11  C   UNL     1       2.277   2.454   5.045  0.00  0.00    +0.074 A 
ATOM     12  C   UNL     1       3.439   3.209   4.992  0.00  0.00    +0.021 A 
ATOM     13  C   UNL     1       3.305   4.570   5.100  0.00  0.00    +0.008 A 
ATOM     14  C   UNL     1       2.066   5.106   5.252  0.00  0.00    +0.046 A 
ATOM     15  S   UNL     1       1.030   3.715   5.242  0.00  0.00    -0.092 S 
ENDBRANCH   9  11
ENDBRANCH   1   8
BRANCH   6  16
ATOM     16  C   UNL     1      -0.148   1.234   2.391  0.00  0.00    +0.341 C 
ATOM     17  O   UNL     1       0.833   0.517   2.423  0.00  0.00    -0.245 OA
BRANCH  16  18
ATOM     18  O   UNL     1      -0.666   1.615   1.207  0.00  0.00    -0.452 OA
BRANCH  18  19
ATOM     19  C   UNL     1      -0.000   1.132   0.010  0.00  0.00    +0.328 C 
BRANCH  19  20
ATOM     20  C   UNL     1      -0.714   1.657  -1.209  0.00  0.00    +0.258 C 
ATOM     21  O   UNL     1      -1.688   2.369  -1.081  0.00  0.00    -0.272 OA
ATOM     22  N   UNL     1      -0.271   1.336  -2.440  0.00  0.00    -0.238 N 
ATOM     23  C   UNL     1      -0.909   1.806  -3.530  0.00  0.00    +0.303 C 
ATOM     24  O   UNL     1      -1.885   2.519  -3.402  0.00  0.00    -0.253 OA
ATOM     25  N   UNL     1      -0.466   1.485  -4.762  0.00  0.00    -0.313 N 
ATOM     26  H   UNL     1       0.508   0.767  -2.542  0.00  0.00    +0.159 HD
ATOM     27  H   UNL     1       0.313   0.916  -4.864  0.00  0.00    +0.146 HD
ATOM     28  H   UNL     1      -0.925   1.823  -5.546  0.00  0.00    +0.146 HD
ENDBRANCH  19  20
ENDBRANCH  18  19
ENDBRANCH  16  18
ENDBRANCH   6  16
TORSDOF 6
