REMARK  Name = ZINC62467438
REMARK  4 active torsions:
REMARK  status: ('A' for Active; 'I' for Inactive)
REMARK    1  A    between atoms: C_1  and  C_2
REMARK    2  A    between atoms: C_5  and  C_8
REMARK    3  A    between atoms: C_9  and  C_10
REMARK    4  A    between atoms: C_11  and  C_19
REMARK                            x       y       z     vdW  Elec       q    Type
REMARK                         _______ _______ _______ _____ _____    ______ ____
ROOT
ATOM      1  C   UNL     1       0.092  -6.396   1.131  0.00  0.00    +0.072 A 
ATOM      2  C   UNL     1       0.103  -7.230   2.261  0.00  0.00    +0.160 A 
ATOM      3  N   UNL     1       0.119  -8.529   1.781  0.00  0.00    -0.295 N 
ATOM      4  C   UNL     1       0.135  -9.733   2.410  0.00  0.00    +0.093 A 
ATOM      5  C   UNL     1       0.149 -10.884   1.698  0.00  0.00    +0.018 A 
ATOM      6  C   UNL     1       0.149 -10.844   0.297  0.00  0.00    +0.005 A 
ATOM      7  C   UNL     1       0.134  -9.641  -0.342  0.00  0.00    +0.045 A 
ATOM      8  C   UNL     1       0.118  -8.455   0.417  0.00  0.00    +0.116 A 
ATOM      9  N   UNL     1       0.096  -7.176   0.051  0.00  0.00    -0.339 N 
ATOM     10  H   UNL     1       0.087  -6.858  -0.866  0.00  0.00    +0.167 HD
ENDROOT
BRANCH   2  11
ATOM     11  C   UNL     1       0.098  -6.828   3.608  0.00  0.00    +0.405 C 
ATOM     12  O   UNL     1       0.111  -7.744   4.578  0.00  0.00    -0.239 OA
ATOM     13  O   UNL     1       0.082  -5.530   3.917  0.00  0.00    -0.239 OA
ENDBRANCH   2  11
BRANCH   1  15
ATOM     14  C   UNL     1       0.058  -4.247  -0.021  0.00  0.00    +0.010 C 
ATOM     15  C   UNL     1       0.073  -4.925   1.139  0.00  0.00    +0.028 C 
BRANCH  14  20
ATOM     16  C   UNL     1      -0.018   1.503   0.010  0.00  0.00    +0.044 C 
ATOM     17  C   UNL     1       0.002  -0.004   0.002  0.00  0.00    -0.050 A 
ATOM     18  C   UNL     1       0.006  -0.686  -1.202  0.00  0.00    +0.004 A 
ATOM     19  C   UNL     1       0.024  -2.065  -1.218  0.00  0.00    +0.008 A 
ATOM     20  C   UNL     1       0.039  -2.774  -0.013  0.00  0.00    -0.025 A 
ATOM     21  C   UNL     1       0.036  -2.078   1.199  0.00  0.00    +0.008 A 
ATOM     22  C   UNL     1       0.023  -0.699   1.199  0.00  0.00    +0.004 A 
ENDBRANCH  14  20
ENDBRANCH   1  15
TORSDOF 3
