REMARK  Name = ZINC64790692
REMARK  6 active torsions:
REMARK  status: ('A' for Active; 'I' for Inactive)
REMARK    1  A    between atoms: C_1  and  C_2
REMARK    2  A    between atoms: C_5  and  C_8
REMARK    3  A    between atoms: C_10  and  C_28
REMARK    4  A    between atoms: C_15  and  N_17
REMARK    5  A    between atoms: N_17  and  S_18
REMARK    6  A    between atoms: S_18  and  C_21
REMARK                            x       y       z     vdW  Elec       q    Type
REMARK                         _______ _______ _______ _____ _____    ______ ____
ROOT
ATOM      1  C   UNL     1       0.060  -4.245  -0.021  0.00  0.00    +0.055 C 
ATOM      2  C   UNL     1       0.071  -4.973   1.293  0.00  0.00    +0.088 C 
ATOM      3  C   UNL     1      -0.699  -6.295   1.200  0.00  0.00    +0.148 C 
ATOM      4  N   UNL     1      -0.351  -6.935  -0.068  0.00  0.00    -0.221 N 
ATOM      5  C   UNL     1      -0.001  -6.223  -1.181  0.00  0.00    +0.228 A 
ATOM      6  N   UNL     1       0.233  -7.082  -2.144  0.00  0.00    -0.293 N 
ATOM      7  C   UNL     1       0.056  -8.326  -1.688  0.00  0.00    +0.255 A 
ATOM      8  N   UNL     1      -0.299  -8.280  -0.420  0.00  0.00    -0.130 NA
ATOM      9  N   UNL     1       0.063  -4.865  -1.170  0.00  0.00    -0.217 NA
ATOM     10  H   UNL     1       0.495  -6.849  -3.049  0.00  0.00    +0.172 HD
ENDROOT
BRANCH   1  15
ATOM     11  C   UNL     1      -0.018   1.503   0.010  0.00  0.00    +0.044 C 
ATOM     12  C   UNL     1       0.002  -0.004   0.002  0.00  0.00    -0.050 A 
ATOM     13  C   UNL     1       0.006  -0.686  -1.202  0.00  0.00    +0.004 A 
ATOM     14  C   UNL     1       0.025  -2.064  -1.218  0.00  0.00    +0.010 A 
ATOM     15  C   UNL     1       0.041  -2.774  -0.013  0.00  0.00    -0.004 A 
ATOM     16  C   UNL     1       0.037  -2.078   1.200  0.00  0.00    +0.010 A 
ATOM     17  C   UNL     1       0.023  -0.699   1.199  0.00  0.00    +0.004 A 
ENDBRANCH   1  15
BRANCH   3  18
ATOM     18  C   UNL     1      -2.181  -6.025   1.246  0.00  0.00    -0.004 A 
ATOM     19  C   UNL     1      -2.770  -5.237   0.274  0.00  0.00    +0.007 A 
ATOM     20  C   UNL     1      -4.130  -4.990   0.316  0.00  0.00    +0.000 A 
ATOM     21  C   UNL     1      -4.901  -5.530   1.328  0.00  0.00    +0.001 A 
ATOM     22  C   UNL     1      -4.313  -6.318   2.299  0.00  0.00    +0.020 A 
ATOM     23  C   UNL     1      -2.953  -6.571   2.255  0.00  0.00    +0.046 A 
ATOM     24 CL   UNL     1      -2.215  -7.566   3.471  0.00  0.00    -0.083 Cl
ENDBRANCH   3  18
BRANCH   7  25
ATOM     25  N   UNL     1       0.221  -9.492  -2.438  0.00  0.00    -0.058 NA
BRANCH  25  26
ATOM     26  S   UNL     1      -0.034 -10.970  -1.737  0.00  0.00    +0.094 S 
ATOM     27  O   UNL     1       0.977 -11.133  -0.752  0.00  0.00    -0.148 OA
ATOM     28  O   UNL     1      -1.419 -11.039  -1.426  0.00  0.00    -0.148 OA
BRANCH  26  29
ATOM     29  C   UNL     1       0.266 -12.191  -2.972  0.00  0.00    +0.110 A 
ATOM     30  C   UNL     1      -0.767 -12.621  -3.784  0.00  0.00    +0.029 A 
ATOM     31  C   UNL     1      -0.532 -13.578  -4.753  0.00  0.00    +0.002 A 
ATOM     32  C   UNL     1       0.736 -14.106  -4.910  0.00  0.00    +0.000 A 
ATOM     33  C   UNL     1       1.769 -13.676  -4.098  0.00  0.00    +0.002 A 
ATOM     34  C   UNL     1       1.535 -12.715  -3.132  0.00  0.00    +0.029 A 
ENDBRANCH  26  29
ENDBRANCH  25  26
ENDBRANCH   7  25
TORSDOF 5
