REMARK  Name = ZINC38793462
REMARK  7 active torsions:
REMARK  status: ('A' for Active; 'I' for Inactive)
REMARK    1  A    between atoms: C_1  and  O_2
REMARK    2  A    between atoms: O_2  and  C_3
REMARK    3  A    between atoms: C_8  and  C_9
REMARK    4  A    between atoms: C_12  and  S_21
REMARK    5  A    between atoms: N_13  and  C_14
REMARK    6  A    between atoms: S_21  and  C_22
REMARK    7  A    between atoms: C_22  and  C_23
REMARK                            x       y       z     vdW  Elec       q    Type
REMARK                         _______ _______ _______ _____ _____    ______ ____
ROOT
ATOM      1  C   UNL     1      -0.069  -2.777   0.227  0.00  0.00    +0.173 A 
ATOM      2  N   UNL     1       1.169  -2.346   0.301  0.00  0.00    -0.128 NA
ATOM      3  N   UNL     1       1.978  -3.342   0.363  0.00  0.00    -0.122 NA
ATOM      4  C   UNL     1       1.309  -4.472   0.332  0.00  0.00    +0.197 A 
ATOM      5  N   UNL     1      -0.019  -4.154   0.250  0.00  0.00    -0.270 N 
ENDROOT
BRANCH   5   6
ATOM      6  C   UNL     1      -1.103  -5.043   0.198  0.00  0.00    +0.051 A 
ATOM      7  C   UNL     1      -2.010  -5.096   1.247  0.00  0.00    +0.028 A 
ATOM      8  C   UNL     1      -3.076  -5.972   1.193  0.00  0.00    +0.022 A 
ATOM      9  C   UNL     1      -3.240  -6.797   0.094  0.00  0.00    +0.041 A 
ATOM     10  C   UNL     1      -2.337  -6.746  -0.954  0.00  0.00    +0.022 A 
ATOM     11  C   UNL     1      -1.273  -5.867  -0.907  0.00  0.00    +0.028 A 
ATOM     12 CL   UNL     1      -4.582  -7.897   0.029  0.00  0.00    -0.084 Cl
ENDBRANCH   5   6
BRANCH   1  18
ATOM     13  C   UNL     1      -1.460  -0.860   1.012  0.00  0.00    +0.131 A 
ATOM     14  C   UNL     1      -2.602  -0.081   0.920  0.00  0.00    +0.046 A 
ATOM     15  C   UNL     1      -3.568  -0.376  -0.024  0.00  0.00    +0.004 A 
ATOM     16  C   UNL     1      -3.403  -1.450  -0.882  0.00  0.00    +0.001 A 
ATOM     17  C   UNL     1      -2.271  -2.235  -0.803  0.00  0.00    +0.015 A 
ATOM     18  C   UNL     1      -1.286  -1.944   0.142  0.00  0.00    +0.061 A 
BRANCH  13  20
ATOM     19  C   UNL     1      -0.756   0.548   2.792  0.00  0.00    +0.277 C 
ATOM     20  O   UNL     1      -0.510  -0.572   1.939  0.00  0.00    -0.494 OA
ENDBRANCH  13  20
ENDBRANCH   1  18
BRANCH   4  21
ATOM     21  S   UNL     1       1.994  -6.095   0.390  0.00  0.00    -0.076 S 
BRANCH  21  22
ATOM     22  C   UNL     1       3.782  -5.812   0.501  0.00  0.00    +0.173 C 
BRANCH  22  23
ATOM     23  C   UNL     1       4.497  -7.138   0.559  0.00  0.00    +0.227 C 
ATOM     24  O   UNL     1       3.863  -8.171   0.528  0.00  0.00    -0.275 OA
ATOM     25  N   UNL     1       5.842  -7.175   0.644  0.00  0.00    -0.285 N 
ATOM     26  C   UNL     1       6.422  -7.823   1.636  0.00  0.00    +0.036 C 
ATOM     27  C   UNL     1       5.607  -8.399   2.712  0.00  0.00    +0.025 C 
ATOM     28  C   UNL     1       6.193  -9.063   3.728  0.00  0.00    +0.032 C 
ATOM     29  C   UNL     1       7.651  -9.214   3.764  0.00  0.00    +0.095 C 
ATOM     30  N   UNL     1       8.495  -9.790   4.598  0.00  0.00    -0.190 NA
ATOM     31  C   UNL     1       9.749  -9.626   4.143  0.00  0.00    +0.369 C 
ATOM     32  O   UNL     1      10.854 -10.099   4.766  0.00  0.00    -0.243 OA
ATOM     33  N   UNL     1       9.767  -8.950   3.017  0.00  0.00    -0.190 NA
ATOM     34  C   UNL     1       8.480  -8.639   2.688  0.00  0.00    +0.097 C 
ATOM     35  C   UNL     1       7.893  -7.974   1.660  0.00  0.00    +0.053 C 
ATOM     36  H   UNL     1       6.383  -6.725  -0.024  0.00  0.00    +0.155 HD
ENDBRANCH  22  23
ENDBRANCH  21  22
ENDBRANCH   4  21
TORSDOF 6
