REMARK  Name = ZINC24990686
REMARK  10 active torsions:
REMARK  status: ('A' for Active; 'I' for Inactive)
REMARK    1  A    between atoms: C_1  and  C_2
REMARK    2  A    between atoms: C_4  and  C_33
REMARK    3  A    between atoms: C_8  and  N_32
REMARK    4  A    between atoms: C_9  and  C_11
REMARK    5  A    between atoms: C_11  and  O_13
REMARK    6  A    between atoms: O_13  and  C_14
REMARK    7  A    between atoms: C_14  and  C_15
REMARK    8  A    between atoms: C_19  and  C_28
REMARK    9  A    between atoms: C_28  and  O_30
REMARK   10  A    between atoms: O_30  and  C_31
REMARK                            x       y       z     vdW  Elec       q    Type
REMARK                         _______ _______ _______ _____ _____    ______ ____
ROOT
ATOM      1  O   UNL     1       1.237  -5.935  -1.052  0.00  0.00    -0.451 OA
ENDROOT
BRANCH   1   2
ATOM      2  C   UNL     1       1.246  -7.273  -0.875  0.00  0.00    +0.348 C 
ATOM      3  O   UNL     1       0.288  -7.826  -0.367  0.00  0.00    -0.244 OA
BRANCH   2  12
ATOM      4  C   UNL     1       3.342 -12.388  -1.127  0.00  0.00    +0.044 C 
ATOM      5  C   UNL     1       4.234 -11.305  -1.677  0.00  0.00    -0.037 A 
ATOM      6  C   UNL     1       5.470 -11.614  -2.194  0.00  0.00    +0.025 A 
ATOM      7  C   UNL     1       6.290 -10.616  -2.699  0.00  0.00    +0.014 A 
ATOM      8  N   UNL     1       5.893  -9.358  -2.690  0.00  0.00    -0.353 N 
ATOM      9  C   UNL     1       4.720  -9.012  -2.207  0.00  0.00    +0.088 A 
ATOM     10  C   UNL     1       3.812  -9.952  -1.670  0.00  0.00    +0.030 A 
ATOM     11  C   UNL     1       2.561  -9.394  -1.180  0.00  0.00    +0.055 A 
ATOM     12  C   UNL     1       2.369  -8.033  -1.279  0.00  0.00    +0.119 A 
ATOM     13  S   UNL     1       3.873  -7.459  -2.044  0.00  0.00    -0.062 S 
ATOM     14  C   UNL     1       7.642 -10.971  -3.261  0.00  0.00    +0.063 C 
ATOM     15  H   UNL     1       6.549  -8.572  -3.093  0.00  0.00    +0.166 HD
BRANCH  11  16
ATOM     16  N   UNL     1       1.585 -10.211  -0.628  0.00  0.00    -0.356 N 
ATOM     17  H   UNL     1       0.644  -9.774  -0.263  0.00  0.00    +0.142 HD
ATOM     18  H   UNL     1       1.752 -11.296  -0.556  0.00  0.00    +0.142 HD
ENDBRANCH  11  16
ENDBRANCH   2  12
ENDBRANCH   1   2
BRANCH   1  19
ATOM     19  C   UNL     1       0.070  -5.231  -0.621  0.00  0.00    +0.328 C 
BRANCH  19  20
ATOM     20  C   UNL     1       0.240  -3.760  -0.897  0.00  0.00    +0.258 C 
ATOM     21  O   UNL     1       1.290  -3.343  -1.339  0.00  0.00    -0.272 OA
ATOM     22  N   UNL     1      -0.774  -2.907  -0.654  0.00  0.00    -0.261 N 
ATOM     23  C   UNL     1      -2.076  -3.391  -0.165  0.00  0.00    +0.170 C 
ATOM     24  C   UNL     1      -3.170  -2.626  -0.923  0.00  0.00    +0.299 C 
ATOM     25  O   UNL     1      -2.995  -1.226  -0.697  0.00  0.00    -0.474 OA
ATOM     26  C   UNL     1      -1.753  -0.705  -0.880  0.00  0.00    +0.143 A 
ATOM     27  C   UNL     1      -0.627  -1.524  -0.859  0.00  0.00    +0.078 A 
ATOM     28  C   UNL     1       0.634  -0.979  -1.043  0.00  0.00    +0.027 A 
ATOM     29  C   UNL     1       0.773   0.381  -1.252  0.00  0.00    +0.002 A 
ATOM     30  C   UNL     1      -0.344   1.195  -1.276  0.00  0.00    +0.004 A 
ATOM     31  C   UNL     1      -1.604   0.657  -1.091  0.00  0.00    +0.047 A 
BRANCH  24  32
ATOM     32  C   UNL     1      -4.526  -3.053  -0.421  0.00  0.00    +0.350 C 
ATOM     33  O   UNL     1      -5.231  -2.263   0.161  0.00  0.00    -0.247 OA
BRANCH  32  34
ATOM     34  O   UNL     1      -4.950  -4.311  -0.621  0.00  0.00    -0.465 OA
ATOM     35  C   UNL     1      -6.266  -4.652  -0.110  0.00  0.00    +0.280 C 
ENDBRANCH  32  34
ENDBRANCH  24  32
ENDBRANCH  19  20
ENDBRANCH   1  19
TORSDOF 7
