REMARK  Name = ZINC44900059
REMARK  9 active torsions:
REMARK  status: ('A' for Active; 'I' for Inactive)
REMARK    1  A    between atoms: C_1  and  C_2
REMARK    2  A    between atoms: C_5  and  C_8
REMARK    3  A    between atoms: C_8  and  C_10
REMARK    4  A    between atoms: C_8  and  N_16
REMARK    5  A    between atoms: C_17  and  C_19
REMARK    6  A    between atoms: C_19  and  N_20
REMARK    7  A    between atoms: N_20  and  C_21
REMARK    8  A    between atoms: N_20  and  S_29
REMARK    9  A    between atoms: S_29  and  C_32
REMARK                            x       y       z     vdW  Elec       q    Type
REMARK                         _______ _______ _______ _____ _____    ______ ____
ROOT
ATOM      1  C   UNL     1       1.718  -7.066   1.149  0.00  0.00    +0.227 C 
ENDROOT
BRANCH   1   3
ATOM      2  N   UNL     1      -0.152  -7.461  -0.421  0.00  0.00    -0.303 N 
ATOM      3  C   UNL     1       0.973  -7.924   0.159  0.00  0.00    +0.233 C 
ATOM      4  O   UNL     1       1.385  -9.031  -0.116  0.00  0.00    -0.274 OA
ATOM      5  H   UNL     1      -0.482  -6.576  -0.201  0.00  0.00    +0.150 HD
BRANCH   2   6
ATOM      6  C   UNL     1      -0.877  -8.295  -1.383  0.00  0.00    +0.134 C 
BRANCH   6  11
ATOM      7  C   UNL     1      -3.931  -4.920  -4.943  0.00  0.00    +0.044 C 
ATOM      8  C   UNL     1      -3.134  -5.800  -4.015  0.00  0.00    -0.050 A 
ATOM      9  C   UNL     1      -2.479  -6.912  -4.509  0.00  0.00    +0.004 A 
ATOM     10  C   UNL     1      -1.748  -7.719  -3.658  0.00  0.00    +0.006 A 
ATOM     11  C   UNL     1      -1.673  -7.414  -2.312  0.00  0.00    -0.023 A 
ATOM     12  C   UNL     1      -2.328  -6.302  -1.817  0.00  0.00    +0.006 A 
ATOM     13  C   UNL     1      -3.055  -5.492  -2.669  0.00  0.00    +0.004 A 
ENDBRANCH   6  11
BRANCH   6  14
ATOM     14  C   UNL     1      -1.810  -9.219  -0.644  0.00  0.00    -0.023 A 
ATOM     15  C   UNL     1      -2.519  -8.756   0.449  0.00  0.00    +0.006 A 
ATOM     16  C   UNL     1      -3.375  -9.604   1.127  0.00  0.00    +0.000 A 
ATOM     17  C   UNL     1      -3.523 -10.914   0.711  0.00  0.00    +0.000 A 
ATOM     18  C   UNL     1      -2.815 -11.376  -0.382  0.00  0.00    +0.000 A 
ATOM     19  C   UNL     1      -1.962 -10.527  -1.063  0.00  0.00    +0.006 A 
ENDBRANCH   6  14
ENDBRANCH   2   6
ENDBRANCH   1   3
BRANCH   1  20
ATOM     20  N   UNL     1       2.897  -7.790   1.632  0.00  0.00    -0.194 N 
BRANCH  20  21
ATOM     21  C   UNL     1       4.089  -7.750   0.903  0.00  0.00    +0.053 A 
ATOM     22  C   UNL     1       4.565  -8.899   0.285  0.00  0.00    +0.027 A 
ATOM     23  C   UNL     1       5.743  -8.859  -0.435  0.00  0.00    +0.042 A 
ATOM     24  C   UNL     1       6.450  -7.673  -0.540  0.00  0.00    +0.142 A 
ATOM     25  C   UNL     1       5.979  -6.525   0.075  0.00  0.00    +0.078 A 
ATOM     26  C   UNL     1       4.797  -6.561   0.792  0.00  0.00    +0.047 A 
ATOM     27 CL   UNL     1       6.868  -5.041  -0.058  0.00  0.00    -0.081 Cl
ATOM     28  F   UNL     1       7.603  -7.636  -1.244  0.00  0.00    -0.204 F 
ENDBRANCH  20  21
BRANCH  20  29
ATOM     29  S   UNL     1       2.817  -8.655   3.042  0.00  0.00    +0.075 S 
ATOM     30  O   UNL     1       4.157  -8.879   3.458  0.00  0.00    -0.150 OA
ATOM     31  O   UNL     1       1.862  -8.001   3.866  0.00  0.00    -0.150 OA
BRANCH  29  32
ATOM     32  C   UNL     1       2.142 -10.234   2.647  0.00  0.00    +0.109 A 
ATOM     33  C   UNL     1       0.773 -10.396   2.550  0.00  0.00    +0.029 A 
ATOM     34  C   UNL     1       0.243 -11.635   2.240  0.00  0.00    +0.002 A 
ATOM     35  C   UNL     1       1.084 -12.712   2.026  0.00  0.00    +0.000 A 
ATOM     36  C   UNL     1       2.453 -12.549   2.121  0.00  0.00    +0.002 A 
ATOM     37  C   UNL     1       2.983 -11.310   2.427  0.00  0.00    +0.029 A 
ENDBRANCH  29  32
ENDBRANCH  20  29
ENDBRANCH   1  20
TORSDOF 8
