REMARK  Name = ZINC63339373
REMARK  5 active torsions:
REMARK  status: ('A' for Active; 'I' for Inactive)
REMARK    1  A    between atoms: C_1  and  O_2
REMARK    2  A    between atoms: O_2  and  C_3
REMARK    3  A    between atoms: C_3  and  C_5
REMARK    4  A    between atoms: C_18  and  C_21
REMARK    5  A    between atoms: C_26  and  O_27
REMARK                            x       y       z     vdW  Elec       q    Type
REMARK                         _______ _______ _______ _____ _____    ______ ____
ROOT
ATOM      1  C   UNL     1       0.736  -2.079   1.082  0.00  0.00    +0.168 C 
ATOM      2  C   UNL     1      -0.625  -2.590   1.590  0.00  0.00    +0.063 C 
ATOM      3  C   UNL     1      -0.450  -4.066   1.847  0.00  0.00    -0.035 C 
ATOM      4  C   UNL     1      -1.159  -5.125   1.486  0.00  0.00    -0.001 A 
ATOM      5  C   UNL     1      -2.462  -5.252   0.811  0.00  0.00    +0.010 A 
ATOM      6  C   UNL     1      -2.890  -6.518   0.566  0.00  0.00    +0.001 A 
ATOM      7  C   UNL     1      -2.162  -7.659   0.920  0.00  0.00    +0.002 A 
ATOM      8  C   UNL     1      -0.962  -7.637   1.553  0.00  0.00    +0.026 A 
ATOM      9  C   UNL     1      -0.412  -6.362   1.873  0.00  0.00    +0.043 A 
ATOM     10  N   UNL     1       0.689  -6.052   2.493  0.00  0.00    -0.376 N 
ATOM     11  C   UNL     1       0.739  -4.599   2.641  0.00  0.00    +0.128 C 
ATOM     12  C   UNL     1       1.986  -3.978   2.008  0.00  0.00    +0.115 C 
ATOM     13  N   UNL     1       1.807  -2.517   1.982  0.00  0.00    -0.295 NA
ATOM     14  H   UNL     1       2.675  -2.052   1.764  0.00  0.00    +0.123 HD
ATOM     15  H   UNL     1       1.361  -6.678   2.804  0.00  0.00    +0.160 HD
ENDROOT
BRANCH  12  16
ATOM     16  C   UNL     1       2.155  -4.498   0.603  0.00  0.00    +0.014 A 
ATOM     17  C   UNL     1       1.112  -4.405  -0.298  0.00  0.00    +0.024 A 
ATOM     18  C   UNL     1       1.267  -4.882  -1.587  0.00  0.00    +0.018 A 
ATOM     19  C   UNL     1       2.466  -5.453  -1.977  0.00  0.00    +0.019 A 
ATOM     20  C   UNL     1       3.510  -5.548  -1.078  0.00  0.00    +0.047 A 
ATOM     21  C   UNL     1       3.359  -5.065   0.214  0.00  0.00    +0.122 A 
ATOM     22 BR   UNL     1      -0.162  -4.754  -2.820  0.00  0.00    -0.050 Br
BRANCH  21  23
ATOM     23  O   UNL     1       4.388  -5.153   1.098  0.00  0.00    -0.506 OA
ATOM     24  H   UNL     1       4.440  -6.002   1.557  0.00  0.00    +0.292 HD
ENDBRANCH  21  23
ENDBRANCH  12  16
BRANCH   1  25
ATOM     25  C   UNL     1       0.715  -0.574   1.026  0.00  0.00    +0.324 C 
ATOM     26  O   UNL     1       1.230   0.071   1.910  0.00  0.00    -0.249 OA
BRANCH  25  28
ATOM     27  C   UNL     1       0.142   1.481   0.008  0.00  0.00    +0.280 C 
ATOM     28  O   UNL     1       0.125   0.052  -0.004  0.00  0.00    -0.467 OA
ENDBRANCH  25  28
ENDBRANCH   1  25
TORSDOF 4
