REMARK  Name = ZINC19297270
REMARK  7 active torsions:
REMARK  status: ('A' for Active; 'I' for Inactive)
REMARK    1  A    between atoms: C_1  and  C_2
REMARK    2  A    between atoms: C_11  and  N_23
REMARK    3  A    between atoms: C_13  and  S_15
REMARK    4  A    between atoms: S_15  and  C_16
REMARK    5  A    between atoms: C_16  and  C_18
REMARK    6  A    between atoms: C_16  and  C_19
REMARK    7  A    between atoms: N_21  and  C_22
REMARK                            x       y       z     vdW  Elec       q    Type
REMARK                         _______ _______ _______ _____ _____    ______ ____
ROOT
ATOM      1  C   UNL     1      -4.158   4.875   2.311  0.00  0.00    +0.008 C 
ATOM      2  C   UNL     1      -3.062   3.829   2.104  0.00  0.00    -0.009 C 
ATOM      3  C   UNL     1      -3.489   2.846   1.010  0.00  0.00    +0.008 C 
ATOM      4  C   UNL     1      -2.521   1.664   0.967  0.00  0.00    +0.037 C 
ATOM      5  C   UNL     1      -1.095   2.197   0.854  0.00  0.00    -0.025 A 
ATOM      6  C   UNL     1      -0.811   3.476   1.172  0.00  0.00    -0.004 A 
ATOM      7  S   UNL     1       0.932   3.644   0.900  0.00  0.00    -0.073 S 
ATOM      8  C   UNL     1       1.278   1.993   0.353  0.00  0.00    +0.115 A 
ATOM      9  C   UNL     1       0.019   1.362   0.399  0.00  0.00    +0.051 A 
ATOM     10  C   UNL     1       0.002  -0.004   0.002  0.00  0.00    +0.129 A 
ATOM     11  N   UNL     1       1.131  -0.582  -0.373  0.00  0.00    -0.207 NA
ATOM     12  C   UNL     1       2.286   0.072  -0.393  0.00  0.00    +0.192 A 
ATOM     13  N   UNL     1       2.361   1.347  -0.034  0.00  0.00    -0.214 NA
ATOM     14  C   UNL     1      -1.766   4.524   1.656  0.00  0.00    +0.046 C 
ENDROOT
BRANCH  10  15
ATOM     15  N   UNL     1      -1.181  -0.720   0.009  0.00  0.00    -0.343 N 
ATOM     16  H   UNL     1      -1.188  -1.775  -0.299  0.00  0.00    +0.144 HD
ATOM     17  H   UNL     1      -2.117  -0.233   0.323  0.00  0.00    +0.144 HD
ENDBRANCH  10  15
BRANCH  12  18
ATOM     18  S   UNL     1       3.747  -0.769  -0.906  0.00  0.00    -0.073 S 
BRANCH  18  19
ATOM     19  C   UNL     1       3.059  -2.406  -1.259  0.00  0.00    +0.137 C 
ATOM     20  C   UNL     1       2.086  -2.308  -2.435  0.00  0.00    +0.029 C 
BRANCH  19  21
ATOM     21  C   UNL     1       4.176  -3.355  -1.610  0.00  0.00    +0.226 C 
ATOM     22  O   UNL     1       5.249  -2.921  -1.974  0.00  0.00    -0.275 OA
ATOM     23  N   UNL     1       3.984  -4.686  -1.518  0.00  0.00    -0.317 N 
ATOM     24  C   UNL     1       5.069  -5.609  -1.859  0.00  0.00    +0.128 C 
ATOM     25  H   UNL     1       3.011  -5.079  -1.187  0.00  0.00    +0.148 HD
ENDBRANCH  19  21
ENDBRANCH  18  19
ENDBRANCH  12  18
TORSDOF 4
