REMARK  Name = ZINC14075254
REMARK  12 active torsions:
REMARK  status: ('A' for Active; 'I' for Inactive)
REMARK    1  A    between atoms: C_1  and  C_2
REMARK    2  A    between atoms: C_7  and  C_9
REMARK    3  A    between atoms: C_7  and  C_10
REMARK    4  A    between atoms: N_13  and  C_17
REMARK    5  A    between atoms: C_17  and  C_18
REMARK    6  A    between atoms: C_18  and  O_20
REMARK    7  A    between atoms: O_20  and  C_21
REMARK    8  A    between atoms: C_21  and  C_22
REMARK    9  A    between atoms: N_24  and  N_25
REMARK   10  A    between atoms: C_26  and  C_28
REMARK   11  A    between atoms: C_28  and  O_29
REMARK   12  A    between atoms: O_29  and  C_30
REMARK                            x       y       z     vdW  Elec       q    Type
REMARK                         _______ _______ _______ _____ _____    ______ ____
ROOT
ATOM      1  C   UNL     1       0.970  -4.657  -4.537  0.00  0.00    +0.326 C 
ATOM      2  O   UNL     1       1.178  -5.173  -3.465  0.00  0.00    -0.249 OA
ENDROOT
BRANCH   1   3
ATOM      3  C   UNL     1       0.458  -3.241  -4.606  0.00  0.00    +0.238 C 
BRANCH   3  15
ATOM      4  C   UNL     1      -0.061   1.649   0.498  0.00  0.00    +0.007 C 
ATOM      5  C   UNL     1      -0.046   0.132   0.299  0.00  0.00    -0.011 C 
ATOM      6  C   UNL     1       0.612  -0.200  -1.042  0.00  0.00    +0.038 C 
ATOM      7  C   UNL     1       0.646  -1.713  -1.232  0.00  0.00    +0.113 C 
ATOM      8  C   UNL     1       1.417  -2.381  -0.099  0.00  0.00    +0.041 C 
ATOM      9  C   UNL     1       0.756  -2.041   1.240  0.00  0.00    -0.032 C 
ATOM     10  C   UNL     1       0.748  -0.523   1.431  0.00  0.00    +0.009 C 
ATOM     11  C   UNL     1       1.542  -2.695   2.378  0.00  0.00    +0.011 C 
ATOM     12  C   UNL     1      -0.682  -2.564   1.246  0.00  0.00    +0.011 C 
ATOM     13  C   UNL     1       1.261  -2.063  -2.567  0.00  0.00    +0.247 C 
ATOM     14  O   UNL     1       2.385  -1.813  -2.946  0.00  0.00    -0.273 OA
ATOM     15  N   UNL     1       0.296  -2.715  -3.249  0.00  0.00    -0.213 N 
ATOM     16  C   UNL     1      -0.829  -2.819  -2.531  0.00  0.00    +0.310 C 
ATOM     17  O   UNL     1      -1.838  -3.366  -2.931  0.00  0.00    -0.252 OA
ATOM     18  N   UNL     1      -0.717  -2.252  -1.315  0.00  0.00    -0.285 N 
ATOM     19  H   UNL     1      -1.402  -2.208  -0.629  0.00  0.00    +0.151 HD
ENDBRANCH   3  15
ENDBRANCH   1   3
BRANCH   1  20
ATOM     20  O   UNL     1       1.196  -5.345  -5.668  0.00  0.00    -0.454 OA
BRANCH  20  21
ATOM     21  C   UNL     1       1.681  -6.682  -5.528  0.00  0.00    +0.329 C 
BRANCH  21  22
ATOM     22  C   UNL     1       1.873  -7.291  -6.893  0.00  0.00    +0.267 C 
ATOM     23  O   UNL     1       1.620  -6.645  -7.887  0.00  0.00    -0.271 OA
ATOM     24  N   UNL     1       2.326  -8.555  -7.009  0.00  0.00    -0.231 N 
ATOM     25  H   UNL     1       2.529  -9.072  -6.214  0.00  0.00    +0.173 HD
BRANCH  24  26
ATOM     26  N   UNL     1       2.505  -9.122  -8.277  0.00  0.00    -0.231 N 
ATOM     27  C   UNL     1       2.959 -10.386  -8.393  0.00  0.00    +0.267 C 
ATOM     28  O   UNL     1       3.212 -11.033  -7.399  0.00  0.00    -0.271 OA
ATOM     29  H   UNL     1       2.303  -8.605  -9.073  0.00  0.00    +0.173 HD
BRANCH  27  30
ATOM     30  C   UNL     1       3.151 -10.995  -9.758  0.00  0.00    +0.326 C 
BRANCH  30  31
ATOM     31  O   UNL     1       3.636 -12.332  -9.618  0.00  0.00    -0.483 OA
BRANCH  31  32
ATOM     32  C   UNL     1       3.864 -13.029 -10.763  0.00  0.00    +0.121 A 
ATOM     33  C   UNL     1       3.631 -12.435 -11.995  0.00  0.00    +0.047 A 
ATOM     34  C   UNL     1       3.864 -13.145 -13.157  0.00  0.00    +0.023 A 
ATOM     35  C   UNL     1       4.328 -14.447 -13.093  0.00  0.00    +0.041 A 
ATOM     36  C   UNL     1       4.560 -15.040 -11.866  0.00  0.00    +0.023 A 
ATOM     37  C   UNL     1       4.335 -14.332 -10.701  0.00  0.00    +0.047 A 
ATOM     38 CL   UNL     1       4.619 -15.336 -14.556  0.00  0.00    -0.084 Cl
ENDBRANCH  31  32
ENDBRANCH  30  31
ENDBRANCH  27  30
ENDBRANCH  24  26
ENDBRANCH  21  22
ENDBRANCH  20  21
ENDBRANCH   1  20
TORSDOF 9
