REMARK  Name = ZINC22065368
REMARK  8 active torsions:
REMARK  status: ('A' for Active; 'I' for Inactive)
REMARK    1  A    between atoms: C_1  and  C_2
REMARK    2  A    between atoms: C_2  and  C_4
REMARK    3  A    between atoms: C_2  and  C_8
REMARK    4  A    between atoms: C_4  and  C_5
REMARK    5  A    between atoms: C_14  and  C_35
REMARK    6  A    between atoms: C_15  and  O_34
REMARK    7  A    between atoms: C_26  and  C_33
REMARK    8  A    between atoms: C_29  and  O_32
REMARK                            x       y       z     vdW  Elec       q    Type
REMARK                         _______ _______ _______ _____ _____    ______ ____
ROOT
ATOM      1  C   UNL     1       3.090   4.460   0.267  0.00  0.00    +0.001 C 
ATOM      2  C   UNL     1       2.322   5.038  -0.935  0.00  0.00    +0.005 C 
ATOM      3  C   UNL     1       2.962   6.412  -1.248  0.00  0.00    +0.005 C 
ATOM      4  C   UNL     1       3.816   6.721  -0.016  0.00  0.00    +0.001 C 
ATOM      5  C   UNL     1       4.338   5.354   0.460  0.00  0.00    +0.000 C 
ATOM      6  C   UNL     1       5.472   4.894  -0.440  0.00  0.00    +0.121 C 
ATOM      7  C   UNL     1       6.591   5.914  -0.539  0.00  0.00    +0.036 C 
ATOM      8  C   UNL     1       6.171   7.344  -0.820  0.00  0.00    +0.001 C 
ATOM      9  C   UNL     1       4.877   7.765  -0.190  0.00  0.00    -0.004 C 
ATOM     10  C   UNL     1       4.284   9.078  -0.686  0.00  0.00    +0.004 C 
ATOM     11  C   UNL     1       4.430   9.239  -2.197  0.00  0.00    +0.004 C 
ATOM     12  C   UNL     1       5.916   9.156  -2.533  0.00  0.00    -0.002 C 
ATOM     13  C   UNL     1       6.422   7.739  -2.268  0.00  0.00    -0.026 C 
ATOM     14  C   UNL     1       7.943   7.739  -2.516  0.00  0.00    +0.010 C 
ATOM     15  C   UNL     1       8.252   8.158  -3.951  0.00  0.00    +0.032 C 
ATOM     16  C   UNL     1       7.680   9.540  -4.256  0.00  0.00    +0.115 C 
ATOM     17  C   UNL     1       6.174   9.568  -3.978  0.00  0.00    +0.035 C 
ATOM     18  C   UNL     1       5.783   6.759  -3.247  0.00  0.00    +0.012 C 
ATOM     19  C   UNL     1       4.764   5.401   1.935  0.00  0.00    +0.014 C 
ENDROOT
BRANCH   1  21
ATOM     20  C   UNL     1       4.124   2.449   1.313  0.00  0.00    +0.008 C 
ATOM     21  C   UNL     1       3.435   2.993   0.060  0.00  0.00    +0.000 C 
BRANCH  21  22
ATOM     22  C   UNL     1       2.153   2.200  -0.202  0.00  0.00    +0.128 C 
BRANCH  22  23
ATOM     23  C   UNL     1       2.504   0.771  -0.528  0.00  0.00    +0.356 C 
ATOM     24  O   UNL     1       3.661   0.423  -0.549  0.00  0.00    -0.246 OA
ATOM     25  O   UNL     1       1.532  -0.115  -0.795  0.00  0.00    -0.246 OA
ENDBRANCH  22  23
ENDBRANCH  21  22
ENDBRANCH   1  21
BRANCH  16  26
ATOM     26  O   UNL     1       7.910   9.853  -5.633  0.00  0.00    -0.392 OA
ATOM     27  H   UNL     1       7.566  10.815  -6.043  0.00  0.00    +0.210 HD
ENDBRANCH  16  26
BRANCH   6  28
ATOM     28  O   UNL     1       5.007   4.532  -1.735  0.00  0.00    -0.391 OA
ATOM     29  H   UNL     1       5.718   4.178  -2.496  0.00  0.00    +0.210 HD
ENDBRANCH   6  28
TORSDOF 5
