REMARK  Name = ZINC47810792
REMARK  9 active torsions:
REMARK  status: ('A' for Active; 'I' for Inactive)
REMARK    1  A    between atoms: C_1  and  C_2
REMARK    2  A    between atoms: C_5  and  C_7
REMARK    3  A    between atoms: C_7  and  C_9
REMARK    4  A    between atoms: C_7  and  N_10
REMARK    5  A    between atoms: N_10  and  C_11
REMARK    6  A    between atoms: N_14  and  C_15
REMARK    7  A    between atoms: C_20  and  N_21
REMARK    8  A    between atoms: C_23  and  C_30
REMARK    9  A    between atoms: C_26  and  C_29
REMARK                            x       y       z     vdW  Elec       q    Type
REMARK                         _______ _______ _______ _____ _____    ______ ____
ROOT
ATOM      1  N   UNL     1       2.128  -3.697   1.215  0.00  0.00    -0.281 N 
ATOM      2  C   UNL     1       3.392  -3.377   0.546  0.00  0.00    +0.134 C 
ATOM      3  C   UNL     1       2.119  -4.529   2.275  0.00  0.00    +0.307 C 
ATOM      4  O   UNL     1       1.070  -4.795   2.830  0.00  0.00    -0.252 OA
ATOM      5  N   UNL     1       3.272  -5.067   2.719  0.00  0.00    -0.268 N 
ATOM      6  H   UNL     1       4.099  -4.907   2.238  0.00  0.00    +0.156 HD
ENDROOT
BRANCH   5   7
ATOM      7  C   UNL     1       3.276  -5.859   3.877  0.00  0.00    +0.056 A 
ATOM      8  C   UNL     1       2.192  -6.674   4.165  0.00  0.00    +0.025 A 
ATOM      9  C   UNL     1       2.198  -7.453   5.307  0.00  0.00    +0.002 A 
ATOM     10  C   UNL     1       3.282  -7.422   6.165  0.00  0.00    +0.002 A 
ATOM     11  C   UNL     1       4.367  -6.612   5.885  0.00  0.00    +0.025 A 
ATOM     12  C   UNL     1       4.372  -5.832   4.738  0.00  0.00    +0.051 A 
BRANCH  12  13
ATOM     13  N   UNL     1       5.471  -5.016   4.449  0.00  0.00    -0.324 N 
ATOM     14  C   UNL     1       5.539  -3.632   4.945  0.00  0.00    +0.136 C 
ATOM     15  C   UNL     1       5.872  -2.712   3.765  0.00  0.00    +0.133 C 
ATOM     16  O   UNL     1       7.037  -3.204   3.098  0.00  0.00    -0.371 OA
ATOM     17  C   UNL     1       6.877  -4.505   2.526  0.00  0.00    +0.133 C 
ATOM     18  C   UNL     1       6.598  -5.519   3.647  0.00  0.00    +0.136 C 
ATOM     19  C   UNL     1       8.158  -4.899   1.788  0.00  0.00    +0.039 C 
ATOM     20  C   UNL     1       6.138  -1.296   4.281  0.00  0.00    +0.039 C 
ENDBRANCH  12  13
ENDBRANCH   5   7
BRANCH   1  21
ATOM     21  C   UNL     1       0.875  -3.112   0.732  0.00  0.00    +0.111 C 
ATOM     22  C   UNL     1       0.642  -3.534  -0.721  0.00  0.00    +0.034 C 
BRANCH  21  27
ATOM     23  C   UNL     1       2.118   2.415   0.715  0.00  0.00    +0.051 C 
ATOM     24  C   UNL     1       1.550   1.022   0.803  0.00  0.00    -0.013 A 
ATOM     25  C   UNL     1       0.310   0.628   1.183  0.00  0.00    +0.011 A 
ATOM     26  C   UNL     1       0.006  -0.721   1.187  0.00  0.00    +0.013 A 
ATOM     27  C   UNL     1       0.958  -1.609   0.811  0.00  0.00    +0.010 A 
ATOM     28  S   UNL     1       2.334  -0.538   0.428  0.00  0.00    -0.097 S 
ENDBRANCH  21  27
ENDBRANCH   1  21
TORSDOF 4
