REMARK  Name = ZINC10249295
REMARK  7 active torsions:
REMARK  status: ('A' for Active; 'I' for Inactive)
REMARK    1  A    between atoms: C_1  and  C_2
REMARK    2  A    between atoms: C_2  and  C_4
REMARK    3  A    between atoms: C_2  and  C_28
REMARK    4  A    between atoms: C_4  and  N_5
REMARK    5  A    between atoms: N_13  and  C_27
REMARK    6  A    between atoms: C_28  and  S_29
REMARK    7  A    between atoms: S_29  and  C_30
REMARK                            x       y       z     vdW  Elec       q    Type
REMARK                         _______ _______ _______ _____ _____    ______ ____
ROOT
ATOM      1  N   UNL     1      -6.442  10.019  -0.155  0.00  0.00    -0.306 N 
ATOM      2  C   UNL     1      -6.870  10.819   0.897  0.00  0.00    +0.153 A 
ATOM      3  C   UNL     1      -7.107  10.602   2.265  0.00  0.00    +0.280 A 
ATOM      4  O   UNL     1      -6.931   9.499   2.753  0.00  0.00    -0.265 OA
ATOM      5  N   UNL     1      -7.532  11.627   3.033  0.00  0.00    -0.273 N 
ATOM      6  H   UNL     1      -7.702  11.475   4.007  0.00  0.00    +0.173 HD
ATOM      7  C   UNL     1      -7.730  12.848   2.509  0.00  0.00    +0.331 A 
ATOM      8  O   UNL     1      -8.114  13.749   3.231  0.00  0.00    -0.246 OA
ATOM      9  N   UNL     1      -7.508  13.102   1.205  0.00  0.00    -0.280 N 
ATOM     10  C   UNL     1      -7.075  12.088   0.365  0.00  0.00    +0.170 A 
ATOM     11  N   UNL     1      -6.790  12.030  -0.937  0.00  0.00    -0.196 NA
ATOM     12  C   UNL     1      -6.413  10.809  -1.260  0.00  0.00    +0.201 A 
ATOM     13  N   UNL     1      -6.046  10.399  -2.522  0.00  0.00    -0.296 N 
ATOM     14  C   UNL     1      -4.908  11.186  -3.022  0.00  0.00    +0.113 C 
ATOM     15  C   UNL     1      -4.316  10.466  -4.234  0.00  0.00    +0.054 C 
ATOM     16  C   UNL     1      -5.409  10.127  -5.215  0.00  0.00    -0.041 A 
ATOM     17  C   UNL     1      -5.052   9.798  -6.515  0.00  0.00    +0.004 A 
ATOM     18  C   UNL     1      -6.021   9.473  -7.443  0.00  0.00    +0.000 A 
ATOM     19  C   UNL     1      -7.354   9.476  -7.075  0.00  0.00    +0.000 A 
ATOM     20  C   UNL     1      -7.710   9.805  -5.783  0.00  0.00    +0.005 A 
ATOM     21  C   UNL     1      -6.737  10.133  -4.849  0.00  0.00    -0.027 A 
ATOM     22  C   UNL     1      -7.175  10.489  -3.453  0.00  0.00    +0.143 C 
ATOM     23  C   UNL     1      -7.737  14.446   0.671  0.00  0.00    +0.155 C 
ENDROOT
BRANCH   1  24
ATOM     24  C   UNL     1      -6.096   8.598  -0.087  0.00  0.00    +0.129 C 
BRANCH  24  26
ATOM     25  C   UNL     1      -4.159   9.033   1.430  0.00  0.00    +0.010 C 
ATOM     26  C   UNL     1      -4.582   8.449   0.081  0.00  0.00    +0.016 C 
BRANCH  26  27
ATOM     27  C   UNL     1      -4.207   6.966   0.027  0.00  0.00    +0.081 C 
BRANCH  27  28
ATOM     28  S   UNL     1      -2.405   6.799   0.078  0.00  0.00    -0.098 S 
BRANCH  28  29
ATOM     29  C   UNL     1      -2.259   5.044   0.004  0.00  0.00    +0.136 A 
ATOM     30  N   UNL     1      -1.171   4.307   0.007  0.00  0.00    -0.233 NA
ATOM     31  C   UNL     1      -1.210   2.958  -0.055  0.00  0.00    +0.079 A 
ATOM     32  C   UNL     1      -0.123   2.053  -0.059  0.00  0.00    +0.029 A 
ATOM     33  C   UNL     1      -0.338   0.701  -0.126  0.00  0.00    +0.002 A 
ATOM     34  C   UNL     1      -1.619   0.173  -0.191  0.00  0.00    +0.001 A 
ATOM     35  C   UNL     1      -2.705   1.029  -0.195  0.00  0.00    +0.017 A 
ATOM     36  C   UNL     1      -2.500   2.384  -0.122  0.00  0.00    +0.040 A 
ATOM     37  S   UNL     1      -3.553   3.815  -0.092  0.00  0.00    -0.061 S 
ENDBRANCH  28  29
ENDBRANCH  27  28
ENDBRANCH  26  27
ENDBRANCH  24  26
ENDBRANCH   1  24
TORSDOF 5
