REMARK  Name = ZINC20044914
REMARK  5 active torsions:
REMARK  status: ('A' for Active; 'I' for Inactive)
REMARK    1  A    between atoms: C_5  and  C_7
REMARK    2  A    between atoms: C_7  and  N_8
REMARK    3  A    between atoms: C_14  and  C_19
REMARK    4  A    between atoms: N_24  and  C_26
REMARK    5  A    between atoms: C_26  and  C_27
REMARK                            x       y       z     vdW  Elec       q    Type
REMARK                         _______ _______ _______ _____ _____    ______ ____
ROOT
ATOM      1  N   UNL     1      -3.286  -3.999  -2.711  0.00  0.00    -0.265 N 
ATOM      2  C   UNL     1      -3.210  -4.606  -3.914  0.00  0.00    +0.111 A 
ATOM      3  C   UNL     1      -1.957  -4.427  -4.390  0.00  0.00    +0.068 A 
ATOM      4  C   UNL     1      -1.236  -3.689  -3.438  0.00  0.00    +0.162 A 
ATOM      5  N   UNL     1      -2.037  -3.431  -2.432  0.00  0.00    -0.153 NA
ATOM      6  N   UNL     1       0.107  -3.292  -3.547  0.00  0.00    -0.257 N 
ATOM      7  C   UNL     1       0.832  -2.569  -2.638  0.00  0.00    +0.139 A 
ATOM      8  N   UNL     1       2.032  -2.427  -3.125  0.00  0.00    -0.158 NA
ATOM      9  N   UNL     1       2.115  -3.000  -4.272  0.00  0.00    -0.254 N 
ATOM     10  C   UNL     1       0.962  -3.545  -4.584  0.00  0.00    +0.181 A 
ATOM     11  S   UNL     1       0.589  -4.440  -6.055  0.00  0.00    -0.011 S 
ATOM     12  H   UNL     1       3.062  -2.979  -4.830  0.00  0.00    +0.191 HD
ENDROOT
BRANCH   7  13
ATOM     13  C   UNL     1       0.334  -2.037  -1.319  0.00  0.00    +0.041 C 
ATOM     14  C   UNL     1       1.172  -2.626  -0.181  0.00  0.00    +0.007 C 
ATOM     15  C   UNL     1       0.699  -2.035   1.150  0.00  0.00    -0.018 C 
ATOM     16  C   UNL     1       0.816  -0.510   1.095  0.00  0.00    -0.078 C 
ATOM     17  N   UNL     1      -0.004   0.005  -0.009  0.00  0.00    +0.383 N 
ATOM     18  C   UNL     1       0.462  -0.512  -1.302  0.00  0.00    -0.067 C 
ATOM     19  H   UNL     1      -1.033  -0.350   0.143  0.00  0.00    -0.081 HD
BRANCH  17  20
ATOM     20  C   UNL     1      -0.026   1.474  -0.007  0.00  0.00    -0.043 C 
BRANCH  20  21
ATOM     21  C   UNL     1      -0.733   1.964   1.230  0.00  0.00    -0.064 A 
ATOM     22  C   UNL     1      -2.098   2.179   1.206  0.00  0.00    +0.004 A 
ATOM     23  C   UNL     1      -2.748   2.623   2.342  0.00  0.00    +0.038 A 
ATOM     24  C   UNL     1      -2.030   2.864   3.501  0.00  0.00    +0.123 A 
ATOM     25  C   UNL     1      -0.661   2.654   3.522  0.00  0.00    +0.038 A 
ATOM     26  C   UNL     1      -0.014   2.204   2.387  0.00  0.00    +0.004 A 
ATOM     27  F   UNL     1      -2.663   3.304   4.610  0.00  0.00    -0.205 F 
ENDBRANCH  20  21
ENDBRANCH  17  20
ENDBRANCH   7  13
BRANCH   1  28
ATOM     28  C   UNL     1      -4.469  -3.945  -1.847  0.00  0.00    +0.181 C 
BRANCH  28  33
ATOM     29  C   UNL     1      -4.045  -6.301   1.072  0.00  0.00    +0.000 A 
ATOM     30  C   UNL     1      -3.479  -5.469   2.020  0.00  0.00    +0.003 A 
ATOM     31  C   UNL     1      -3.232  -4.144   1.718  0.00  0.00    +0.039 A 
ATOM     32  C   UNL     1      -3.553  -3.648   0.465  0.00  0.00    +0.128 A 
ATOM     33  C   UNL     1      -4.120  -4.482  -0.483  0.00  0.00    +0.009 A 
ATOM     34  C   UNL     1      -4.371  -5.807  -0.177  0.00  0.00    +0.008 A 
ATOM     35  F   UNL     1      -3.312  -2.353   0.169  0.00  0.00    -0.205 F 
ENDBRANCH  28  33
ENDBRANCH   1  28
TORSDOF 5
