REMARK  Name = ZINC49871940
REMARK  7 active torsions:
REMARK  status: ('A' for Active; 'I' for Inactive)
REMARK    1  A    between atoms: C_1  and  C_2
REMARK    2  A    between atoms: C_5  and  N_8
REMARK    3  A    between atoms: C_11  and  C_12
REMARK    4  A    between atoms: C_12  and  C_13
REMARK    5  A    between atoms: C_12  and  N_14
REMARK    6  A    between atoms: N_14  and  C_15
REMARK    7  A    between atoms: C_16  and  C_17
REMARK                            x       y       z     vdW  Elec       q    Type
REMARK                         _______ _______ _______ _____ _____    ______ ____
ROOT
ATOM      1  N   UNL     1       0.057  -4.172  -0.021  0.00  0.00    -0.229 N 
ATOM      2  C   UNL     1       0.170  -4.859   1.163  0.00  0.00    +0.270 A 
ATOM      3  O   UNL     1       0.264  -4.191   2.332  0.00  0.00    -0.267 OA
ATOM      4  C   UNL     1       0.187  -6.222   1.148  0.00  0.00    +0.100 A 
ATOM      5  C   UNL     1       0.087  -6.893  -0.084  0.00  0.00    +0.263 A 
ATOM      6  O   UNL     1       0.099  -8.111  -0.122  0.00  0.00    -0.267 OA
ATOM      7  N   UNL     1      -0.022  -6.180  -1.223  0.00  0.00    -0.274 N 
ATOM      8  C   UNL     1      -0.042  -4.835  -1.187  0.00  0.00    +0.337 A 
ATOM      9  O   UNL     1      -0.146  -4.210  -2.225  0.00  0.00    -0.246 OA
ATOM     10  H   UNL     1      -0.091  -6.640  -2.074  0.00  0.00    +0.173 HD
ENDROOT
BRANCH   1  15
ATOM     11  C   UNL     1      -0.016   1.503   0.013  0.00  0.00    +0.044 C 
ATOM     12  C   UNL     1       0.004  -0.004   0.003  0.00  0.00    -0.050 A 
ATOM     13  C   UNL     1      -1.181  -0.710   0.107  0.00  0.00    +0.005 A 
ATOM     14  C   UNL     1      -1.167  -2.091   0.099  0.00  0.00    +0.026 A 
ATOM     15  C   UNL     1       0.039  -2.771  -0.013  0.00  0.00    +0.054 A 
ATOM     16  C   UNL     1       1.227  -2.059  -0.117  0.00  0.00    +0.026 A 
ATOM     17  C   UNL     1       1.205  -0.678  -0.114  0.00  0.00    +0.005 A 
ENDBRANCH   1  15
BRANCH   4  18
ATOM     18  C   UNL     1       0.309  -6.999   2.433  0.00  0.00    +0.091 C 
ATOM     19  C   UNL     1      -0.972  -7.801   2.668  0.00  0.00    +0.031 C 
BRANCH  18  20
ATOM     20  N   UNL     1       1.453  -7.918   2.343  0.00  0.00    -0.405 NA
ATOM     21  H   UNL     1       1.274  -8.608   1.629  0.00  0.00    +0.123 HD
ATOM     22  H   UNL     1       2.284  -7.397   2.106  0.00  0.00    +0.123 HD
BRANCH  20  23
ATOM     23  C   UNL     1       1.636  -8.555   3.573  0.00  0.00    +0.050 C 
ATOM     24  C   UNL     1       1.659  -9.882   3.637  0.00  0.00    +0.016 C 
BRANCH  24  25
ATOM     25  C   UNL     1       1.853 -10.553   4.932  0.00  0.00    -0.050 C 
ATOM     26  C   UNL     1       1.875 -11.867   4.951  0.00  0.00    -0.023 C 
ATOM     27  C   UNL     1       2.054 -12.682   6.199  0.00  0.00    +0.027 C 
ATOM     28  C   UNL     1       2.620 -11.808   7.321  0.00  0.00    +0.004 C 
ATOM     29  C   UNL     1       1.777 -10.531   7.415  0.00  0.00    +0.005 C 
ATOM     30  C   UNL     1       2.019  -9.697   6.153  0.00  0.00    +0.035 C 
ENDBRANCH  24  25
ENDBRANCH  20  23
ENDBRANCH  18  20
ENDBRANCH   4  18
TORSDOF 5
