REMARK  Name = ZINC13093076
REMARK  7 active torsions:
REMARK  status: ('A' for Active; 'I' for Inactive)
REMARK    1  A    between atoms: C_5  and  N_7
REMARK    2  A    between atoms: C_8  and  C_10
REMARK    3  A    between atoms: C_10  and  S_11
REMARK    4  A    between atoms: S_11  and  C_12
REMARK    5  A    between atoms: C_16  and  C_19
REMARK    6  A    between atoms: C_19  and  C_20
REMARK    7  A    between atoms: C_20  and  C_21
REMARK                            x       y       z     vdW  Elec       q    Type
REMARK                         _______ _______ _______ _____ _____    ______ ____
ROOT
ATOM      1  S   UNL     1      -1.576  -4.909   0.327  0.00  0.00    -0.075 S 
ENDROOT
BRANCH   1   2
ATOM      2  C   UNL     1      -1.370  -6.656   0.441  0.00  0.00    +0.213 A 
ATOM      3  N   UNL     1      -2.438  -7.436   0.552  0.00  0.00    -0.180 NA
ATOM      4  C   UNL     1      -2.277  -8.752   0.637  0.00  0.00    +0.296 A 
ATOM      5  O   UNL     1      -3.349  -9.574   0.751  0.00  0.00    -0.264 OA
ATOM      6  C   UNL     1      -0.982  -9.272   0.606  0.00  0.00    +0.130 A 
ATOM      7  N   UNL     1       0.041  -8.446   0.494  0.00  0.00    -0.146 NA
ATOM      8  N   UNL     1      -0.149  -7.176   0.408  0.00  0.00    -0.122 NA
BRANCH   6   9
ATOM      9  C   UNL     1      -0.755 -10.759   0.701  0.00  0.00    +0.074 C 
BRANCH   9  10
ATOM     10  C   UNL     1      -0.754 -11.365  -0.704  0.00  0.00    +0.131 C 
BRANCH  10  11
ATOM     11  C   UNL     1      -0.526 -12.851  -0.610  0.00  0.00    +0.356 C 
ATOM     12  O   UNL     1      -0.379 -13.378   0.480  0.00  0.00    -0.246 OA
ATOM     13  O   UNL     1      -0.490 -13.528  -1.624  0.00  0.00    -0.246 OA
ENDBRANCH  10  11
ENDBRANCH   9  10
ENDBRANCH   6   9
ENDBRANCH   1   2
BRANCH   1  14
ATOM     14  C   UNL     1       0.119  -4.276   0.194  0.00  0.00    +0.173 C 
BRANCH  14  16
ATOM     15  N   UNL     1       1.237  -2.080  -0.021  0.00  0.00    -0.284 N 
ATOM     16  C   UNL     1       0.086  -2.773   0.088  0.00  0.00    +0.228 C 
ATOM     17  O   UNL     1      -0.976  -2.187   0.102  0.00  0.00    -0.275 OA
ATOM     18  H   UNL     1       2.080  -2.551  -0.113  0.00  0.00    +0.155 HD
BRANCH  15  23
ATOM     19  C   UNL     1       0.154   1.372   0.637  0.00  0.00    +0.002 A 
ATOM     20  C   UNL     1       1.174   2.086   0.035  0.00  0.00    +0.001 A 
ATOM     21  C   UNL     1       2.215   1.421  -0.586  0.00  0.00    +0.016 A 
ATOM     22  C   UNL     1       2.239   0.039  -0.607  0.00  0.00    +0.035 A 
ATOM     23  C   UNL     1       1.216  -0.681  -0.002  0.00  0.00    +0.047 A 
ATOM     24  C   UNL     1       0.172  -0.009   0.620  0.00  0.00    +0.024 A 
ATOM     25  I   UNL     1       3.816  -0.969  -1.548  0.00  0.00    -0.042 I 
ENDBRANCH  15  23
ENDBRANCH  14  16
ENDBRANCH   1  14
TORSDOF 7
