REMARK  Name = ZINC32964319
REMARK  8 active torsions:
REMARK  status: ('A' for Active; 'I' for Inactive)
REMARK    1  A    between atoms: C_1  and  C_2
REMARK    2  A    between atoms: C_7  and  O_8
REMARK    3  A    between atoms: O_8  and  C_9
REMARK    4  A    between atoms: C_9  and  C_10
REMARK    5  A    between atoms: C_16  and  C_17
REMARK    6  A    between atoms: N_21  and  C_22
REMARK    7  A    between atoms: C_27  and  O_28
REMARK    8  A    between atoms: O_28  and  C_29
REMARK                            x       y       z     vdW  Elec       q    Type
REMARK                         _______ _______ _______ _____ _____    ______ ____
ROOT
ATOM      1  C   UNL     1      -2.469   1.240   4.935  0.00  0.00    +0.137 C 
ATOM      2  N   UNL     1      -2.131   2.480   5.151  0.00  0.00    -0.166 NA
ATOM      3  N   UNL     1      -1.475   2.852   6.304  0.00  0.00    -0.152 N 
ATOM      4  C   UNL     1      -1.145   4.173   6.676  0.00  0.00    +0.153 C 
ATOM      5  N   UNL     1      -1.764   5.227   6.210  0.00  0.00    -0.283 NA
ATOM      6  C   UNL     1      -0.024   4.248   7.652  0.00  0.00    +0.082 C 
ATOM      7  C   UNL     1       0.875   5.302   7.649  0.00  0.00    +0.042 C 
ATOM      8  C   UNL     1       0.079   3.138   8.627  0.00  0.00    +0.273 C 
ATOM      9  O   UNL     1       0.625   3.299   9.707  0.00  0.00    -0.268 OA
ATOM     10  N   UNL     1      -0.450   1.945   8.288  0.00  0.00    -0.152 NA
ATOM     11  C   UNL     1      -1.140   1.842   7.181  0.00  0.00    +0.181 C 
ATOM     12  S   UNL     1      -1.868   0.423   6.407  0.00  0.00    -0.035 S 
ATOM     13  H   UNL     1      -2.440   5.127   5.522  0.00  0.00    +0.188 HD
ENDROOT
BRANCH   7  14
ATOM     14  C   UNL     1       0.995   6.122   6.512  0.00  0.00    +0.048 A 
ATOM     15  C   UNL     1       0.406   5.902   5.274  0.00  0.00    +0.027 A 
ATOM     16  C   UNL     1       0.788   6.957   4.445  0.00  0.00    +0.020 A 
ATOM     17  C   UNL     1       1.586   7.788   5.164  0.00  0.00    +0.092 A 
ATOM     18  N   UNL     1       1.715   7.297   6.423  0.00  0.00    -0.313 N 
BRANCH  18  19
ATOM     19  C   UNL     1       2.458   7.882   7.457  0.00  0.00    +0.088 A 
ATOM     20  C   UNL     1       2.078   9.111   7.978  0.00  0.00    +0.030 A 
ATOM     21  C   UNL     1       2.812   9.685   8.998  0.00  0.00    +0.002 A 
ATOM     22  C   UNL     1       3.926   9.039   9.502  0.00  0.00    +0.004 A 
ATOM     23  C   UNL     1       4.311   7.814   8.989  0.00  0.00    +0.048 A 
ATOM     24  C   UNL     1       3.576   7.228   7.970  0.00  0.00    +0.144 A 
BRANCH  24  25
ATOM     25  O   UNL     1       3.950   6.021   7.468  0.00  0.00    -0.493 OA
ATOM     26  C   UNL     1       5.107   5.410   8.043  0.00  0.00    +0.277 C 
ENDBRANCH  24  25
ENDBRANCH  18  19
ENDBRANCH   7  14
BRANCH   1  27
ATOM     27  C   UNL     1      -3.187   0.648   3.750  0.00  0.00    +0.293 C 
BRANCH  27  28
ATOM     28  O   UNL     1      -3.478   1.680   2.805  0.00  0.00    -0.485 OA
BRANCH  28  35
ATOM     29  C   UNL     1      -4.063   3.704   0.923  0.00  0.00    +0.047 C 
ATOM     30  C   UNL     1      -4.443   2.261   0.710  0.00  0.00    -0.009 A 
ATOM     31  C   UNL     1      -5.099   1.883  -0.446  0.00  0.00    +0.007 A 
ATOM     32  C   UNL     1      -5.448   0.560  -0.642  0.00  0.00    +0.000 A 
ATOM     33  C   UNL     1      -5.142  -0.388   0.317  0.00  0.00    +0.004 A 
ATOM     34  C   UNL     1      -4.485  -0.015   1.473  0.00  0.00    +0.046 A 
ATOM     35  C   UNL     1      -4.129   1.311   1.670  0.00  0.00    +0.124 A 
ENDBRANCH  28  35
ENDBRANCH  27  28
ENDBRANCH   1  27
TORSDOF 6
