REMARK  Name = ZINC12341629
REMARK  4 active torsions:
REMARK  status: ('A' for Active; 'I' for Inactive)
REMARK    1  A    between atoms: C_1  and  C_2
REMARK    2  A    between atoms: C_5  and  C_18
REMARK    3  A    between atoms: C_5  and  C_19
REMARK    4  A    between atoms: N_14  and  N_15
REMARK                            x       y       z     vdW  Elec       q    Type
REMARK                         _______ _______ _______ _____ _____    ______ ____
ROOT
ATOM      1  C   UNL     1       0.328   1.616  -0.252  0.00  0.00    +0.012 C 
ATOM      2  C   UNL     1       0.195   0.102  -0.079  0.00  0.00    +0.020 C 
ATOM      3  C   UNL     1       0.686  -0.602  -1.349  0.00  0.00    +0.033 C 
ATOM      4  C   UNL     1       0.649  -2.129  -1.210  0.00  0.00    +0.038 C 
ATOM      5  N   UNL     1       1.436  -2.506  -0.025  0.00  0.00    -0.260 N 
ATOM      6  C   UNL     1       1.576  -1.616   1.029  0.00  0.00    +0.050 A 
ATOM      7  C   UNL     1       1.020  -0.341   1.093  0.00  0.00    -0.022 A 
ATOM      8  C   UNL     1       1.281   0.388   2.228  0.00  0.00    +0.006 A 
ATOM      9  C   UNL     1       2.062  -0.138   3.251  0.00  0.00    +0.001 A 
ATOM     10  C   UNL     1       2.619  -1.410   3.195  0.00  0.00    +0.012 A 
ATOM     11  C   UNL     1       2.361  -2.158   2.051  0.00  0.00    +0.029 A 
ATOM     12  C   UNL     1       2.732  -3.499   1.584  0.00  0.00    +0.152 C 
ATOM     13  N   UNL     1       3.469  -4.386   2.213  0.00  0.00    -0.184 NA
ATOM     14  C   UNL     1       2.097  -3.639   0.250  0.00  0.00    +0.272 C 
ATOM     15  O   UNL     1       2.166  -4.616  -0.472  0.00  0.00    -0.268 OA
ATOM     16  C   UNL     1      -0.798  -2.596  -1.038  0.00  0.00    +0.032 C 
ATOM     17  C   UNL     1       1.255  -2.774  -2.458  0.00  0.00    +0.032 C 
ENDROOT
BRANCH  13  18
ATOM     18  N   UNL     1       3.856  -4.162   3.422  0.00  0.00    -0.282 N 
ATOM     19  H   UNL     1       3.534  -3.380   3.898  0.00  0.00    +0.164 HD
ATOM     20  H   UNL     1       4.471  -4.774   3.856  0.00  0.00    +0.164 HD
ENDBRANCH  13  18
TORSDOF 1
