REMARK  Name = ZINC20999800
REMARK  7 active torsions:
REMARK  status: ('A' for Active; 'I' for Inactive)
REMARK    1  A    between atoms: C_1  and  C_2
REMARK    2  A    between atoms: C_2  and  C_4
REMARK    3  A    between atoms: C_2  and  N_9
REMARK    4  A    between atoms: N_9  and  C_10
REMARK    5  A    between atoms: C_10  and  C_11
REMARK    6  A    between atoms: C_20  and  N_21
REMARK    7  A    between atoms: N_24  and  C_27
REMARK                            x       y       z     vdW  Elec       q    Type
REMARK                         _______ _______ _______ _____ _____    ______ ____
ROOT
ATOM      1  C   UNL     1       5.398  -1.847   2.751  0.00  0.00    -0.024 A 
ATOM      2  C   UNL     1       4.968  -0.611   2.367  0.00  0.00    +0.015 A 
ATOM      3  C   UNL     1       3.667  -0.491   1.839  0.00  0.00    +0.004 A 
ATOM      4  C   UNL     1       3.162   0.753   1.427  0.00  0.00    +0.059 A 
ATOM      5  C   UNL     1       1.898   0.837   0.920  0.00  0.00    +0.167 A 
ATOM      6  C   UNL     1       1.094  -0.310   0.806  0.00  0.00    +0.168 A 
ATOM      7  C   UNL     1       1.562  -1.531   1.200  0.00  0.00    +0.078 A 
ATOM      8  C   UNL     1       2.859  -1.649   1.726  0.00  0.00    +0.077 A 
ATOM      9  N   UNL     1       3.336  -2.836   2.119  0.00  0.00    -0.232 NA
ATOM     10  C   UNL     1       4.551  -2.954   2.614  0.00  0.00    +0.123 A 
ATOM     11  O   UNL     1      -0.108   0.058   0.274  0.00  0.00    -0.453 OA
ATOM     12  C   UNL     1      -0.188   1.485   0.448  0.00  0.00    +0.466 C 
ATOM     13  O   UNL     1       1.188   1.909   0.458  0.00  0.00    -0.453 OA
ENDROOT
BRANCH  10  14
ATOM     14  N   UNL     1       5.003  -4.206   3.010  0.00  0.00    -0.312 N 
ATOM     15  C   UNL     1       5.021  -5.141   1.877  0.00  0.00    +0.125 C 
ATOM     16  C   UNL     1       5.599  -6.482   2.335  0.00  0.00    +0.124 C 
ATOM     17  N   UNL     1       4.785  -7.012   3.438  0.00  0.00    -0.327 N 
ATOM     18  C   UNL     1       4.766  -6.076   4.571  0.00  0.00    +0.124 C 
ATOM     19  C   UNL     1       4.189  -4.735   4.113  0.00  0.00    +0.125 C 
BRANCH  17  20
ATOM     20  C   UNL     1       5.239  -8.271   3.836  0.00  0.00    +0.031 A 
ATOM     21  C   UNL     1       5.605  -8.493   5.158  0.00  0.00    +0.023 A 
ATOM     22  C   UNL     1       6.049  -9.741   5.550  0.00  0.00    +0.003 A 
ATOM     23  C   UNL     1       6.141 -10.766   4.626  0.00  0.00    +0.020 A 
ATOM     24  C   UNL     1       5.782 -10.547   3.308  0.00  0.00    +0.043 A 
ATOM     25  C   UNL     1       5.332  -9.302   2.910  0.00  0.00    +0.043 A 
ATOM     26 CL   UNL     1       5.898 -11.837   2.152  0.00  0.00    -0.083 Cl
ENDBRANCH  17  20
ENDBRANCH  10  14
BRANCH   1  27
ATOM     27  C   UNL     1       6.782  -2.020   3.322  0.00  0.00    -0.042 C 
BRANCH  27  28
ATOM     28  N   UNL     1       7.664  -2.599   2.299  0.00  0.00    +0.386 N 
ATOM     29  H   UNL     1       7.692  -1.921   1.433  0.00  0.00    -0.085 HD
ATOM     30  H   UNL     1       7.255  -3.572   1.990  0.00  0.00    -0.085 HD
BRANCH  28  32
ATOM     31  C   UNL     1       9.810  -1.479   2.668  0.00  0.00    -0.008 C 
ATOM     32  C   UNL     1       9.025  -2.783   2.821  0.00  0.00    -0.037 C 
BRANCH  32  33
ATOM     33  C   UNL     1       9.714  -3.878   2.050  0.00  0.00    -0.024 A 
ATOM     34  C   UNL     1      10.536  -4.856   2.506  0.00  0.00    +0.009 A 
ATOM     35  C   UNL     1      11.060  -5.764   1.605  0.00  0.00    +0.008 A 
ATOM     36  C   UNL     1      10.737  -5.651   0.294  0.00  0.00    +0.045 A 
ATOM     37  S   UNL     1       9.656  -4.231   0.301  0.00  0.00    -0.103 S 
ENDBRANCH  32  33
ENDBRANCH  28  32
ENDBRANCH  27  28
ENDBRANCH   1  27
TORSDOF 6
