REMARK  Name = ZINC05944745
REMARK  7 active torsions:
REMARK  status: ('A' for Active; 'I' for Inactive)
REMARK    1  A    between atoms: C_3  and  N_22
REMARK    2  A    between atoms: C_6  and  C_7
REMARK    3  A    between atoms: C_7  and  C_8
REMARK    4  A    between atoms: N_10  and  C_11
REMARK    5  A    between atoms: C_11  and  C_12
REMARK    6  A    between atoms: C_15  and  S_18
REMARK    7  A    between atoms: S_18  and  N_21
REMARK                            x       y       z     vdW  Elec       q    Type
REMARK                         _______ _______ _______ _____ _____    ______ ____
ROOT
ATOM      1  C   UNL     1       1.222  -2.681  -1.444  0.00  0.00    +0.218 C 
ATOM      2  O   UNL     1       1.202  -1.889  -2.362  0.00  0.00    -0.275 OA
ATOM      3  N   UNL     1       1.237  -4.005  -1.696  0.00  0.00    -0.311 N 
ATOM      4  H   UNL     1       1.253  -4.639  -0.962  0.00  0.00    +0.149 HD
ENDROOT
BRANCH   1   5
ATOM      5  C   UNL     1       1.229  -2.186  -0.021  0.00  0.00    +0.130 C 
BRANCH   5  11
ATOM      6  C   UNL     1       0.002  -0.004   0.002  0.00  0.00    +0.006 A 
ATOM      7  C   UNL     1      -0.017   1.378   0.010  0.00  0.00    +0.033 A 
ATOM      8  C   UNL     1       1.171   2.086   0.002  0.00  0.00    +0.126 A 
ATOM      9  C   UNL     1       2.377   1.411  -0.015  0.00  0.00    +0.033 A 
ATOM     10  C   UNL     1       2.396   0.029  -0.021  0.00  0.00    +0.006 A 
ATOM     11  C   UNL     1       1.208  -0.679  -0.013  0.00  0.00    -0.038 A 
BRANCH   8  12
ATOM     12  N   UNL     1       1.151   3.566   0.010  0.00  0.00    +0.056 N 
ATOM     13  O   UNL     1       0.088   4.160   0.023  0.00  0.00    -0.126 OA
ATOM     14  O   UNL     1       2.197   4.189   0.003  0.00  0.00    -0.126 OA
ENDBRANCH   8  12
ENDBRANCH   5  11
ENDBRANCH   1   5
BRANCH   3  15
ATOM     15  C   UNL     1       1.230  -4.487  -3.080  0.00  0.00    +0.139 C 
BRANCH  15  16
ATOM     16  C   UNL     1       1.250  -5.994  -3.087  0.00  0.00    -0.030 A 
ATOM     17  C   UNL     1       2.457  -6.668  -3.108  0.00  0.00    +0.007 A 
ATOM     18  C   UNL     1       2.475  -8.051  -3.110  0.00  0.00    +0.029 A 
ATOM     19  C   UNL     1       1.288  -8.758  -3.101  0.00  0.00    +0.105 A 
ATOM     20  C   UNL     1       0.082  -8.083  -3.085  0.00  0.00    +0.029 A 
ATOM     21  C   UNL     1       0.063  -6.701  -3.079  0.00  0.00    +0.007 A 
BRANCH  19  22
ATOM     22  S   UNL     1       1.312 -10.520  -3.108  0.00  0.00    +0.056 S 
ATOM     23  O   UNL     1       2.568 -10.911  -2.572  0.00  0.00    -0.153 OA
ATOM     24  O   UNL     1       0.078 -10.945  -2.546  0.00  0.00    -0.153 OA
BRANCH  22  25
ATOM     25  N   UNL     1       1.302 -11.003  -4.692  0.00  0.00    -0.204 NA
ATOM     26  H   UNL     1       1.730 -11.835  -4.948  0.00  0.00    +0.144 HD
ATOM     27  H   UNL     1       0.867 -10.455  -5.364  0.00  0.00    +0.144 HD
ENDBRANCH  22  25
ENDBRANCH  19  22
ENDBRANCH  15  16
ENDBRANCH   3  15
TORSDOF 7
