REMARK  Name = ZINC09061579
REMARK  15 active torsions:
REMARK  status: ('A' for Active; 'I' for Inactive)
REMARK    1  A    between atoms: C_1  and  C_2
REMARK    2  A    between atoms: C_2  and  O_3
REMARK    3  A    between atoms: O_3  and  C_4
REMARK    4  A    between atoms: C_4  and  C_6
REMARK    5  A    between atoms: C_7  and  C_33
REMARK    6  A    between atoms: C_8  and  C_28
REMARK    7  A    between atoms: C_10  and  N_11
REMARK    8  A    between atoms: C_12  and  C_14
REMARK    9  A    between atoms: C_14  and  C_15
REMARK   10  A    between atoms: C_15  and  C_16
REMARK   11  A    between atoms: C_18  and  C_21
REMARK   12  A    between atoms: C_24  and  C_27
REMARK   13  A    between atoms: C_28  and  O_30
REMARK   14  A    between atoms: O_30  and  C_31
REMARK   15  A    between atoms: C_31  and  C_32
REMARK                            x       y       z     vdW  Elec       q    Type
REMARK                         _______ _______ _______ _____ _____    ______ ____
ROOT
ATOM      1  N   UNL     1      -1.279  -2.329  -2.491  0.00  0.00    -0.279 N 
ATOM      2  C   UNL     1      -1.322  -3.183  -3.533  0.00  0.00    +0.218 C 
ATOM      3  O   UNL     1      -1.367  -4.379  -3.335  0.00  0.00    -0.275 OA
ATOM      4  H   UNL     1      -1.243  -1.373  -2.649  0.00  0.00    +0.155 HD
ENDROOT
BRANCH   1   9
ATOM      5  C   UNL     1      -1.248  -2.099   0.003  0.00  0.00    +0.091 A 
ATOM      6  C   UNL     1      -1.259  -2.821   1.185  0.00  0.00    -0.014 A 
ATOM      7  C   UNL     1      -1.319  -4.186   1.096  0.00  0.00    +0.102 A 
ATOM      8  S   UNL     1      -1.346  -4.463  -0.665  0.00  0.00    -0.066 S 
ATOM      9  C   UNL     1      -1.287  -2.815  -1.199  0.00  0.00    +0.087 A 
ATOM     10  C   UNL     1      -1.213  -2.129   2.523  0.00  0.00    +0.046 C 
BRANCH   5  11
ATOM     11  C   UNL     1      -1.191  -0.632   0.010  0.00  0.00    +0.342 C 
ATOM     12  O   UNL     1      -2.220   0.016   0.023  0.00  0.00    -0.245 OA
BRANCH  11  13
ATOM     13  O   UNL     1       0.002  -0.004   0.002  0.00  0.00    -0.461 OA
BRANCH  13  15
ATOM     14  C   UNL     1       1.418   1.977  -0.001  0.00  0.00    +0.048 C 
ATOM     15  C   UNL     1      -0.018   1.448   0.010  0.00  0.00    +0.229 C 
ENDBRANCH  13  15
ENDBRANCH  11  13
ENDBRANCH   5  11
BRANCH   7  16
ATOM     16  C   UNL     1      -1.348  -5.172   2.176  0.00  0.00    +0.346 C 
ATOM     17  O   UNL     1      -1.323  -4.805   3.335  0.00  0.00    -0.244 OA
BRANCH  16  18
ATOM     18  O   UNL     1      -1.402  -6.489   1.886  0.00  0.00    -0.461 OA
BRANCH  18  19
ATOM     19  C   UNL     1      -1.427  -7.396   2.990  0.00  0.00    +0.229 C 
ATOM     20  C   UNL     1      -1.488  -8.833   2.469  0.00  0.00    +0.048 C 
ENDBRANCH  18  19
ENDBRANCH  16  18
ENDBRANCH   7  16
ENDBRANCH   1   9
BRANCH   2  21
ATOM     21  C   UNL     1      -1.314  -2.653  -4.943  0.00  0.00    +0.105 C 
BRANCH  21  22
ATOM     22  C   UNL     1      -1.369  -3.822  -5.928  0.00  0.00    +0.108 C 
BRANCH  22  23
ATOM     23  C   UNL     1      -1.361  -3.292  -7.339  0.00  0.00    +0.228 A 
ATOM     24  N   UNL     1      -0.304  -3.059  -8.076  0.00  0.00    -0.191 NA
ATOM     25  C   UNL     1      -0.778  -2.596  -9.255  0.00  0.00    +0.202 A 
ATOM     26  N   UNL     1      -2.082  -2.575  -9.165  0.00  0.00    -0.056 NA
ATOM     27  O   UNL     1      -2.431  -2.975  -8.074  0.00  0.00    -0.338 OA
BRANCH  25  28
ATOM     28  C   UNL     1       0.031  -2.188 -10.431  0.00  0.00    +0.022 A 
ATOM     29  C   UNL     1       1.421  -2.259 -10.382  0.00  0.00    +0.012 A 
ATOM     30  C   UNL     1       2.168  -1.883 -11.480  0.00  0.00    +0.004 A 
ATOM     31  C   UNL     1       1.539  -1.427 -12.624  0.00  0.00    -0.050 A 
ATOM     32  C   UNL     1       0.159  -1.349 -12.676  0.00  0.00    +0.004 A 
ATOM     33  C   UNL     1      -0.598  -1.728 -11.586  0.00  0.00    +0.012 A 
ATOM     34  C   UNL     1       2.360  -1.011 -13.817  0.00  0.00    +0.044 C 
ENDBRANCH  25  28
ENDBRANCH  22  23
ENDBRANCH  21  22
ENDBRANCH   2  21
TORSDOF 11
