REMARK  Name = ZINC66892692
REMARK  6 active torsions:
REMARK  status: ('A' for Active; 'I' for Inactive)
REMARK    1  A    between atoms: C_6  and  C_10
REMARK    2  A    between atoms: C_10  and  N_11
REMARK    3  A    between atoms: N_14  and  C_15
REMARK    4  A    between atoms: C_15  and  C_16
REMARK    5  A    between atoms: C_16  and  C_18
REMARK    6  A    between atoms: C_16  and  N_25
REMARK                            x       y       z     vdW  Elec       q    Type
REMARK                         _______ _______ _______ _____ _____    ______ ____
ROOT
ATOM      1  N   UNL     1       8.176  -6.392   0.785  0.00  0.00    -0.294 N 
ATOM      2  C   UNL     1       6.915  -6.562   1.229  0.00  0.00    +0.300 C 
ATOM      3  O   UNL     1       5.991  -6.594   0.439  0.00  0.00    -0.253 OA
ATOM      4  N   UNL     1       6.678  -6.698   2.549  0.00  0.00    -0.298 N 
ATOM      5  H   UNL     1       8.913  -6.367   1.415  0.00  0.00    +0.151 HD
ATOM      6  H   UNL     1       7.415  -6.673   3.179  0.00  0.00    +0.150 HD
ENDROOT
BRANCH   1   7
ATOM      7  C   UNL     1       8.434  -6.244  -0.650  0.00  0.00    +0.160 C 
BRANCH   7  13
ATOM      8  C   UNL     1      14.200  -4.799  -1.428  0.00  0.00    +0.005 A 
ATOM      9  C   UNL     1      14.331  -6.177  -1.665  0.00  0.00    +0.018 A 
ATOM     10  C   UNL     1      13.252  -6.985  -1.602  0.00  0.00    +0.092 A 
ATOM     11  N   UNL     1      12.020  -6.476  -1.308  0.00  0.00    -0.308 N 
ATOM     12  C   UNL     1      10.786  -7.054  -1.184  0.00  0.00    +0.115 A 
ATOM     13  C   UNL     1       9.913  -6.069  -0.879  0.00  0.00    +0.051 A 
ATOM     14  N   UNL     1      10.579  -4.913  -0.815  0.00  0.00    -0.342 N 
ATOM     15  C   UNL     1      11.860  -5.135  -1.073  0.00  0.00    +0.115 A 
ATOM     16  C   UNL     1      12.978  -4.279  -1.134  0.00  0.00    +0.045 A 
ATOM     17  H   UNL     1      10.188  -4.049  -0.613  0.00  0.00    +0.167 HD
ENDBRANCH   7  13
ENDBRANCH   1   7
BRANCH   4  18
ATOM     18  C   UNL     1       5.307  -6.883   3.031  0.00  0.00    +0.129 C 
BRANCH  18  19
ATOM     19  C   UNL     1       5.329  -7.150   4.538  0.00  0.00    +0.104 C 
BRANCH  19  20
ATOM     20  C   UNL     1       6.062  -8.438   4.809  0.00  0.00    -0.026 A 
ATOM     21  C   UNL     1       5.420  -9.650   4.633  0.00  0.00    +0.005 A 
ATOM     22  C   UNL     1       6.092 -10.832   4.881  0.00  0.00    +0.003 A 
ATOM     23  C   UNL     1       7.407 -10.804   5.307  0.00  0.00    +0.038 A 
ATOM     24  C   UNL     1       8.051  -9.592   5.483  0.00  0.00    +0.124 A 
ATOM     25  C   UNL     1       7.379  -8.408   5.228  0.00  0.00    +0.043 A 
ATOM     26  F   UNL     1       9.336  -9.563   5.900  0.00  0.00    -0.205 F 
ENDBRANCH  19  20
BRANCH  19  27
ATOM     27  N   UNL     1       3.951  -7.257   5.036  0.00  0.00    -0.290 NA
ATOM     28  C   UNL     1       3.182  -6.044   4.723  0.00  0.00    +0.113 C 
ATOM     29  C   UNL     1       1.740  -6.222   5.205  0.00  0.00    +0.175 C 
ATOM     30  O   UNL     1       1.743  -6.515   6.605  0.00  0.00    -0.377 OA
ATOM     31  C   UNL     1       2.483  -7.691   6.945  0.00  0.00    +0.175 C 
ATOM     32  C   UNL     1       3.933  -7.528   6.481  0.00  0.00    +0.113 C 
ENDBRANCH  19  27
ENDBRANCH  18  19
ENDBRANCH   4  18
TORSDOF 6
