REMARK  Name = ZINC00077698
REMARK  9 active torsions:
REMARK  status: ('A' for Active; 'I' for Inactive)
REMARK    1  A    between atoms: C_1  and  C_2
REMARK    2  A    between atoms: C_3  and  C_19
REMARK    3  A    between atoms: C_4  and  C_12
REMARK    4  A    between atoms: C_6  and  C_10
REMARK    5  A    between atoms: C_7  and  N_9
REMARK    6  A    between atoms: C_19  and  O_21
REMARK    7  A    between atoms: O_21  and  C_22
REMARK    8  A    between atoms: C_22  and  C_23
REMARK    9  A    between atoms: C_22  and  C_24
REMARK                            x       y       z     vdW  Elec       q    Type
REMARK                         _______ _______ _______ _____ _____    ______ ____
ROOT
ATOM      1  C   UNL     1      -5.136   2.320  -2.368  0.00  0.00    +0.087 C 
ATOM      2  C   UNL     1      -4.376   2.650  -1.109  0.00  0.00    +0.115 C 
ATOM      3  C   UNL     1      -3.346   3.500  -1.180  0.00  0.00    +0.087 C 
ATOM      4  C   UNL     1      -2.553   3.868   0.045  0.00  0.00    +0.105 C 
ATOM      5  C   UNL     1      -3.324   3.489   1.281  0.00  0.00    +0.098 C 
ATOM      6  C   UNL     1      -4.368   2.629   1.209  0.00  0.00    +0.198 C 
ATOM      7  O   UNL     1      -4.757   2.082   0.044  0.00  0.00    -0.445 OA
ENDROOT
BRANCH   4   8
ATOM      8  C   UNL     1      -1.238   3.133   0.030  0.00  0.00    -0.034 A 
ATOM      9  C   UNL     1      -1.218   1.751   0.017  0.00  0.00    +0.007 A 
ATOM     10  C   UNL     1      -0.013   1.076   0.008  0.00  0.00    +0.038 A 
ATOM     11  C   UNL     1       1.177   1.785   0.000  0.00  0.00    +0.123 A 
ATOM     12  C   UNL     1       1.157   3.169   0.008  0.00  0.00    +0.038 A 
ATOM     13  C   UNL     1      -0.051   3.842   0.022  0.00  0.00    +0.007 A 
ATOM     14  F   UNL     1       2.356   1.126  -0.013  0.00  0.00    -0.205 F 
ENDBRANCH   4   8
BRANCH   6  15
ATOM     15  N   UNL     1      -5.049   2.308   2.357  0.00  0.00    -0.328 N 
ATOM     16  H   UNL     1      -4.780   2.696   3.205  0.00  0.00    +0.145 HD
ATOM     17  H   UNL     1      -5.799   1.694   2.321  0.00  0.00    +0.145 HD
ENDBRANCH   6  15
BRANCH   5  18
ATOM     18  C   UNL     1      -2.948   4.042   2.547  0.00  0.00    +0.101 C 
ATOM     19  N   UNL     1      -2.650   4.482   3.552  0.00  0.00    -0.191 NA
ENDBRANCH   5  18
BRANCH   3  20
ATOM     20  C   UNL     1      -2.996   4.065  -2.431  0.00  0.00    +0.340 C 
ATOM     21  O   UNL     1      -3.630   3.775  -3.428  0.00  0.00    -0.245 OA
BRANCH  20  22
ATOM     22  O   UNL     1      -1.959   4.924  -2.517  0.00  0.00    -0.459 OA
BRANCH  22  23
ATOM     23  C   UNL     1      -1.662   5.455  -3.810  0.00  0.00    +0.171 C 
ATOM     24  C   UNL     1      -1.059   6.853  -3.661  0.00  0.00    +0.052 C 
ATOM     25  C   UNL     1      -0.662   4.540  -4.519  0.00  0.00    +0.052 C 
ENDBRANCH  22  23
ENDBRANCH  20  22
ENDBRANCH   3  20
TORSDOF 6
