REMARK  Name = ZINC63398553
REMARK  8 active torsions:
REMARK  status: ('A' for Active; 'I' for Inactive)
REMARK    1  A    between atoms: C_1  and  C_2
REMARK    2  A    between atoms: C_5  and  C_8
REMARK    3  A    between atoms: N_10  and  C_11
REMARK    4  A    between atoms: C_11  and  C_20
REMARK    5  A    between atoms: C_12  and  C_13
REMARK    6  A    between atoms: N_22  and  C_23
REMARK    7  A    between atoms: C_23  and  C_24
REMARK    8  A    between atoms: C_24  and  C_25
REMARK                            x       y       z     vdW  Elec       q    Type
REMARK                         _______ _______ _______ _____ _____    ______ ____
ROOT
ATOM      1  C   UNL     1       0.170  -6.332   1.303  0.00  0.00    +0.097 C 
ATOM      2  C   UNL     1       0.011  -7.073   0.182  0.00  0.00    +0.036 C 
ENDROOT
BRANCH   2   3
ATOM      3  C   UNL     1      -0.032  -6.417  -1.133  0.00  0.00    -0.023 A 
ATOM      4  C   UNL     1       0.605  -5.187  -1.327  0.00  0.00    +0.009 A 
ATOM      5  C   UNL     1       0.559  -4.578  -2.563  0.00  0.00    +0.016 A 
ATOM      6  C   UNL     1      -0.114  -5.182  -3.612  0.00  0.00    +0.018 A 
ATOM      7  C   UNL     1      -0.747  -6.400  -3.428  0.00  0.00    +0.016 A 
ATOM      8  C   UNL     1      -0.706  -7.024  -2.199  0.00  0.00    +0.009 A 
ATOM      9 BR   UNL     1      -0.171  -4.339  -5.303  0.00  0.00    -0.050 Br
ENDBRANCH   2   3
BRANCH   1  12
ATOM     10  C   UNL     1       1.408  -4.352   1.756  0.00  0.00    +0.248 C 
ATOM     11  O   UNL     1       2.282  -5.029   2.263  0.00  0.00    -0.270 OA
ATOM     12  N   UNL     1       0.330  -4.946   1.207  0.00  0.00    -0.277 N 
ATOM     13  H   UNL     1      -0.336  -4.412   0.746  0.00  0.00    +0.155 HD
BRANCH  10  18
ATOM     14  C   UNL     1       1.874   1.383   1.703  0.00  0.00    +0.044 C 
ATOM     15  C   UNL     1       1.752  -0.119   1.717  0.00  0.00    -0.050 A 
ATOM     16  C   UNL     1       2.692  -0.880   2.390  0.00  0.00    +0.004 A 
ATOM     17  C   UNL     1       2.586  -2.256   2.406  0.00  0.00    +0.013 A 
ATOM     18  C   UNL     1       1.528  -2.879   1.743  0.00  0.00    +0.037 A 
ATOM     19  C   UNL     1       0.583  -2.105   1.066  0.00  0.00    +0.013 A 
ATOM     20  C   UNL     1       0.698  -0.731   1.062  0.00  0.00    +0.004 A 
ENDBRANCH  10  18
ENDBRANCH   1  12
BRANCH   1  21
ATOM     21  C   UNL     1       0.175  -6.983   2.621  0.00  0.00    +0.258 C 
ATOM     22  O   UNL     1       0.318  -6.316   3.628  0.00  0.00    -0.269 OA
ATOM     23  N   UNL     1       0.021  -8.319   2.713  0.00  0.00    -0.310 N 
ATOM     24  H   UNL     1      -0.093  -8.850   1.910  0.00  0.00    +0.149 HD
BRANCH  23  25
ATOM     25  C   UNL     1       0.026  -8.968   4.026  0.00  0.00    +0.109 C 
BRANCH  25  26
ATOM     26  C   UNL     1      -0.165 -10.476   3.851  0.00  0.00    +0.052 C 
BRANCH  26  27
ATOM     27  C   UNL     1      -0.160 -11.143   5.202  0.00  0.00    -0.040 C 
ATOM     28  C   UNL     1      -1.237 -11.464   5.954  0.00  0.00    -0.001 A 
ATOM     29  C   UNL     1      -2.681 -11.294   5.748  0.00  0.00    +0.010 A 
ATOM     30  C   UNL     1      -3.535 -11.726   6.703  0.00  0.00    +0.001 A 
ATOM     31  C   UNL     1      -3.078 -12.330   7.883  0.00  0.00    +0.002 A 
ATOM     32  C   UNL     1      -1.768 -12.521   8.143  0.00  0.00    +0.026 A 
ATOM     33  C   UNL     1      -0.780 -12.106   7.208  0.00  0.00    +0.043 A 
ATOM     34  N   UNL     1       0.528 -12.178   7.230  0.00  0.00    -0.380 N 
ATOM     35  C   UNL     1       1.050 -11.595   5.988  0.00  0.00    +0.144 C 
ATOM     36  H   UNL     1       1.062 -12.557   7.945  0.00  0.00    +0.160 HD
ENDBRANCH  26  27
ENDBRANCH  25  26
ENDBRANCH  23  25
ENDBRANCH   1  21
TORSDOF 7
