REMARK  Name = ZINC24897522
REMARK  10 active torsions:
REMARK  status: ('A' for Active; 'I' for Inactive)
REMARK    1  A    between atoms: C_1  and  N_2
REMARK    2  A    between atoms: N_2  and  C_3
REMARK    3  A    between atoms: N_2  and  C_17
REMARK    4  A    between atoms: C_3  and  C_4
REMARK    5  A    between atoms: N_20  and  C_23
REMARK    6  A    between atoms: C_23  and  C_24
REMARK    7  A    between atoms: C_25  and  O_32
REMARK    8  A    between atoms: C_29  and  O_30
REMARK    9  A    between atoms: O_30  and  C_31
REMARK   10  A    between atoms: O_32  and  C_33
REMARK                            x       y       z     vdW  Elec       q    Type
REMARK                         _______ _______ _______ _____ _____    ______ ____
ROOT
ATOM      1  C   UNL     1       5.666   2.736  -1.725  0.00  0.00    +0.053 C 
ATOM      2  C   UNL     1       5.079   3.367  -2.991  0.00  0.00    +0.000 C 
ATOM      3  C   UNL     1       6.137   4.256  -3.650  0.00  0.00    -0.077 C 
ATOM      4  N   UNL     1       7.316   3.448  -3.985  0.00  0.00    +0.383 N 
ATOM      5  C   UNL     1       7.925   2.871  -2.780  0.00  0.00    -0.077 C 
ATOM      6  C   UNL     1       6.921   1.941  -2.096  0.00  0.00    +0.000 C 
ATOM      7  H   UNL     1       6.983   2.617  -4.624  0.00  0.00    -0.081 HD
ENDROOT
BRANCH   1   9
ATOM      8  C   UNL     1       5.239   1.135   0.041  0.00  0.00    +0.105 C 
ATOM      9  N   UNL     1       4.675   1.836  -1.121  0.00  0.00    -0.296 NA
BRANCH   9  10
ATOM     10  C   UNL     1       3.455   2.567  -0.752  0.00  0.00    +0.157 C 
BRANCH  10  11
ATOM     11  C   UNL     1       2.378   1.586  -0.367  0.00  0.00    +0.135 C 
ATOM     12  N   UNL     1       2.678   0.340  -0.419  0.00  0.00    -0.117 NA
ATOM     13  S   UNL     1       1.564  -0.823  -0.023  0.00  0.00    +0.102 S 
ATOM     14  O   UNL     1       1.842  -1.221   1.313  0.00  0.00    -0.146 OA
ATOM     15  O   UNL     1       1.528  -1.744  -1.105  0.00  0.00    -0.146 OA
ATOM     16  C   UNL     1       0.002  -0.004   0.002  0.00  0.00    +0.135 A 
ATOM     17  C   UNL     1      -1.173  -0.721   0.013  0.00  0.00    +0.051 A 
ATOM     18  C   UNL     1      -2.386  -0.053   0.031  0.00  0.00    +0.043 A 
ATOM     19  C   UNL     1      -2.414   1.331   0.038  0.00  0.00    +0.022 A 
ATOM     20  C   UNL     1      -1.237   2.052   0.031  0.00  0.00    +0.027 A 
ATOM     21  C   UNL     1      -0.017   1.387   0.010  0.00  0.00    +0.060 A 
ATOM     22  N   UNL     1       1.179   2.100   0.002  0.00  0.00    -0.299 N 
ATOM     23 CL   UNL     1      -3.872  -0.951   0.046  0.00  0.00    -0.083 Cl
ATOM     24  H   UNL     1       1.106   3.150   0.324  0.00  0.00    +0.153 HD
ENDBRANCH  10  11
ENDBRANCH   9  10
ENDBRANCH   1   9
BRANCH   4  25
ATOM     25  C   UNL     1       8.296   4.238  -4.743  0.00  0.00    -0.036 C 
BRANCH  25  26
ATOM     26  C   UNL     1       7.715   4.607  -6.083  0.00  0.00    +0.019 A 
ATOM     27  C   UNL     1       7.899   3.772  -7.174  0.00  0.00    +0.125 A 
ATOM     28  C   UNL     1       7.358   4.112  -8.406  0.00  0.00    +0.046 A 
ATOM     29  C   UNL     1       6.646   5.287  -8.549  0.00  0.00    +0.007 A 
ATOM     30  C   UNL     1       6.465   6.124  -7.464  0.00  0.00    +0.046 A 
ATOM     31  C   UNL     1       7.000   5.786  -6.229  0.00  0.00    +0.125 A 
BRANCH  31  32
ATOM     32  O   UNL     1       6.822   6.609  -5.163  0.00  0.00    -0.495 OA
ATOM     33  C   UNL     1       6.075   7.807  -5.385  0.00  0.00    +0.277 C 
ENDBRANCH  31  32
BRANCH  27  34
ATOM     34  O   UNL     1       8.604   2.618  -7.036  0.00  0.00    -0.495 OA
ATOM     35  C   UNL     1       8.755   1.806  -8.202  0.00  0.00    +0.277 C 
ENDBRANCH  27  34
ENDBRANCH  25  26
ENDBRANCH   4  25
TORSDOF 7
