REMARK  Name = ZINC02235662
REMARK  9 active torsions:
REMARK  status: ('A' for Active; 'I' for Inactive)
REMARK    1  A    between atoms: C_1  and  C_2
REMARK    2  A    between atoms: C_2  and  C_3
REMARK    3  A    between atoms: C_2  and  C_4
REMARK    4  A    between atoms: C_4  and  C_5
REMARK    5  A    between atoms: C_11  and  S_15
REMARK    6  A    between atoms: S_15  and  C_16
REMARK    7  A    between atoms: C_16  and  C_17
REMARK    8  A    between atoms: N_19  and  C_20
REMARK    9  A    between atoms: C_20  and  C_25
REMARK                            x       y       z     vdW  Elec       q    Type
REMARK                         _______ _______ _______ _____ _____    ______ ____
ROOT
ATOM      1  C   UNL     1      -2.442 -11.629   0.836  0.00  0.00    +0.046 A 
ATOM      2  C   UNL     1      -1.622 -12.143  -0.160  0.00  0.00    -0.022 A 
ATOM      3  C   UNL     1      -0.652 -11.347  -0.726  0.00  0.00    -0.031 A 
ATOM      4  C   UNL     1      -0.504 -10.014  -0.284  0.00  0.00    +0.037 A 
ATOM      5  C   UNL     1       0.465  -9.008  -0.757  0.00  0.00    +0.092 A 
ATOM      6  C   UNL     1       0.393  -7.753  -0.142  0.00  0.00    +0.072 A 
ATOM      7  C   UNL     1       1.256  -6.728  -0.509  0.00  0.00    +0.115 A 
ATOM      8  N   UNL     1       2.151  -6.968  -1.467  0.00  0.00    -0.228 NA
ATOM      9  C   UNL     1       2.209  -8.160  -2.033  0.00  0.00    +0.223 A 
ATOM     10  N   UNL     1       1.412  -9.148  -1.712  0.00  0.00    -0.234 NA
ATOM     11  S   UNL     1      -0.924  -7.903   1.033  0.00  0.00    -0.064 S 
ATOM     12  C   UNL     1      -1.384  -9.592   0.729  0.00  0.00    +0.111 A 
ATOM     13  N   UNL     1      -2.299 -10.384   1.245  0.00  0.00    -0.244 NA
ATOM     14  C   UNL     1       0.107 -12.121  -1.778  0.00  0.00    +0.036 C 
ATOM     15  C   UNL     1      -0.784 -13.340  -2.100  0.00  0.00    +0.009 C 
ATOM     16  C   UNL     1      -1.587 -13.518  -0.793  0.00  0.00    +0.037 C 
ENDROOT
BRANCH   1  17
ATOM     17  C   UNL     1      -3.505 -12.502   1.454  0.00  0.00    +0.058 C 
BRANCH  17  19
ATOM     18  C   UNL     1      -4.030 -14.023   3.365  0.00  0.00    +0.007 C 
ATOM     19  C   UNL     1      -2.922 -13.235   2.664  0.00  0.00    -0.011 C 
ATOM     20  C   UNL     1      -1.827 -14.197   2.199  0.00  0.00    +0.007 C 
ENDBRANCH  17  19
ENDBRANCH   1  17
BRANCH   7  21
ATOM     21  S   UNL     1       1.164  -5.148   0.267  0.00  0.00    -0.095 S 
BRANCH  21  22
ATOM     22  C   UNL     1       2.493  -4.289  -0.612  0.00  0.00    +0.171 C 
BRANCH  22  23
ATOM     23  C   UNL     1       2.603  -2.876  -0.099  0.00  0.00    +0.224 C 
ATOM     24  O   UNL     1       1.856  -2.488   0.774  0.00  0.00    -0.275 OA
ATOM     25  N   UNL     1       3.531  -2.044  -0.612  0.00  0.00    -0.305 N 
ATOM     26  H   UNL     1       4.078  -2.329  -1.360  0.00  0.00    +0.150 HD
BRANCH  25  27
ATOM     27  C   UNL     1       3.713  -0.708  -0.037  0.00  0.00    +0.060 C 
ATOM     28  C   UNL     1       4.032  -0.819   1.468  0.00  0.00    +0.030 C 
ATOM     29  C   UNL     1       5.579  -0.760   1.532  0.00  0.00    +0.002 C 
ATOM     30  C   UNL     1       5.929   0.276   0.436  0.00  0.00    +0.002 C 
ATOM     31  C   UNL     1       4.919  -0.013  -0.694  0.00  0.00    +0.030 C 
BRANCH  27  32
ATOM     32  C   UNL     1       2.468   0.116  -0.242  0.00  0.00    -0.024 A 
ATOM     33  C   UNL     1       2.262   1.256   0.511  0.00  0.00    +0.006 A 
ATOM     34  C   UNL     1       1.120   2.012   0.324  0.00  0.00    +0.000 A 
ATOM     35  C   UNL     1       0.183   1.627  -0.616  0.00  0.00    +0.000 A 
ATOM     36  C   UNL     1       0.389   0.486  -1.370  0.00  0.00    +0.000 A 
ATOM     37  C   UNL     1       1.531  -0.270  -1.182  0.00  0.00    +0.006 A 
ENDBRANCH  27  32
ENDBRANCH  25  27
ENDBRANCH  22  23
ENDBRANCH  21  22
ENDBRANCH   7  21
TORSDOF 7
