REMARK  Name = ZINC36684777
REMARK  11 active torsions:
REMARK  status: ('A' for Active; 'I' for Inactive)
REMARK    1  A    between atoms: C_1  and  C_2
REMARK    2  A    between atoms: C_5  and  C_35
REMARK    3  A    between atoms: N_8  and  S_10
REMARK    4  A    between atoms: S_10  and  C_13
REMARK    5  A    between atoms: C_17  and  C_19
REMARK    6  A    between atoms: N_21  and  C_22
REMARK    7  A    between atoms: C_22  and  C_23
REMARK    8  A    between atoms: C_23  and  C_25
REMARK    9  A    between atoms: C_23  and  N_32
REMARK   10  A    between atoms: N_32  and  C_33
REMARK   11  A    between atoms: N_32  and  C_34
REMARK                            x       y       z     vdW  Elec       q    Type
REMARK                         _______ _______ _______ _____ _____    ______ ____
ROOT
ATOM      1  C   UNL     1       2.845   2.632   1.870  0.00  0.00    +0.106 A 
ATOM      2  C   UNL     1       3.635   3.335   0.977  0.00  0.00    +0.028 A 
ATOM      3  C   UNL     1       3.353   4.658   0.687  0.00  0.00    +0.003 A 
ATOM      4  C   UNL     1       2.280   5.285   1.287  0.00  0.00    +0.013 A 
ATOM      5  C   UNL     1       1.480   4.582   2.189  0.00  0.00    +0.039 A 
ATOM      6  C   UNL     1       1.767   3.246   2.473  0.00  0.00    +0.041 A 
ENDROOT
BRANCH   5   7
ATOM      7  C   UNL     1       0.330   5.249   2.836  0.00  0.00    +0.244 C 
ATOM      8  O   UNL     1      -0.366   4.634   3.621  0.00  0.00    -0.270 OA
ATOM      9  N   UNL     1       0.052   6.538   2.556  0.00  0.00    -0.313 N 
ATOM     10  H   UNL     1       0.608   7.028   1.930  0.00  0.00    +0.149 HD
BRANCH   9  11
ATOM     11  C   UNL     1      -1.087   7.198   3.198  0.00  0.00    +0.094 C 
BRANCH  11  12
ATOM     12  C   UNL     1      -1.112   8.675   2.798  0.00  0.00    -0.021 C 
BRANCH  12  13
ATOM     13  C   UNL     1      -1.352   8.789   1.315  0.00  0.00    -0.057 A 
ATOM     14  C   UNL     1      -2.635   8.672   0.811  0.00  0.00    +0.002 A 
ATOM     15  C   UNL     1      -2.856   8.777  -0.549  0.00  0.00    +0.003 A 
ATOM     16  C   UNL     1      -1.796   8.999  -1.407  0.00  0.00    +0.038 A 
ATOM     17  C   UNL     1      -0.512   9.117  -0.904  0.00  0.00    +0.124 A 
ATOM     18  C   UNL     1      -0.292   9.017   0.459  0.00  0.00    +0.040 A 
ATOM     19  F   UNL     1       0.525   9.333  -1.742  0.00  0.00    -0.205 F 
ENDBRANCH  12  13
BRANCH  12  20
ATOM     20  N   UNL     1      -2.191   9.360   3.523  0.00  0.00    +0.382 N 
ATOM     21  C   UNL     1      -1.956   9.249   4.969  0.00  0.00    -0.096 C 
ATOM     22  C   UNL     1      -2.216  10.777   3.138  0.00  0.00    -0.096 C 
ATOM     23  H   UNL     1      -3.075   8.933   3.293  0.00  0.00    -0.082 HD
ENDBRANCH  12  20
ENDBRANCH  11  12
ENDBRANCH   9  11
ENDBRANCH   5   7
BRANCH   1  24
ATOM     24  S   UNL     1       3.213   0.948   2.232  0.00  0.00    +0.061 S 
ATOM     25  O   UNL     1       2.648   0.673   3.507  0.00  0.00    -0.153 OA
ATOM     26  O   UNL     1       4.595   0.765   1.956  0.00  0.00    -0.153 OA
BRANCH  24  32
ATOM     27  C   UNL     1       0.005   1.490   0.220  0.00  0.00    +0.009 C 
ATOM     28  C   UNL     1       0.103  -0.036   0.277  0.00  0.00    +0.002 C 
ATOM     29  C   UNL     1       0.677  -0.562  -1.040  0.00  0.00    +0.009 C 
ATOM     30  C   UNL     1       2.057   0.056  -1.280  0.00  0.00    +0.002 C 
ATOM     31  C   UNL     1       2.999  -0.353  -0.143  0.00  0.00    +0.112 C 
ATOM     32  N   UNL     1       2.385   0.020   1.138  0.00  0.00    -0.176 NA
ATOM     33  C   UNL     1       1.022  -0.447   1.431  0.00  0.00    +0.112 C 
ATOM     34  C   UNL     1       2.616  -0.444  -2.613  0.00  0.00    +0.009 C 
ENDBRANCH  24  32
ENDBRANCH   1  24
TORSDOF 7
