REMARK  Name = ZINC33429020
REMARK  2 active torsions:
REMARK  status: ('A' for Active; 'I' for Inactive)
REMARK    1  A    between atoms: C_1  and  C_2
REMARK    2  A    between atoms: N_4  and  C_29
REMARK                            x       y       z     vdW  Elec       q    Type
REMARK                         _______ _______ _______ _____ _____    ______ ____
ROOT
ATOM      1  C   UNL     1      -4.172  -2.213   0.008  0.00  0.00    +0.063 C 
ATOM      2  C   UNL     1      -3.726  -0.773   0.014  0.00  0.00    +0.052 C 
ATOM      3  N   UNL     1      -2.520  -0.350   0.006  0.00  0.00    -0.181 NA
ATOM      4  N   UNL     1      -2.429   1.040   0.019  0.00  0.00    -0.160 N 
ATOM      5  C   UNL     1      -3.655   1.608   0.028  0.00  0.00    +0.253 C 
ATOM      6  O   UNL     1      -3.923   2.791   0.038  0.00  0.00    -0.272 OA
ATOM      7  C   UNL     1      -4.617   0.443   0.024  0.00  0.00    +0.112 C 
ATOM      8  C   UNL     1      -5.502   0.480  -1.217  0.00  0.00    +0.061 C 
ATOM      9  C   UNL     1      -6.568   1.535  -1.050  0.00  0.00    -0.025 A 
ATOM     10  C   UNL     1      -7.276   1.931  -2.174  0.00  0.00    +0.007 A 
ATOM     11  C   UNL     1      -8.272   2.881  -2.076  0.00  0.00    +0.020 A 
ATOM     12  C   UNL     1      -8.569   3.444  -0.846  0.00  0.00    +0.043 A 
ATOM     13  C   UNL     1      -7.867   3.057   0.276  0.00  0.00    +0.043 A 
ATOM     14  C   UNL     1      -6.856   2.099   0.182  0.00  0.00    +0.035 A 
ATOM     15  N   UNL     1      -6.178   1.757   1.348  0.00  0.00    -0.322 N 
ATOM     16  C   UNL     1      -5.494   0.465   1.271  0.00  0.00    +0.112 C 
ATOM     17  C   UNL     1      -4.640   0.265   2.524  0.00  0.00    +0.130 C 
ATOM     18  N   UNL     1      -5.505   0.329   3.711  0.00  0.00    -0.313 N 
ATOM     19  C   UNL     1      -6.199   1.622   3.789  0.00  0.00    +0.125 C 
ATOM     20  C   UNL     1      -7.047   1.825   2.530  0.00  0.00    +0.124 C 
ATOM     21  C   UNL     1      -4.779   0.083   4.870  0.00  0.00    +0.099 A 
ATOM     22  C   UNL     1      -5.422   0.105   6.104  0.00  0.00    +0.042 A 
ATOM     23  C   UNL     1      -4.689  -0.147   7.249  0.00  0.00    +0.005 A 
ATOM     24  C   UNL     1      -3.330  -0.404   7.123  0.00  0.00    +0.018 A 
ATOM     25  C   UNL     1      -2.756  -0.405   5.868  0.00  0.00    +0.084 A 
ATOM     26  N   UNL     1      -3.481  -0.166   4.792  0.00  0.00    -0.350 N 
ATOM     27 CL   UNL     1      -9.824   4.636  -0.717  0.00  0.00    -0.083 Cl
ATOM     28  H   UNL     1      -2.982  -0.177   3.811  0.00  0.00    +0.166 HD
ENDROOT
BRANCH   4  29
ATOM     29  C   UNL     1      -1.224   1.754   0.017  0.00  0.00    +0.060 A 
ATOM     30  C   UNL     1      -0.013   1.076   0.008  0.00  0.00    +0.027 A 
ATOM     31  C   UNL     1       1.173   1.783   0.000  0.00  0.00    +0.022 A 
ATOM     32  C   UNL     1       1.155   3.167   0.008  0.00  0.00    +0.041 A 
ATOM     33  C   UNL     1      -0.051   3.846   0.023  0.00  0.00    +0.022 A 
ATOM     34  C   UNL     1      -1.240   3.143   0.030  0.00  0.00    +0.027 A 
ATOM     35 CL   UNL     1       2.648   4.053  -0.001  0.00  0.00    -0.084 Cl
ENDBRANCH   4  29
TORSDOF 1
