REMARK  Name = ZINC22285473
REMARK  7 active torsions:
REMARK  status: ('A' for Active; 'I' for Inactive)
REMARK    1  A    between atoms: C_9  and  C_12
REMARK    2  A    between atoms: C_12  and  N_13
REMARK    3  A    between atoms: C_14  and  C_16
REMARK    4  A    between atoms: C_16  and  S_17
REMARK    5  A    between atoms: S_17  and  C_18
REMARK    6  A    between atoms: N_22  and  C_23
REMARK    7  A    between atoms: C_23  and  C_24
REMARK                            x       y       z     vdW  Elec       q    Type
REMARK                         _______ _______ _______ _____ _____    ______ ____
ROOT
ATOM      1  S   UNL     1      -6.098   6.522   0.846  0.00  0.00    -0.077 S 
ENDROOT
BRANCH   1   2
ATOM      2  C   UNL     1      -5.980   8.006   1.789  0.00  0.00    +0.194 A 
ATOM      3  N   UNL     1      -4.997   8.332   2.593  0.00  0.00    -0.121 NA
ATOM      4  N   UNL     1      -5.287   9.587   3.144  0.00  0.00    -0.112 NA
ATOM      5  C   UNL     1      -6.441   9.983   2.665  0.00  0.00    +0.221 A 
ATOM      6  N   UNL     1      -6.899   9.017   1.815  0.00  0.00    -0.283 N 
ATOM      7  N   UNL     1      -7.084  11.176   2.969  0.00  0.00    -0.300 N 
ATOM      8  C   UNL     1      -6.343  12.325   2.433  0.00  0.00    +0.108 C 
ATOM      9  C   UNL     1      -7.151  13.605   2.659  0.00  0.00    +0.019 C 
ATOM     10  C   UNL     1      -7.400  13.788   4.158  0.00  0.00    +0.003 C 
ATOM     11  C   UNL     1      -8.130  12.557   4.701  0.00  0.00    +0.019 C 
ATOM     12  C   UNL     1      -7.294  11.307   4.416  0.00  0.00    +0.108 C 
BRANCH   6  13
ATOM     13  C   UNL     1      -8.156   9.058   1.063  0.00  0.00    +0.201 C 
BRANCH  13  14
ATOM     14  C   UNL     1      -9.236   8.364   1.852  0.00  0.00    +0.125 A 
ATOM     15  C   UNL     1     -10.057   8.947   2.744  0.00  0.00    +0.046 A 
ATOM     16  C   UNL     1     -10.907   7.934   3.241  0.00  0.00    +0.041 A 
ATOM     17  C   UNL     1     -10.556   6.792   2.624  0.00  0.00    +0.195 A 
ATOM     18  O   UNL     1      -9.547   7.059   1.779  0.00  0.00    -0.466 OA
ENDBRANCH  13  14
ENDBRANCH   6  13
ENDBRANCH   1   2
BRANCH   1  19
ATOM     19  C   UNL     1      -4.578   5.621   1.254  0.00  0.00    +0.173 C 
BRANCH  19  21
ATOM     20  N   UNL     1      -3.510   3.472   0.652  0.00  0.00    -0.311 N 
ATOM     21  C   UNL     1      -4.552   4.314   0.504  0.00  0.00    +0.223 C 
ATOM     22  O   UNL     1      -5.469   4.020  -0.234  0.00  0.00    -0.275 OA
ATOM     23  H   UNL     1      -2.679   3.739   1.321  0.00  0.00    +0.149 HD
BRANCH  20  24
ATOM     24  C   UNL     1      -3.486   2.202  -0.077  0.00  0.00    +0.152 C 
BRANCH  24  33
ATOM     25  C   UNL     1       2.581   0.271  -0.259  0.00  0.00    +0.004 A 
ATOM     26  C   UNL     1       2.528   1.653  -0.235  0.00  0.00    +0.004 A 
ATOM     27  C   UNL     1       1.307   2.298  -0.189  0.00  0.00    +0.049 A 
ATOM     28  C   UNL     1       0.132   1.562  -0.167  0.00  0.00    +0.163 A 
ATOM     29  C   UNL     1       0.185   0.173  -0.189  0.00  0.00    +0.162 A 
ATOM     30  C   UNL     1       1.414  -0.469  -0.236  0.00  0.00    +0.049 A 
ATOM     31  O   UNL     1      -0.955  -0.569  -0.162  0.00  0.00    -0.485 OA
ATOM     32  C   UNL     1      -2.172   0.109  -0.495  0.00  0.00    +0.275 C 
ATOM     33  C   UNL     1      -2.203   1.441   0.267  0.00  0.00    +0.228 C 
ATOM     34  O   UNL     1      -1.064   2.212  -0.131  0.00  0.00    -0.480 OA
ENDBRANCH  24  33
ENDBRANCH  20  24
ENDBRANCH  19  21
ENDBRANCH   1  19
TORSDOF 7
