REMARK  Name = ZINC18145457
REMARK  6 active torsions:
REMARK  status: ('A' for Active; 'I' for Inactive)
REMARK    1  A    between atoms: C_1  and  C_2
REMARK    2  A    between atoms: C_2  and  C_3
REMARK    3  A    between atoms: C_3  and  N_4
REMARK    4  A    between atoms: N_4  and  C_5
REMARK    5  A    between atoms: C_5  and  C_6
REMARK    6  A    between atoms: C_19  and  C_21
REMARK                            x       y       z     vdW  Elec       q    Type
REMARK                         _______ _______ _______ _____ _____    ______ ____
ROOT
ATOM      1  N   UNL     1       0.916  -1.866  -1.425  0.00  0.00    -0.294 N 
ATOM      2  C   UNL     1       1.658  -2.387  -0.428  0.00  0.00    +0.222 C 
ATOM      3  O   UNL     1       2.421  -1.679   0.194  0.00  0.00    -0.275 OA
ENDROOT
BRANCH   2   4
ATOM      4  C   UNL     1       1.539  -3.850  -0.085  0.00  0.00    +0.049 C 
ATOM      5  C   UNL     1       1.803  -4.690  -1.336  0.00  0.00    +0.019 C 
ATOM      6  C   UNL     1       1.682  -6.175  -0.989  0.00  0.00    -0.008 C 
ATOM      7  C   UNL     1       2.707  -6.531   0.090  0.00  0.00    +0.007 C 
ATOM      8  C   UNL     1       2.443  -5.691   1.341  0.00  0.00    -0.008 C 
ATOM      9  C   UNL     1       2.564  -4.206   0.994  0.00  0.00    +0.019 C 
ATOM     10  C   UNL     1       1.034  -5.980   1.862  0.00  0.00    +0.026 C 
ATOM     11  C   UNL     1       0.009  -5.624   0.783  0.00  0.00    +0.047 C 
ATOM     12  C   UNL     1       0.273  -6.464  -0.468  0.00  0.00    +0.026 C 
ATOM     13  C   UNL     1       0.130  -4.139   0.435  0.00  0.00    +0.039 C 
ATOM     14 CL   UNL     1      -1.652  -5.964   1.396  0.00  0.00    -0.118 Cl
ENDBRANCH   2   4
BRANCH   1  15
ATOM     15  C   UNL     1       0.930  -0.422  -1.671  0.00  0.00    +0.108 C 
BRANCH  15  17
ATOM     16  C   UNL     1       0.014   1.778  -0.922  0.00  0.00    +0.005 C 
ATOM     17  C   UNL     1      -0.088   0.261  -0.756  0.00  0.00    +0.016 C 
ENDBRANCH  15  17
ENDBRANCH   1  15
BRANCH   1  18
ATOM     18  C   UNL     1       0.097  -2.744  -2.264  0.00  0.00    +0.182 C 
BRANCH  18  19
ATOM     19  C   UNL     1       0.844  -3.070  -3.531  0.00  0.00    +0.128 A 
ATOM     20  N   UNL     1       0.241  -3.873  -4.446  0.00  0.00    -0.309 N 
ATOM     21  H   UNL     1      -0.648  -4.219  -4.271  0.00  0.00    +0.170 HD
ATOM     22  C   UNL     1       0.870  -4.196  -5.601  0.00  0.00    +0.259 A 
ATOM     23  O   UNL     1       0.342  -4.915  -6.429  0.00  0.00    -0.267 OA
ATOM     24  C   UNL     1       2.215  -3.644  -5.816  0.00  0.00    +0.065 A 
ATOM     25  C   UNL     1       2.948  -3.914  -6.970  0.00  0.00    +0.017 A 
ATOM     26  C   UNL     1       4.195  -3.375  -7.121  0.00  0.00    +0.021 A 
ATOM     27  C   UNL     1       4.741  -2.562  -6.135  0.00  0.00    +0.043 A 
ATOM     28  C   UNL     1       4.037  -2.279  -4.984  0.00  0.00    +0.048 A 
ATOM     29  C   UNL     1       2.761  -2.817  -4.808  0.00  0.00    +0.080 A 
ATOM     30  N   UNL     1       2.028  -2.564  -3.696  0.00  0.00    -0.232 NA
ATOM     31 CL   UNL     1       6.328  -1.893  -6.356  0.00  0.00    -0.083 Cl
ENDBRANCH  18  19
ENDBRANCH   1  18
TORSDOF 5
