REMARK  Name = ZINC64538900
REMARK  10 active torsions:
REMARK  status: ('A' for Active; 'I' for Inactive)
REMARK    1  A    between atoms: C_1  and  C_2
REMARK    2  A    between atoms: C_7  and  N_8
REMARK    3  A    between atoms: C_9  and  C_11
REMARK    4  A    between atoms: C_15  and  C_18
REMARK    5  A    between atoms: C_18  and  C_19
REMARK    6  A    between atoms: C_19  and  C_20
REMARK    7  A    between atoms: C_20  and  C_21
REMARK    8  A    between atoms: N_23  and  C_24
REMARK    9  A    between atoms: C_24  and  C_25
REMARK   10  A    between atoms: C_25  and  C_26
REMARK                            x       y       z     vdW  Elec       q    Type
REMARK                         _______ _______ _______ _____ _____    ______ ____
ROOT
ATOM      1  C   UNL     1      -1.806  -2.248   8.838  0.00  0.00    +0.012 C 
ENDROOT
BRANCH   1   2
ATOM      2  C   UNL     1      -2.260  -0.995   8.088  0.00  0.00    +0.040 C 
BRANCH   2   6
ATOM      3  C   UNL     1      -0.168   0.052   4.882  0.00  0.00    +0.272 C 
ATOM      4  N   UNL     1      -1.530   0.602   5.075  0.00  0.00    -0.167 NA
ATOM      5  N   UNL     1      -2.309   0.072   5.842  0.00  0.00    -0.177 NA
ATOM      6  C   UNL     1      -1.918  -1.136   6.604  0.00  0.00    +0.187 C 
ATOM      7  S   UNL     1      -0.088  -1.099   6.326  0.00  0.00    -0.095 S 
BRANCH   3   9
ATOM      8  N   UNL     1       0.025  -0.015   2.417  0.00  0.00    -0.283 N 
ATOM      9  C   UNL     1      -0.056  -0.694   3.578  0.00  0.00    +0.254 C 
ATOM     10  O   UNL     1      -0.040  -1.907   3.573  0.00  0.00    -0.272 OA
ATOM     11  H   UNL     1       0.078   0.954   2.425  0.00  0.00    +0.155 HD
BRANCH   8  18
ATOM     12  C   UNL     1      -1.264   1.184   0.181  0.00  0.00    +0.045 C 
ATOM     13  C   UNL     1      -0.584  -0.158   0.084  0.00  0.00    -0.029 A 
ATOM     14  C   UNL     1      -0.568  -0.840  -1.117  0.00  0.00    +0.005 A 
ATOM     15  C   UNL     1       0.055  -2.071  -1.206  0.00  0.00    +0.000 A 
ATOM     16  C   UNL     1       0.666  -2.622  -0.095  0.00  0.00    +0.002 A 
ATOM     17  C   UNL     1       0.655  -1.945   1.108  0.00  0.00    +0.023 A 
ATOM     18  C   UNL     1       0.034  -0.706   1.201  0.00  0.00    +0.036 A 
ENDBRANCH   8  18
ENDBRANCH   3   9
ENDBRANCH   2   6
ENDBRANCH   1   2
BRANCH   1  19
ATOM     19  C   UNL     1      -2.148  -2.107  10.322  0.00  0.00    +0.096 C 
BRANCH  19  20
ATOM     20  C   UNL     1      -1.701  -3.342  11.061  0.00  0.00    +0.213 C 
ATOM     21  O   UNL     1      -1.161  -4.246  10.460  0.00  0.00    -0.276 OA
ATOM     22  N   UNL     1      -1.900  -3.441  12.390  0.00  0.00    -0.315 N 
ATOM     23  H   UNL     1      -2.332  -2.718  12.871  0.00  0.00    +0.149 HD
BRANCH  22  24
ATOM     24  C   UNL     1      -1.465  -4.642  13.109  0.00  0.00    +0.108 C 
BRANCH  24  25
ATOM     25  C   UNL     1      -1.808  -4.500  14.593  0.00  0.00    +0.052 C 
BRANCH  25  26
ATOM     26  C   UNL     1      -1.360  -5.735  15.332  0.00  0.00    -0.040 C 
ATOM     27  C   UNL     1      -0.193  -5.908  15.994  0.00  0.00    -0.001 A 
ATOM     28  C   UNL     1       0.964  -5.033  16.215  0.00  0.00    +0.010 A 
ATOM     29  C   UNL     1       2.010  -5.497  16.936  0.00  0.00    +0.001 A 
ATOM     30  C   UNL     1       2.016  -6.791  17.476  0.00  0.00    +0.002 A 
ATOM     31  C   UNL     1       0.990  -7.653  17.316  0.00  0.00    +0.026 A 
ATOM     32  C   UNL     1      -0.162  -7.269  16.575  0.00  0.00    +0.043 A 
ATOM     33  N   UNL     1      -1.267  -7.913  16.284  0.00  0.00    -0.380 N 
ATOM     34  C   UNL     1      -2.127  -7.029  15.489  0.00  0.00    +0.144 C 
ATOM     35  H   UNL     1      -1.481  -8.820  16.552  0.00  0.00    +0.160 HD
ENDBRANCH  25  26
ENDBRANCH  24  25
ENDBRANCH  22  24
ENDBRANCH  19  20
ENDBRANCH   1  19
TORSDOF 9
