REMARK  Name = ZINC39266613
REMARK  9 active torsions:
REMARK  status: ('A' for Active; 'I' for Inactive)
REMARK    1  A    between atoms: C_4  and  C_7
REMARK    2  A    between atoms: C_9  and  O_29
REMARK    3  A    between atoms: N_13  and  C_14
REMARK    4  A    between atoms: C_14  and  C_15
REMARK    5  A    between atoms: N_17  and  C_18
REMARK    6  A    between atoms: C_18  and  C_19
REMARK    7  A    between atoms: C_22  and  S_25
REMARK    8  A    between atoms: S_25  and  N_28
REMARK    9  A    between atoms: O_29  and  C_30
REMARK                            x       y       z     vdW  Elec       q    Type
REMARK                         _______ _______ _______ _____ _____    ______ ____
ROOT
ATOM      1  C   UNL     1       3.601  -0.535  -0.036  0.00  0.00    +0.157 C 
ATOM      2  C   UNL     1       4.148  -0.975   1.322  0.00  0.00    +0.283 C 
ATOM      3  C   UNL     1       4.262  -2.303   0.624  0.00  0.00    +0.260 C 
ATOM      4  O   UNL     1       4.659  -3.385   1.002  0.00  0.00    -0.271 OA
ATOM      5  N   UNL     1       3.777  -1.890  -0.560  0.00  0.00    -0.278 N 
ENDROOT
BRANCH   1   9
ATOM      6  C   UNL     1      -0.492   0.678   0.120  0.00  0.00    +0.000 A 
ATOM      7  C   UNL     1       0.511   1.629   0.119  0.00  0.00    +0.000 A 
ATOM      8  C   UNL     1       1.835   1.236   0.068  0.00  0.00    +0.005 A 
ATOM      9  C   UNL     1       2.157  -0.107   0.020  0.00  0.00    -0.023 A 
ATOM     10  C   UNL     1       1.154  -1.058   0.022  0.00  0.00    +0.005 A 
ATOM     11  C   UNL     1      -0.171  -0.666   0.071  0.00  0.00    +0.000 A 
ENDBRANCH   1   9
BRANCH   5  12
ATOM     12  C   UNL     1       3.527  -2.535  -1.851  0.00  0.00    +0.204 C 
BRANCH  12  13
ATOM     13  C   UNL     1       4.755  -2.422  -2.716  0.00  0.00    +0.231 C 
ATOM     14  O   UNL     1       5.743  -1.858  -2.295  0.00  0.00    -0.274 OA
ATOM     15  N   UNL     1       4.757  -2.948  -3.957  0.00  0.00    -0.310 N 
ATOM     16  H   UNL     1       3.967  -3.400  -4.293  0.00  0.00    +0.149 HD
BRANCH  15  17
ATOM     17  C   UNL     1       5.951  -2.838  -4.798  0.00  0.00    +0.139 C 
BRANCH  17  18
ATOM     18  C   UNL     1       5.694  -3.502  -6.126  0.00  0.00    -0.030 A 
ATOM     19  C   UNL     1       5.976  -4.846  -6.293  0.00  0.00    +0.007 A 
ATOM     20  C   UNL     1       5.739  -5.455  -7.511  0.00  0.00    +0.029 A 
ATOM     21  C   UNL     1       5.221  -4.721  -8.562  0.00  0.00    +0.105 A 
ATOM     22  C   UNL     1       4.938  -3.378  -8.394  0.00  0.00    +0.029 A 
ATOM     23  C   UNL     1       5.170  -2.770  -7.175  0.00  0.00    +0.007 A 
BRANCH  21  24
ATOM     24  S   UNL     1       4.921  -5.497 -10.115  0.00  0.00    +0.056 S 
ATOM     25  O   UNL     1       4.945  -4.468 -11.095  0.00  0.00    -0.153 OA
ATOM     26  O   UNL     1       5.779  -6.628 -10.176  0.00  0.00    -0.153 OA
BRANCH  24  27
ATOM     27  N   UNL     1       3.371  -6.080 -10.080  0.00  0.00    -0.204 NA
ATOM     28  H   UNL     1       2.858  -6.143 -10.900  0.00  0.00    +0.144 HD
ATOM     29  H   UNL     1       2.977  -6.359  -9.238  0.00  0.00    +0.144 HD
ENDBRANCH  24  27
ENDBRANCH  21  24
ENDBRANCH  17  18
ENDBRANCH  15  17
ENDBRANCH  12  13
ENDBRANCH   5  12
BRANCH   2  30
ATOM     30  O   UNL     1       3.189  -0.945   2.382  0.00  0.00    -0.477 OA
BRANCH  30  31
ATOM     31  C   UNL     1       3.673  -0.877   3.650  0.00  0.00    +0.122 A 
ATOM     32  C   UNL     1       5.039  -0.957   3.877  0.00  0.00    +0.045 A 
ATOM     33  C   UNL     1       5.529  -0.887   5.167  0.00  0.00    +0.004 A 
ATOM     34  C   UNL     1       4.658  -0.737   6.231  0.00  0.00    +0.000 A 
ATOM     35  C   UNL     1       3.296  -0.658   6.007  0.00  0.00    +0.004 A 
ATOM     36  C   UNL     1       2.802  -0.721   4.719  0.00  0.00    +0.045 A 
ENDBRANCH  30  31
ENDBRANCH   2  30
TORSDOF 9
