REMARK  Name = ZINC59502394
REMARK  13 active torsions:
REMARK  status: ('A' for Active; 'I' for Inactive)
REMARK    1  A    between atoms: C_1  and  C_2
REMARK    2  A    between atoms: C_5  and  C_32
REMARK    3  A    between atoms: C_6  and  O_8
REMARK    4  A    between atoms: O_8  and  C_9
REMARK    5  A    between atoms: C_9  and  C_10
REMARK    6  A    between atoms: C_10  and  N_11
REMARK    7  A    between atoms: C_12  and  C_24
REMARK    8  A    between atoms: N_13  and  N_14
REMARK    9  A    between atoms: N_14  and  C_15
REMARK   10  A    between atoms: C_18  and  N_21
REMARK   11  A    between atoms: C_24  and  C_26
REMARK   12  A    between atoms: C_32  and  C_33
REMARK   13  A    between atoms: C_32  and  C_34
REMARK                            x       y       z     vdW  Elec       q    Type
REMARK                         _______ _______ _______ _____ _____    ______ ____
ROOT
ATOM      1  N   UNL     1       1.294  -3.628   4.811  0.00  0.00    -0.366 N 
ATOM      2  C   UNL     1       1.588  -4.508   5.719  0.00  0.00    +0.157 C 
ATOM      3  N   UNL     1       0.757  -4.682   6.805  0.00  0.00    -0.249 N 
ATOM      4  H   UNL     1      -0.085  -4.203   6.854  0.00  0.00    +0.171 HD
ATOM      5  H   UNL     1       1.914  -3.453   4.087  0.00  0.00    +0.161 HD
ENDROOT
BRANCH   3   6
ATOM      6  N   UNL     1       1.129  -5.552   7.839  0.00  0.00    -0.265 N 
ATOM      7  H   UNL     1       1.933  -6.088   7.757  0.00  0.00    +0.170 HD
BRANCH   6   8
ATOM      8  C   UNL     1       0.341  -5.647   8.989  0.00  0.00    +0.045 A 
ATOM      9  C   UNL     1      -0.814  -4.885   9.106  0.00  0.00    +0.026 A 
ATOM     10  C   UNL     1      -1.590  -4.981  10.244  0.00  0.00    +0.034 A 
ATOM     11  C   UNL     1      -1.219  -5.835  11.266  0.00  0.00    +0.126 A 
ATOM     12  C   UNL     1      -0.069  -6.595  11.153  0.00  0.00    +0.034 A 
ATOM     13  C   UNL     1       0.709  -6.508  10.015  0.00  0.00    +0.026 A 
BRANCH  11  14
ATOM     14  N   UNL     1      -2.053  -5.935  12.485  0.00  0.00    +0.056 N 
ATOM     15  O   UNL     1      -3.058  -5.271  12.586  0.00  0.00    -0.126 OA
ATOM     16  O   UNL     1      -1.729  -6.681  13.379  0.00  0.00    -0.126 OA
ENDBRANCH  11  14
ENDBRANCH   6   8
ENDBRANCH   3   6
BRANCH   2  17
ATOM     17  C   UNL     1       2.821  -5.328   5.587  0.00  0.00    +0.225 C 
ATOM     18  O   UNL     1       2.743  -6.492   5.248  0.00  0.00    -0.284 OA
BRANCH  17  19
ATOM     19  C   UNL     1       4.139  -4.729   5.869  0.00  0.00    +0.025 A 
ATOM     20  C   UNL     1       4.226  -3.427   6.372  0.00  0.00    +0.012 A 
ATOM     21  C   UNL     1       5.462  -2.873   6.633  0.00  0.00    +0.001 A 
ATOM     22  C   UNL     1       6.614  -3.603   6.398  0.00  0.00    +0.000 A 
ATOM     23  C   UNL     1       6.537  -4.892   5.901  0.00  0.00    +0.001 A 
ATOM     24  C   UNL     1       5.308  -5.462   5.641  0.00  0.00    +0.012 A 
ENDBRANCH  17  19
ENDBRANCH   2  17
BRANCH   1  25
ATOM     25  C   UNL     1       0.025  -2.900   4.882  0.00  0.00    +0.155 C 
BRANCH  25  26
ATOM     26  C   UNL     1      -0.073  -1.931   3.702  0.00  0.00    +0.250 C 
BRANCH  26  27
ATOM     27  O   UNL     1      -0.130  -2.671   2.481  0.00  0.00    -0.490 OA
BRANCH  27  33
ATOM     28  C   UNL     1      -0.381   1.661   0.247  0.00  0.00    +0.044 C 
ATOM     29  C   UNL     1      -0.344   0.155   0.200  0.00  0.00    -0.047 A 
ATOM     30  C   UNL     1      -0.403  -0.500  -1.016  0.00  0.00    +0.004 A 
ATOM     31  C   UNL     1      -0.369  -1.881  -1.062  0.00  0.00    +0.008 A 
ATOM     32  C   UNL     1      -0.278  -2.611   0.107  0.00  0.00    -0.003 A 
ATOM     33  C   UNL     1      -0.220  -1.956   1.329  0.00  0.00    +0.124 A 
ATOM     34  C   UNL     1      -0.247  -0.570   1.372  0.00  0.00    +0.049 A 
BRANCH  32  35
ATOM     35  C   UNL     1      -0.243  -4.117   0.056  0.00  0.00    +0.016 C 
ATOM     36  C   UNL     1      -1.523  -4.635  -0.603  0.00  0.00    +0.012 C 
ATOM     37  C   UNL     1       0.970  -4.571  -0.758  0.00  0.00    +0.012 C 
ENDBRANCH  32  35
ENDBRANCH  27  33
ENDBRANCH  26  27
ENDBRANCH  25  26
ENDBRANCH   1  25
TORSDOF 10
