REMARK  Name = ZINC02419223
REMARK  2 active torsions:
REMARK  status: ('A' for Active; 'I' for Inactive)
REMARK    1  A    between atoms: C_1  and  C_2
REMARK    2  A    between atoms: C_5  and  N_8
REMARK                            x       y       z     vdW  Elec       q    Type
REMARK                         _______ _______ _______ _____ _____    ______ ____
ROOT
ATOM      1  N   UNL     1       0.059  -4.172  -0.021  0.00  0.00    -0.210 N 
ATOM      2  C   UNL     1      -0.030  -4.891  -1.146  0.00  0.00    +0.228 C 
ATOM      3  O   UNL     1      -0.133  -4.433  -2.264  0.00  0.00    -0.275 OA
ATOM      4  C   UNL     1       0.018  -6.364  -0.806  0.00  0.00    +0.074 C 
ATOM      5  C   UNL     1       1.327  -6.970  -1.346  0.00  0.00    -0.054 C 
ATOM      6  C   UNL     1       1.832  -6.119  -2.525  0.00  0.00    -0.016 C 
ATOM      7  C   UNL     1       2.764  -5.062  -1.901  0.00  0.00    -0.020 C 
ATOM      8  C   UNL     1       2.729  -5.340  -0.385  0.00  0.00    -0.076 C 
ATOM      9  N   UNL     1       2.326  -6.785  -0.250  0.00  0.00    +0.395 N 
ATOM     10  C   UNL     1       1.555  -6.982   0.989  0.00  0.00    +0.053 C 
ATOM     11  C   UNL     1       0.155  -6.370   0.741  0.00  0.00    +0.089 C 
ATOM     12  C   UNL     1       0.172  -4.901   1.096  0.00  0.00    +0.229 C 
ATOM     13  O   UNL     1       0.271  -4.452   2.218  0.00  0.00    -0.275 OA
ATOM     14  C   UNL     1       1.454  -8.437   1.351  0.00  0.00    -0.026 A 
ATOM     15  C   UNL     1       0.941  -9.540   0.706  0.00  0.00    +0.024 A 
ATOM     16  C   UNL     1       0.995 -10.784   1.312  0.00  0.00    +0.041 A 
ATOM     17  C   UNL     1       1.565 -10.914   2.567  0.00  0.00    +0.022 A 
ATOM     18  C   UNL     1       2.080  -9.812   3.215  0.00  0.00    +0.025 A 
ATOM     19  C   UNL     1       2.030  -8.557   2.613  0.00  0.00    +0.036 A 
ATOM     20  N   UNL     1       2.475  -7.311   3.060  0.00  0.00    -0.286 N 
ATOM     21  C   UNL     1       2.234  -6.333   2.166  0.00  0.00    +0.212 C 
ATOM     22  O   UNL     1       2.510  -5.159   2.285  0.00  0.00    -0.277 OA
ATOM     23 CL   UNL     1       0.348 -12.176   0.501  0.00  0.00    -0.084 Cl
ATOM     24  H   UNL     1       2.908  -7.166   3.916  0.00  0.00    +0.155 HD
ATOM     25  H   UNL     1       3.109  -7.417  -0.329  0.00  0.00    -0.079 HD
ENDROOT
BRANCH   1  30
ATOM     26  C   UNL     1      -0.016   1.503   0.009  0.00  0.00    +0.044 C 
ATOM     27  C   UNL     1       0.004  -0.004   0.001  0.00  0.00    -0.050 A 
ATOM     28  C   UNL     1       1.155  -0.681   0.361  0.00  0.00    +0.005 A 
ATOM     29  C   UNL     1       1.176  -2.062   0.355  0.00  0.00    +0.024 A 
ATOM     30  C   UNL     1       0.040  -2.771  -0.013  0.00  0.00    +0.044 A 
ATOM     31  C   UNL     1      -1.114  -2.088  -0.374  0.00  0.00    +0.024 A 
ATOM     32  C   UNL     1      -1.131  -0.707  -0.361  0.00  0.00    +0.005 A 
ENDBRANCH   1  30
TORSDOF 1
