REMARK  Name = ZINC44855839
REMARK  8 active torsions:
REMARK  status: ('A' for Active; 'I' for Inactive)
REMARK    1  A    between atoms: C_1  and  C_2
REMARK    2  A    between atoms: N_8  and  S_31
REMARK    3  A    between atoms: C_10  and  C_13
REMARK    4  A    between atoms: N_15  and  C_16
REMARK    5  A    between atoms: C_16  and  C_17
REMARK    6  A    between atoms: C_20  and  N_23
REMARK    7  A    between atoms: C_27  and  C_30
REMARK    8  A    between atoms: S_31  and  C_34
REMARK                            x       y       z     vdW  Elec       q    Type
REMARK                         _______ _______ _______ _____ _____    ______ ____
ROOT
ATOM      1  C   UNL     1      -0.391  -5.624   0.933  0.00  0.00    +0.256 C 
ATOM      2  O   UNL     1       0.170  -6.228   0.043  0.00  0.00    -0.272 OA
ATOM      3  N   UNL     1      -1.014  -6.301   1.918  0.00  0.00    -0.308 N 
ATOM      4  H   UNL     1      -1.462  -5.819   2.630  0.00  0.00    +0.149 HD
ENDROOT
BRANCH   1  14
ATOM      5  C   UNL     1       1.460   1.866  -0.569  0.00  0.00    +0.044 C 
ATOM      6  C   UNL     1       1.130   0.398  -0.477  0.00  0.00    -0.048 A 
ATOM      7  C   UNL     1       1.036  -0.362  -1.628  0.00  0.00    +0.007 A 
ATOM      8  C   UNL     1       0.736  -1.709  -1.552  0.00  0.00    +0.048 A 
ATOM      9  C   UNL     1       0.527  -2.305  -0.317  0.00  0.00    +0.144 A 
ATOM     10  C   UNL     1       0.620  -1.537   0.840  0.00  0.00    +0.093 A 
ATOM     11  C   UNL     1       0.928  -0.189   0.759  0.00  0.00    +0.031 A 
ATOM     12  N   UNL     1       0.402  -2.135   2.092  0.00  0.00    -0.200 N 
ATOM     13  C   UNL     1       0.391  -3.606   2.155  0.00  0.00    +0.185 C 
ATOM     14  C   UNL     1      -0.392  -4.117   0.937  0.00  0.00    +0.277 C 
ATOM     15  O   UNL     1       0.237  -3.632  -0.251  0.00  0.00    -0.476 OA
BRANCH  12  16
ATOM     16  S   UNL     1       0.164  -1.217   3.450  0.00  0.00    +0.043 S 
ATOM     17  O   UNL     1      -0.518  -0.059   2.990  0.00  0.00    -0.155 OA
ATOM     18  O   UNL     1      -0.450  -2.098   4.380  0.00  0.00    -0.155 OA
ATOM     19  C   UNL     1       1.832  -0.777   4.012  0.00  0.00    +0.218 C 
ENDBRANCH  12  16
ENDBRANCH   1  14
BRANCH   3  20
ATOM     20  C   UNL     1      -1.014  -7.766   1.913  0.00  0.00    +0.139 C 
BRANCH  20  21
ATOM     21  C   UNL     1      -1.772  -8.273   3.113  0.00  0.00    -0.030 A 
ATOM     22  C   UNL     1      -1.106  -8.501   4.304  0.00  0.00    +0.007 A 
ATOM     23  C   UNL     1      -1.798  -8.965   5.405  0.00  0.00    +0.023 A 
ATOM     24  C   UNL     1      -3.164  -9.202   5.316  0.00  0.00    +0.030 A 
ATOM     25  C   UNL     1      -3.829  -8.972   4.119  0.00  0.00    +0.023 A 
ATOM     26  C   UNL     1      -3.132  -8.503   3.023  0.00  0.00    +0.007 A 
BRANCH  24  27
ATOM     27  N   UNL     1      -3.866  -9.672   6.428  0.00  0.00    -0.330 N 
ATOM     28  C   UNL     1      -5.280 -10.054   6.314  0.00  0.00    +0.105 C 
ATOM     29  C   UNL     1      -5.451 -11.479   6.850  0.00  0.00    +0.019 C 
ATOM     30  C   UNL     1      -4.893 -11.555   8.273  0.00  0.00    +0.006 C 
ATOM     31  C   UNL     1      -3.399 -11.221   8.255  0.00  0.00    +0.003 C 
ATOM     32  C   UNL     1      -3.204  -9.799   7.734  0.00  0.00    +0.108 C 
ATOM     33  C   UNL     1      -2.835 -11.329   9.673  0.00  0.00    +0.009 C 
ENDBRANCH  24  27
ENDBRANCH  20  21
ENDBRANCH   3  20
TORSDOF 5
