REMARK  Name = ZINC38676355
REMARK  14 active torsions:
REMARK  status: ('A' for Active; 'I' for Inactive)
REMARK    1  A    between atoms: C_1  and  C_2
REMARK    2  A    between atoms: C_2  and  O_3
REMARK    3  A    between atoms: O_3  and  C_4
REMARK    4  A    between atoms: C_4  and  C_6
REMARK    5  A    between atoms: C_8  and  N_20
REMARK    6  A    between atoms: C_11  and  O_18
REMARK    7  A    between atoms: C_12  and  O_16
REMARK    8  A    between atoms: O_16  and  C_17
REMARK    9  A    between atoms: O_18  and  C_19
REMARK   10  A    between atoms: C_21  and  C_23
REMARK   11  A    between atoms: C_23  and  N_24
REMARK   12  A    between atoms: N_27  and  C_30
REMARK   13  A    between atoms: C_32  and  C_37
REMARK   14  A    between atoms: C_35  and  C_36
REMARK                            x       y       z     vdW  Elec       q    Type
REMARK                         _______ _______ _______ _____ _____    ______ ____
ROOT
ATOM      1  C   UNL     1      -0.235  -3.411  -3.392  0.00  0.00    +0.234 C 
ATOM      2  C   UNL     1       0.049  -1.938  -3.202  0.00  0.00    +0.053 C 
ATOM      3  C   UNL     1       0.769  -1.842  -2.027  0.00  0.00    +0.021 A 
ATOM      4  C   UNL     1       1.317  -0.733  -1.331  0.00  0.00    +0.061 A 
ATOM      5  C   UNL     1       1.993  -0.934  -0.173  0.00  0.00    +0.162 A 
ATOM      6  C   UNL     1       2.168  -2.225   0.362  0.00  0.00    +0.163 A 
ATOM      7  C   UNL     1       1.668  -3.329  -0.257  0.00  0.00    +0.075 A 
ATOM      8  C   UNL     1       0.950  -3.194  -1.469  0.00  0.00    +0.049 A 
ATOM      9  N   UNL     1       0.376  -4.094  -2.248  0.00  0.00    -0.367 N 
ATOM     10  H   UNL     1       0.361  -5.050  -2.089  0.00  0.00    +0.161 HD
ENDROOT
BRANCH   2  11
ATOM     11  N   UNL     1      -0.328  -0.914  -4.022  0.00  0.00    -0.285 N 
ATOM     12  C   UNL     1      -1.154  -1.151  -5.060  0.00  0.00    +0.231 C 
ATOM     13  O   UNL     1      -1.631  -2.255  -5.215  0.00  0.00    -0.274 OA
ATOM     14  H   UNL     1      -0.001  -0.015  -3.858  0.00  0.00    +0.155 HD
BRANCH  12  15
ATOM     15  C   UNL     1      -1.485  -0.044  -6.028  0.00  0.00    +0.180 C 
BRANCH  15  16
ATOM     16  N   UNL     1      -2.526  -0.502  -6.958  0.00  0.00    -0.291 NA
ATOM     17  C   UNL     1      -1.967  -1.412  -7.967  0.00  0.00    +0.104 C 
ATOM     18  C   UNL     1      -3.107  -2.007  -8.801  0.00  0.00    +0.120 C 
ATOM     19  N   UNL     1      -3.917  -0.903  -9.339  0.00  0.00    -0.327 N 
ATOM     20  C   UNL     1      -4.399   0.126  -8.405  0.00  0.00    +0.120 C 
ATOM     21  C   UNL     1      -3.208   0.636  -7.587  0.00  0.00    +0.104 C 
BRANCH  19  22
ATOM     22  C   UNL     1      -4.220  -0.834 -10.701  0.00  0.00    +0.033 A 
ATOM     23  C   UNL     1      -5.373  -1.436 -11.188  0.00  0.00    +0.026 A 
ATOM     24  C   UNL     1      -5.670  -1.365 -12.535  0.00  0.00    -0.049 A 
ATOM     25  C   UNL     1      -4.821  -0.697 -13.398  0.00  0.00    +0.004 A 
ATOM     26  C   UNL     1      -3.672  -0.098 -12.916  0.00  0.00    +0.005 A 
ATOM     27  C   UNL     1      -3.372  -0.159 -11.569  0.00  0.00    -0.029 A 
ATOM     28  C   UNL     1      -2.123   0.500 -11.043  0.00  0.00    +0.045 C 
ATOM     29  C   UNL     1      -6.921  -2.017 -13.065  0.00  0.00    +0.044 C 
ENDBRANCH  19  22
ENDBRANCH  15  16
ENDBRANCH  12  15
ENDBRANCH   2  11
BRANCH   1  30
ATOM     30  C   UNL     1       0.384  -3.897  -4.678  0.00  0.00    +0.336 C 
ATOM     31  O   UNL     1       1.575  -4.088  -4.740  0.00  0.00    -0.248 OA
BRANCH  30  32
ATOM     32  O   UNL     1      -0.389  -4.117  -5.753  0.00  0.00    -0.463 OA
BRANCH  32  34
ATOM     33  C   UNL     1      -0.774  -4.820  -8.033  0.00  0.00    +0.048 C 
ATOM     34  C   UNL     1       0.238  -4.714  -6.890  0.00  0.00    +0.229 C 
ENDBRANCH  32  34
ENDBRANCH  30  32
ENDBRANCH   1  30
BRANCH   6  35
ATOM     35  O   UNL     1       2.853  -2.371   1.524  0.00  0.00    -0.491 OA
ATOM     36  C   UNL     1       3.003  -3.701   2.025  0.00  0.00    +0.277 C 
ENDBRANCH   6  35
BRANCH   5  37
ATOM     37  O   UNL     1       2.515   0.136   0.487  0.00  0.00    -0.491 OA
ATOM     38  C   UNL     1       2.309   1.423  -0.100  0.00  0.00    +0.277 C 
ENDBRANCH   5  37
TORSDOF 9
