REMARK  Name = ZINC19848765
REMARK  6 active torsions:
REMARK  status: ('A' for Active; 'I' for Inactive)
REMARK    1  A    between atoms: C_3  and  N_20
REMARK    2  A    between atoms: C_4  and  C_8
REMARK    3  A    between atoms: C_9  and  C_18
REMARK    4  A    between atoms: C_10  and  N_17
REMARK    5  A    between atoms: C_12  and  N_16
REMARK    6  A    between atoms: C_13  and  C_14
REMARK                            x       y       z     vdW  Elec       q    Type
REMARK                         _______ _______ _______ _____ _____    ______ ____
ROOT
ATOM      1  C   UNL     1       1.179   1.937   0.064  0.00  0.00    +0.107 C 
ATOM      2  C   UNL     1       1.250   3.245  -0.645  0.00  0.00    +0.069 C 
ATOM      3  C   UNL     1       0.249   4.137  -0.740  0.00  0.00    +0.079 C 
ATOM      4  S   UNL     1      -1.337   3.879  -0.035  0.00  0.00    -0.058 S 
ATOM      5  C   UNL     1      -1.332   2.136   0.164  0.00  0.00    +0.079 C 
ATOM      6  C   UNL     1      -0.206   1.402   0.192  0.00  0.00    +0.069 C 
ENDROOT
BRANCH   1  10
ATOM      7  C   UNL     1       2.829   2.410   3.976  0.00  0.00    +0.022 A 
ATOM      8  C   UNL     1       3.508   1.672   3.024  0.00  0.00    +0.034 A 
ATOM      9  C   UNL     1       2.973   1.519   1.759  0.00  0.00    +0.130 A 
ATOM     10  C   UNL     1       1.760   2.104   1.444  0.00  0.00    -0.003 A 
ATOM     11  C   UNL     1       1.084   2.846   2.394  0.00  0.00    +0.026 A 
ATOM     12  C   UNL     1       1.616   2.995   3.663  0.00  0.00    +0.041 A 
ATOM     13 CL   UNL     1       0.763   3.921   4.858  0.00  0.00    -0.084 Cl
BRANCH   9  14
ATOM     14  N   UNL     1       3.700   0.729   0.740  0.00  0.00    +0.057 N 
ATOM     15  O   UNL     1       4.260  -0.305   1.056  0.00  0.00    -0.126 OA
ATOM     16  O   UNL     1       3.737   1.113  -0.416  0.00  0.00    -0.126 OA
ENDBRANCH   9  14
ENDBRANCH   1  10
BRANCH   5  17
ATOM     17  N   UNL     1      -2.538   1.490   0.301  0.00  0.00    -0.352 N 
ATOM     18  H   UNL     1      -2.565   0.397   0.428  0.00  0.00    +0.143 HD
ATOM     19  H   UNL     1      -3.475   2.065   0.285  0.00  0.00    +0.143 HD
ENDBRANCH   5  17
BRANCH   3  20
ATOM     20  N   UNL     1       0.479   5.308  -1.423  0.00  0.00    -0.352 N 
ATOM     21  H   UNL     1      -0.321   6.056  -1.517  0.00  0.00    +0.143 HD
ATOM     22  H   UNL     1       1.464   5.496  -1.876  0.00  0.00    +0.143 HD
ENDBRANCH   3  20
BRANCH   6  23
ATOM     23  C   UNL     1      -0.350  -0.013   0.353  0.00  0.00    +0.098 C 
ATOM     24  N   UNL     1      -0.465  -1.136   0.481  0.00  0.00    -0.191 NA
ENDBRANCH   6  23
BRANCH   2  25
ATOM     25  C   UNL     1       2.489   3.580  -1.279  0.00  0.00    +0.098 C 
ATOM     26  N   UNL     1       3.473   3.846  -1.782  0.00  0.00    -0.191 NA
ENDBRANCH   2  25
TORSDOF 6
