REMARK  Name = ZINC15959171
REMARK  8 active torsions:
REMARK  status: ('A' for Active; 'I' for Inactive)
REMARK    1  A    between atoms: C_1  and  C_2
REMARK    2  A    between atoms: C_2  and  C_3
REMARK    3  A    between atoms: C_14  and  C_17
REMARK    4  A    between atoms: C_17  and  C_19
REMARK    5  A    between atoms: C_17  and  O_20
REMARK    6  A    between atoms: N_23  and  C_26
REMARK    7  A    between atoms: C_26  and  C_27
REMARK    8  A    between atoms: C_27  and  C_28
REMARK                            x       y       z     vdW  Elec       q    Type
REMARK                         _______ _______ _______ _____ _____    ______ ____
ROOT
ATOM      1  C   UNL     1      -1.799  -0.153   0.261  0.00  0.00    -0.047 A 
ATOM      2  C   UNL     1      -2.502  -0.438   1.417  0.00  0.00    +0.005 A 
ATOM      3  C   UNL     1      -3.747  -1.028   1.349  0.00  0.00    +0.024 A 
ATOM      4  C   UNL     1      -4.307  -1.341   0.112  0.00  0.00    +0.039 A 
ATOM      5  C   UNL     1      -3.591  -1.049  -1.045  0.00  0.00    +0.004 A 
ATOM      6  C   UNL     1      -2.350  -0.456  -0.972  0.00  0.00    +0.011 A 
ATOM      7  C   UNL     1      -4.455  -1.501  -2.188  0.00  0.00    +0.136 C 
ATOM      8  C   UNL     1      -3.746  -2.555  -3.046  0.00  0.00    +0.122 C 
ATOM      9  C   UNL     1      -4.206  -2.251  -4.499  0.00  0.00    +0.109 C 
ATOM     10  C   UNL     1      -5.179  -1.061  -4.366  0.00  0.00    +0.096 C 
ATOM     11  N   UNL     1      -4.775  -0.385  -3.097  0.00  0.00    -0.293 NA
ATOM     12  C   UNL     1      -2.934  -1.804  -5.182  0.00  0.00    +0.227 C 
ATOM     13  O   UNL     1      -2.846  -1.455  -6.340  0.00  0.00    -0.275 OA
ATOM     14  N   UNL     1      -1.921  -1.852  -4.310  0.00  0.00    -0.241 N 
ATOM     15  C   UNL     1      -2.260  -2.273  -3.070  0.00  0.00    +0.228 C 
ATOM     16  O   UNL     1      -1.507  -2.403  -2.128  0.00  0.00    -0.275 OA
ATOM     17  C   UNL     1      -5.695  -2.059  -1.544  0.00  0.00    +0.243 C 
ATOM     18  O   UNL     1      -6.656  -2.533  -2.112  0.00  0.00    -0.273 OA
ATOM     19  N   UNL     1      -5.530  -1.931  -0.213  0.00  0.00    -0.283 N 
ATOM     20  H   UNL     1      -5.532   0.173  -2.733  0.00  0.00    +0.124 HD
ATOM     21  H   UNL     1      -6.186  -2.215   0.444  0.00  0.00    +0.155 HD
ENDROOT
BRANCH   1  23
ATOM     22  C   UNL     1      -0.594   2.014   0.325  0.00  0.00    +0.009 C 
ATOM     23  C   UNL     1      -0.439   0.491   0.342  0.00  0.00    +0.032 C 
ENDBRANCH   1  23
BRANCH  10  24
ATOM     24  C   UNL     1      -5.007  -0.099  -5.544  0.00  0.00    +0.129 C 
ATOM     25  C   UNL     1      -5.455  -0.788  -6.834  0.00  0.00    +0.039 C 
BRANCH  24  26
ATOM     26  O   UNL     1      -5.802   1.068  -5.326  0.00  0.00    -0.390 OA
ATOM     27  H   UNL     1      -5.742   1.723  -6.035  0.00  0.00    +0.210 HD
ENDBRANCH  24  26
ENDBRANCH  10  24
BRANCH  14  28
ATOM     28  C   UNL     1      -0.549  -1.484  -4.669  0.00  0.00    +0.121 C 
BRANCH  28  29
ATOM     29  C   UNL     1      -0.336   0.008  -4.409  0.00  0.00    +0.054 C 
BRANCH  29  30
ATOM     30  C   UNL     1       1.075   0.387  -4.779  0.00  0.00    -0.046 A 
ATOM     31  C   UNL     1       2.081   0.310  -3.833  0.00  0.00    +0.004 A 
ATOM     32  C   UNL     1       3.376   0.656  -4.172  0.00  0.00    +0.000 A 
ATOM     33  C   UNL     1       3.664   1.080  -5.456  0.00  0.00    +0.000 A 
ATOM     34  C   UNL     1       2.659   1.156  -6.401  0.00  0.00    +0.000 A 
ATOM     35  C   UNL     1       1.365   0.805  -6.064  0.00  0.00    +0.004 A 
ENDBRANCH  29  30
ENDBRANCH  28  29
ENDBRANCH  14  28
TORSDOF 6
