REMARK  Name = ZINC38766026
REMARK  14 active torsions:
REMARK  status: ('A' for Active; 'I' for Inactive)
REMARK    1  A    between atoms: C_1  and  C_2
REMARK    2  A    between atoms: C_2  and  C_3
REMARK    3  A    between atoms: C_3  and  O_4
REMARK    4  A    between atoms: O_4  and  C_5
REMARK    5  A    between atoms: C_5  and  C_7
REMARK    6  A    between atoms: C_10  and  O_13
REMARK    7  A    between atoms: O_13  and  C_14
REMARK    8  A    between atoms: C_15  and  C_37
REMARK    9  A    between atoms: C_18  and  C_20
REMARK   10  A    between atoms: C_23  and  O_27
REMARK   11  A    between atoms: C_25  and  O_26
REMARK   12  A    between atoms: O_27  and  C_28
REMARK   13  A    between atoms: C_28  and  C_29
REMARK   14  A    between atoms: C_32  and  C_35
REMARK                            x       y       z     vdW  Elec       q    Type
REMARK                         _______ _______ _______ _____ _____    ______ ____
ROOT
ATOM      1  C   UNL     1       2.296  -8.586  -3.634  0.00  0.00    +0.156 C 
ATOM      2  C   UNL     1       2.857  -7.878  -4.635  0.00  0.00    +0.098 C 
ATOM      3  N   UNL     1       3.335  -8.695  -5.582  0.00  0.00    -0.179 NA
ATOM      4  N   UNL     1       3.173  -9.897  -5.361  0.00  0.00    -0.294 N 
ATOM      5  C   UNL     1       2.483 -10.030  -4.066  0.00  0.00    +0.200 C 
ATOM      6  C   UNL     1       2.936  -6.374  -4.681  0.00  0.00    +0.071 C 
ATOM      7  H   UNL     1       3.454 -10.626  -5.936  0.00  0.00    +0.184 HD
ENDROOT
BRANCH   5   8
ATOM      8  C   UNL     1       1.150 -10.711  -4.242  0.00  0.00    +0.025 A 
ATOM      9  C   UNL     1       0.617 -10.868  -5.507  0.00  0.00    +0.013 A 
ATOM     10  C   UNL     1      -0.604 -11.492  -5.672  0.00  0.00    +0.046 A 
ATOM     11  C   UNL     1      -1.299 -11.963  -4.566  0.00  0.00    +0.124 A 
ATOM     12  C   UNL     1      -0.766 -11.806  -3.296  0.00  0.00    +0.091 A 
ATOM     13  C   UNL     1       0.462 -11.185  -3.134  0.00  0.00    +0.126 A 
BRANCH  13  14
ATOM     14  O   UNL     1       0.990 -11.035  -1.891  0.00  0.00    -0.506 OA
ATOM     15  H   UNL     1       0.734 -10.213  -1.452  0.00  0.00    +0.292 HD
ENDBRANCH  13  14
BRANCH  11  16
ATOM     16  O   UNL     1      -2.501 -12.576  -4.729  0.00  0.00    -0.487 OA
BRANCH  16  17
ATOM     17  C   UNL     1      -2.989 -12.703  -6.066  0.00  0.00    +0.264 C 
BRANCH  17  18
ATOM     18  C   UNL     1      -4.324 -13.403  -6.050  0.00  0.00    -0.010 A 
ATOM     19  C   UNL     1      -4.379 -14.782  -6.139  0.00  0.00    +0.007 A 
ATOM     20  C   UNL     1      -5.597 -15.429  -6.124  0.00  0.00    +0.008 A 
ATOM     21  C   UNL     1      -6.775 -14.689  -6.019  0.00  0.00    -0.026 A 
ATOM     22  C   UNL     1      -6.713 -13.298  -5.929  0.00  0.00    +0.008 A 
ATOM     23  C   UNL     1      -5.488 -12.664  -5.940  0.00  0.00    +0.007 A 
BRANCH  21  24
ATOM     24  C   UNL     1      -8.084 -15.376  -6.003  0.00  0.00    +0.000 C 
ATOM     25  C   UNL     1      -9.202 -14.670  -5.903  0.00  0.00    +0.009 C 
ENDBRANCH  21  24
ENDBRANCH  17  18
ENDBRANCH  16  17
ENDBRANCH  11  16
ENDBRANCH   5   8
BRANCH   1  26
ATOM     26  O   UNL     1       1.711  -8.121  -2.509  0.00  0.00    -0.456 OA
BRANCH  26  30
ATOM     27  C   UNL     1       3.570  -8.878   1.098  0.00  0.00    +0.059 A 
ATOM     28  C   UNL     1       2.316  -8.260   1.072  0.00  0.00    +0.018 A 
ATOM     29  C   UNL     1       1.700  -8.009  -0.133  0.00  0.00    +0.047 A 
ATOM     30  C   UNL     1       2.322  -8.370  -1.323  0.00  0.00    +0.128 A 
ATOM     31  C   UNL     1       3.569  -8.985  -1.301  0.00  0.00    +0.047 A 
ATOM     32  C   UNL     1       4.195  -9.234  -0.101  0.00  0.00    +0.018 A 
BRANCH  27  33
ATOM     33  C   UNL     1       4.234  -9.149   2.387  0.00  0.00    +0.339 C 
ATOM     34  O   UNL     1       5.326  -9.682   2.408  0.00  0.00    -0.245 OA
BRANCH  33  35
ATOM     35  O   UNL     1       3.630  -8.805   3.541  0.00  0.00    -0.461 OA
BRANCH  35  36
ATOM     36  C   UNL     1       4.330  -9.097   4.752  0.00  0.00    +0.232 C 
BRANCH  36  38
ATOM     37  C   UNL     1       4.245  -8.951   7.245  0.00  0.00    +0.007 C 
ATOM     38  C   UNL     1       3.494  -8.638   5.949  0.00  0.00    +0.038 C 
ENDBRANCH  36  38
ENDBRANCH  35  36
ENDBRANCH  33  35
ENDBRANCH  27  33
ENDBRANCH  26  30
ENDBRANCH   1  26
TORSDOF 12
