REMARK  Name = ZINC35245336
REMARK  13 active torsions:
REMARK  status: ('A' for Active; 'I' for Inactive)
REMARK    1  A    between atoms: C_1  and  C_2
REMARK    2  A    between atoms: C_3  and  C_29
REMARK    3  A    between atoms: C_4  and  C_11
REMARK    4  A    between atoms: N_9  and  C_10
REMARK    5  A    between atoms: C_14  and  N_17
REMARK    6  A    between atoms: C_18  and  C_20
REMARK    7  A    between atoms: C_20  and  O_21
REMARK    8  A    between atoms: O_21  and  C_22
REMARK    9  A    between atoms: C_22  and  C_23
REMARK   10  A    between atoms: C_29  and  O_31
REMARK   11  A    between atoms: O_31  and  C_32
REMARK   12  A    between atoms: C_32  and  C_33
REMARK   13  A    between atoms: C_32  and  C_34
REMARK                            x       y       z     vdW  Elec       q    Type
REMARK                         _______ _______ _______ _____ _____    ______ ____
ROOT
ATOM      1  C   UNL     1      -2.062  -2.396  -1.136  0.00  0.00    -0.022 A 
ATOM      2  C   UNL     1      -1.703  -2.179  -2.454  0.00  0.00    +0.007 A 
ATOM      3  C   UNL     1      -2.584  -2.488  -3.471  0.00  0.00    +0.023 A 
ATOM      4  C   UNL     1      -3.832  -3.019  -3.170  0.00  0.00    +0.033 A 
ATOM      5  C   UNL     1      -4.189  -3.236  -1.846  0.00  0.00    +0.023 A 
ATOM      6  C   UNL     1      -3.302  -2.929  -0.833  0.00  0.00    +0.007 A 
ENDROOT
BRANCH   1  10
ATOM      7  C   UNL     1      -0.077   1.643   0.329  0.00  0.00    +0.061 C 
ATOM      8  C   UNL     1      -0.043   0.155   0.092  0.00  0.00    +0.024 C 
ATOM      9  C   UNL     1      -1.178  -0.565   0.220  0.00  0.00    +0.078 C 
ATOM     10  C   UNL     1      -1.099  -2.057  -0.028  0.00  0.00    +0.143 C 
ATOM     11  N   UNL     1       0.219  -2.604  -0.391  0.00  0.00    -0.288 N 
ATOM     12  C   UNL     1       1.263  -1.756  -0.480  0.00  0.00    +0.307 C 
ATOM     13  O   UNL     1       2.356  -2.198  -0.779  0.00  0.00    -0.252 OA
ATOM     14  N   UNL     1       1.135  -0.443  -0.255  0.00  0.00    -0.262 N 
ATOM     15  C   UNL     1       2.327   0.400  -0.382  0.00  0.00    +0.139 C 
ATOM     16  H   UNL     1       0.334  -3.552  -0.561  0.00  0.00    +0.151 HD
BRANCH   9  17
ATOM     17  C   UNL     1      -2.400   0.054   0.574  0.00  0.00    +0.339 C 
ATOM     18  O   UNL     1      -2.440   1.254   0.769  0.00  0.00    -0.245 OA
BRANCH  17  19
ATOM     19  O   UNL     1      -3.521  -0.687   0.696  0.00  0.00    -0.459 OA
BRANCH  19  20
ATOM     20  C   UNL     1      -4.720   0.003   1.056  0.00  0.00    +0.171 C 
ATOM     21  C   UNL     1      -5.442   0.466  -0.211  0.00  0.00    +0.052 C 
ATOM     22  C   UNL     1      -5.631  -0.937   1.848  0.00  0.00    +0.052 C 
ENDBRANCH  19  20
ENDBRANCH  17  19
ENDBRANCH   9  17
ENDBRANCH   1  10
BRANCH   4  23
ATOM     23  N   UNL     1      -4.726  -3.333  -4.199  0.00  0.00    -0.284 N 
ATOM     24  C   UNL     1      -4.265  -3.819  -5.369  0.00  0.00    +0.243 C 
ATOM     25  O   UNL     1      -3.071  -3.925  -5.552  0.00  0.00    -0.273 OA
ATOM     26  H   UNL     1      -5.679  -3.201  -4.070  0.00  0.00    +0.155 HD
BRANCH  24  27
ATOM     27  C   UNL     1      -5.233  -4.230  -6.448  0.00  0.00    +0.256 C 
BRANCH  27  28
ATOM     28  O   UNL     1      -4.507  -4.709  -7.582  0.00  0.00    -0.366 OA
BRANCH  28  29
ATOM     29  C   UNL     1      -5.336  -5.127  -8.668  0.00  0.00    +0.195 C 
BRANCH  29  30
ATOM     30  C   UNL     1      -4.470  -5.609  -9.803  0.00  0.00    -0.022 A 
ATOM     31  C   UNL     1      -4.039  -4.720 -10.770  0.00  0.00    +0.006 A 
ATOM     32  C   UNL     1      -3.245  -5.162 -11.812  0.00  0.00    +0.000 A 
ATOM     33  C   UNL     1      -2.881  -6.494 -11.886  0.00  0.00    +0.000 A 
ATOM     34  C   UNL     1      -3.311  -7.383 -10.919  0.00  0.00    +0.000 A 
ATOM     35  C   UNL     1      -4.102  -6.940  -9.875  0.00  0.00    +0.006 A 
ENDBRANCH  29  30
ENDBRANCH  28  29
ENDBRANCH  27  28
ENDBRANCH  24  27
ENDBRANCH   4  23
TORSDOF 9
