REMARK  Name = ZINC27537115
REMARK  12 active torsions:
REMARK  status: ('A' for Active; 'I' for Inactive)
REMARK    1  A    between atoms: C_1  and  C_2
REMARK    2  A    between atoms: C_4  and  C_32
REMARK    3  A    between atoms: C_5  and  N_9
REMARK    4  A    between atoms: C_6  and  C_8
REMARK    5  A    between atoms: C_10  and  C_12
REMARK    6  A    between atoms: C_12  and  N_13
REMARK    7  A    between atoms: N_13  and  C_14
REMARK    8  A    between atoms: N_13  and  C_15
REMARK    9  A    between atoms: C_15  and  C_17
REMARK   10  A    between atoms: C_15  and  C_18
REMARK   11  A    between atoms: N_20  and  C_21
REMARK   12  A    between atoms: C_26  and  C_27
REMARK                            x       y       z     vdW  Elec       q    Type
REMARK                         _______ _______ _______ _____ _____    ______ ____
ROOT
ATOM      1  N   UNL     1       3.630   7.509   0.667  0.00  0.00    +0.391 N 
ATOM      2  C   UNL     1       2.821   7.968   1.803  0.00  0.00    -0.094 C 
ATOM      3  H   UNL     1       3.178   7.908  -0.253  0.00  0.00    -0.080 HD
ENDROOT
BRANCH   1   4
ATOM      4  C   UNL     1       5.003   8.026   0.755  0.00  0.00    +0.017 C 
ATOM      5  C   UNL     1       5.766   7.263   1.839  0.00  0.00    -0.004 C 
BRANCH   4   6
ATOM      6  C   UNL     1       5.695   7.842  -0.571  0.00  0.00    +0.203 C 
ATOM      7  O   UNL     1       5.112   7.308  -1.490  0.00  0.00    -0.277 OA
ATOM      8  N   UNL     1       6.962   8.271  -0.735  0.00  0.00    -0.286 N 
ATOM      9  H   UNL     1       7.520   8.679   0.121  0.00  0.00    +0.155 HD
BRANCH   8  10
ATOM     10  C   UNL     1       7.569   8.198  -1.994  0.00  0.00    +0.045 A 
ATOM     11  C   UNL     1       7.165   7.231  -2.905  0.00  0.00    +0.025 A 
ATOM     12  C   UNL     1       7.765   7.161  -4.147  0.00  0.00    +0.022 A 
ATOM     13  C   UNL     1       8.767   8.054  -4.484  0.00  0.00    +0.042 A 
ATOM     14  C   UNL     1       9.171   9.019  -3.578  0.00  0.00    +0.034 A 
ATOM     15  C   UNL     1       8.570   9.096  -2.337  0.00  0.00    +0.077 A 
ATOM     16 CL   UNL     1       9.518   7.964  -6.046  0.00  0.00    -0.084 Cl
BRANCH  15  17
ATOM     17  C   UNL     1       9.007  10.151  -1.353  0.00  0.00    +0.419 C 
ATOM     18  F   UNL     1      10.020  10.929  -1.922  0.00  0.00    -0.166 F 
ATOM     19  F   UNL     1       7.917  10.967  -1.030  0.00  0.00    -0.166 F 
ATOM     20  F   UNL     1       9.488   9.535  -0.192  0.00  0.00    -0.166 F 
ENDBRANCH  15  17
ENDBRANCH   8  10
ENDBRANCH   4   6
ENDBRANCH   1   4
BRANCH   1  21
ATOM     21  C   UNL     1       3.625   6.043   0.574  0.00  0.00    +0.020 C 
BRANCH  21  23
ATOM     22  N   UNL     1       1.989   4.248   0.104  0.00  0.00    -0.287 N 
ATOM     23  C   UNL     1       2.235   5.566   0.240  0.00  0.00    +0.201 C 
ATOM     24  O   UNL     1       1.337   6.369   0.093  0.00  0.00    -0.278 OA
ATOM     25  H   UNL     1       2.819   3.527   0.146  0.00  0.00    +0.155 HD
BRANCH  22  30
ATOM     26  C   UNL     1      -3.326   2.427  -0.679  0.00  0.00    +0.044 C 
ATOM     27  C   UNL     1      -1.913   2.909  -0.473  0.00  0.00    -0.050 A 
ATOM     28  C   UNL     1      -1.362   3.825  -1.349  0.00  0.00    +0.008 A 
ATOM     29  C   UNL     1      -0.069   4.272  -1.160  0.00  0.00    -0.029 A 
ATOM     30  C   UNL     1       0.679   3.797  -0.091  0.00  0.00    +0.039 A 
ATOM     31  C   UNL     1       0.124   2.873   0.785  0.00  0.00    -0.029 A 
ATOM     32  C   UNL     1      -1.169   2.429   0.590  0.00  0.00    +0.008 A 
ATOM     33  C   UNL     1       0.932   2.355   1.947  0.00  0.00    +0.045 C 
ATOM     34  C   UNL     1       0.529   5.276  -2.112  0.00  0.00    +0.045 C 
ENDBRANCH  22  30
ENDBRANCH  21  23
ENDBRANCH   1  21
TORSDOF 7
