REMARK  Name = ZINC20233105
REMARK  11 active torsions:
REMARK  status: ('A' for Active; 'I' for Inactive)
REMARK    1  A    between atoms: C_1  and  C_2
REMARK    2  A    between atoms: C_3  and  C_35
REMARK    3  A    between atoms: C_4  and  C_28
REMARK    4  A    between atoms: C_10  and  C_20
REMARK    5  A    between atoms: C_12  and  C_16
REMARK    6  A    between atoms: C_16  and  O_18
REMARK    7  A    between atoms: O_18  and  C_19
REMARK    8  A    between atoms: C_23  and  O_26
REMARK    9  A    between atoms: O_26  and  C_27
REMARK   10  A    between atoms: C_35  and  O_37
REMARK   11  A    between atoms: O_37  and  C_38
REMARK                            x       y       z     vdW  Elec       q    Type
REMARK                         _______ _______ _______ _____ _____    ______ ____
ROOT
ATOM      1  C   UNL     1      -4.110   1.857   4.040  0.00  0.00    +0.061 C 
ATOM      2  C   UNL     1      -3.668   1.497   2.645  0.00  0.00    +0.016 C 
ATOM      3  C   UNL     1      -4.577   1.409   1.658  0.00  0.00    +0.065 C 
ATOM      4  C   UNL     1      -4.175   1.045   0.259  0.00  0.00    +0.094 C 
ATOM      5  C   UNL     1      -2.692   1.232   0.056  0.00  0.00    +0.025 C 
ATOM      6  C   UNL     1      -1.859   1.330   1.113  0.00  0.00    +0.016 C 
ATOM      7  N   UNL     1      -2.346   1.261   2.391  0.00  0.00    -0.321 N 
ATOM      8  C   UNL     1      -0.370   1.520   0.920  0.00  0.00    +0.060 C 
ATOM      9  C   UNL     1       0.063   0.853  -0.388  0.00  0.00    +0.046 C 
ATOM     10  C   UNL     1      -0.737   1.468  -1.541  0.00  0.00    +0.176 C 
ATOM     11  C   UNL     1      -2.206   1.301  -1.261  0.00  0.00    +0.176 C 
ATOM     12  O   UNL     1      -2.985   1.224  -2.190  0.00  0.00    -0.291 OA
ATOM     13  H   UNL     1      -1.663   1.014   3.217  0.00  0.00    +0.152 HD
ENDROOT
BRANCH   4  14
ATOM     14  C   UNL     1      -4.531  -0.397   0.002  0.00  0.00    -0.017 A 
ATOM     15  C   UNL     1      -3.956  -1.397   0.762  0.00  0.00    +0.006 A 
ATOM     16  C   UNL     1      -4.282  -2.720   0.526  0.00  0.00    +0.000 A 
ATOM     17  C   UNL     1      -5.185  -3.042  -0.471  0.00  0.00    +0.001 A 
ATOM     18  C   UNL     1      -5.761  -2.042  -1.232  0.00  0.00    +0.020 A 
ATOM     19  C   UNL     1      -5.438  -0.718  -0.992  0.00  0.00    +0.045 A 
ATOM     20 CL   UNL     1      -6.167   0.539  -1.943  0.00  0.00    -0.083 Cl
ENDBRANCH   4  14
BRANCH   9  21
ATOM     21  C   UNL     1       1.535   1.085  -0.611  0.00  0.00    -0.042 A 
ATOM     22  C   UNL     1       2.176   0.473  -1.673  0.00  0.00    +0.007 A 
ATOM     23  C   UNL     1       3.524   0.689  -1.883  0.00  0.00    +0.046 A 
ATOM     24  C   UNL     1       4.237   1.511  -1.022  0.00  0.00    +0.120 A 
ATOM     25  C   UNL     1       3.592   2.118   0.045  0.00  0.00    +0.046 A 
ATOM     26  C   UNL     1       2.243   1.904   0.248  0.00  0.00    +0.007 A 
BRANCH  24  27
ATOM     27  O   UNL     1       5.564   1.720  -1.225  0.00  0.00    -0.495 OA
ATOM     28  C   UNL     1       6.162   1.062  -2.344  0.00  0.00    +0.277 C 
ENDBRANCH  24  27
ENDBRANCH   9  21
BRANCH  10  29
ATOM     29  C   UNL     1      -0.409   2.935  -1.655  0.00  0.00    +0.318 C 
ATOM     30  O   UNL     1       0.431   3.424  -0.938  0.00  0.00    -0.250 OA
BRANCH  29  31
ATOM     31  O   UNL     1      -1.050   3.698  -2.555  0.00  0.00    -0.467 OA
ATOM     32  C   UNL     1      -0.683   5.101  -2.609  0.00  0.00    +0.280 C 
ENDBRANCH  29  31
ENDBRANCH  10  29
BRANCH   3  33
ATOM     33  C   UNL     1      -5.939   1.666   1.944  0.00  0.00    +0.337 C 
ATOM     34  O   UNL     1      -6.263   2.074   3.044  0.00  0.00    -0.245 OA
BRANCH  33  35
ATOM     35  O   UNL     1      -6.878   1.458   0.997  0.00  0.00    -0.465 OA
ATOM     36  C   UNL     1      -8.232   1.739   1.355  0.00  0.00    +0.280 C 
ENDBRANCH  33  35
ENDBRANCH   3  33
TORSDOF 7
