REMARK  Name = ZINC09265103
REMARK  7 active torsions:
REMARK  status: ('A' for Active; 'I' for Inactive)
REMARK    1  A    between atoms: C_1  and  C_2
REMARK    2  A    between atoms: C_2  and  C_4
REMARK    3  A    between atoms: C_2  and  O_29
REMARK    4  A    between atoms: N_6  and  C_7
REMARK    5  A    between atoms: C_15  and  C_16
REMARK    6  A    between atoms: N_21  and  C_24
REMARK    7  A    between atoms: O_29  and  C_30
REMARK                            x       y       z     vdW  Elec       q    Type
REMARK                         _______ _______ _______ _____ _____    ______ ____
ROOT
ATOM      1  C   UNL     1       0.007   1.383   0.109  0.00  0.00    +0.092 A 
ATOM      2  C   UNL     1       1.137   2.288  -0.131  0.00  0.00    +0.042 A 
ATOM      3  C   UNL     1       2.472   2.101  -0.490  0.00  0.00    +0.013 A 
ATOM      4  C   UNL     1       3.293   3.183  -0.639  0.00  0.00    +0.001 A 
ATOM      5  C   UNL     1       2.806   4.467  -0.434  0.00  0.00    +0.004 A 
ATOM      6  C   UNL     1       1.491   4.673  -0.078  0.00  0.00    +0.047 A 
ATOM      7  C   UNL     1       0.638   3.586   0.079  0.00  0.00    +0.138 A 
ATOM      8  O   UNL     1      -0.663   3.478   0.412  0.00  0.00    -0.448 OA
ATOM      9  C   UNL     1      -1.054   2.184   0.429  0.00  0.00    +0.212 A 
ENDROOT
BRANCH   9  10
ATOM     10  C   UNL     1      -2.402   1.714   0.743  0.00  0.00    +0.284 C 
ATOM     11  O   UNL     1      -3.195   1.495  -0.155  0.00  0.00    -0.267 OA
ATOM     12  N   UNL     1      -2.767   1.523   2.026  0.00  0.00    -0.292 N 
ATOM     13  C   UNL     1      -1.862   1.880   3.130  0.00  0.00    +0.127 C 
ATOM     14  C   UNL     1      -2.638   2.759   4.123  0.00  0.00    +0.125 C 
ATOM     15  N   UNL     1      -3.866   2.064   4.529  0.00  0.00    -0.314 N 
ATOM     16  C   UNL     1      -4.764   1.856   3.384  0.00  0.00    +0.125 C 
ATOM     17  C   UNL     1      -4.078   0.946   2.360  0.00  0.00    +0.127 C 
BRANCH  15  18
ATOM     18  C   UNL     1      -4.513   2.749   5.551  0.00  0.00    +0.099 A 
ATOM     19  C   UNL     1      -3.827   3.044   6.725  0.00  0.00    +0.042 A 
ATOM     20  C   UNL     1      -4.482   3.726   7.734  0.00  0.00    +0.005 A 
ATOM     21  C   UNL     1      -5.806   4.094   7.533  0.00  0.00    +0.018 A 
ATOM     22  C   UNL     1      -6.426   3.770   6.343  0.00  0.00    +0.084 A 
ATOM     23  N   UNL     1      -5.811   3.105   5.328  0.00  0.00    -0.350 N 
ATOM     24  H   UNL     1      -6.294   2.885   4.449  0.00  0.00    +0.166 HD
ENDBRANCH  15  18
ENDBRANCH   9  10
BRANCH   1  27
ATOM     25  C   UNL     1       1.159  -0.687   0.216  0.00  0.00    +0.258 C 
ATOM     26  O   UNL     1       2.171  -0.097   0.530  0.00  0.00    -0.271 OA
ATOM     27  N   UNL     1       0.013  -0.005   0.023  0.00  0.00    -0.279 N 
ATOM     28  H   UNL     1      -0.808  -0.482  -0.175  0.00  0.00    +0.155 HD
BRANCH  25  30
ATOM     29  C   UNL     1       0.201  -2.828   1.021  0.00  0.00    +0.062 C 
ATOM     30  C   UNL     1       1.183  -2.184   0.041  0.00  0.00    +0.256 C 
BRANCH  30  31
ATOM     31  O   UNL     1       2.502  -2.672   0.298  0.00  0.00    -0.480 OA
BRANCH  31  32
ATOM     32  C   UNL     1       2.910  -3.751  -0.419  0.00  0.00    +0.122 A 
ATOM     33  C   UNL     1       4.221  -4.195  -0.321  0.00  0.00    +0.045 A 
ATOM     34  C   UNL     1       4.633  -5.296  -1.047  0.00  0.00    +0.004 A 
ATOM     35  C   UNL     1       3.743  -5.949  -1.879  0.00  0.00    +0.000 A 
ATOM     36  C   UNL     1       2.437  -5.505  -1.984  0.00  0.00    +0.004 A 
ATOM     37  C   UNL     1       2.019  -4.408  -1.256  0.00  0.00    +0.045 A 
ENDBRANCH  31  32
ENDBRANCH  30  31
ENDBRANCH  25  30
ENDBRANCH   1  27
TORSDOF 6
