REMARK  Name = ZINC19445849
REMARK  8 active torsions:
REMARK  status: ('A' for Active; 'I' for Inactive)
REMARK    1  A    between atoms: C_1  and  C_2
REMARK    2  A    between atoms: C_2  and  C_3
REMARK    3  A    between atoms: C_2  and  C_4
REMARK    4  A    between atoms: C_4  and  C_6
REMARK    5  A    between atoms: C_4  and  N_17
REMARK    6  A    between atoms: C_18  and  C_20
REMARK    7  A    between atoms: C_24  and  C_25
REMARK    8  A    between atoms: C_25  and  N_26
REMARK                            x       y       z     vdW  Elec       q    Type
REMARK                         _______ _______ _______ _____ _____    ______ ____
ROOT
ATOM      1  N   UNL     1      -1.191   1.870   0.018  0.00  0.00    -0.304 N 
ATOM      2  C   UNL     1      -0.014   1.212   0.009  0.00  0.00    +0.248 C 
ATOM      3  O   UNL     1       0.002  -0.004   0.002  0.00  0.00    -0.270 OA
ATOM      4  H   UNL     1      -1.206   2.970   0.024  0.00  0.00    +0.150 HD
ENDROOT
BRANCH   2   5
ATOM      5  C   UNL     1       1.252   1.966   0.001  0.00  0.00    +0.076 A 
ATOM      6  C   UNL     1       1.416   3.427   0.001  0.00  0.00    +0.054 A 
ATOM      7  C   UNL     1       2.739   3.650  -0.005  0.00  0.00    +0.196 A 
ATOM      8  O   UNL     1       3.383   2.472  -0.017  0.00  0.00    -0.469 OA
ATOM      9  C   UNL     1       2.516   1.454  -0.014  0.00  0.00    +0.101 A 
BRANCH   9  10
ATOM     10  C   UNL     1       2.875  -0.009  -0.025  0.00  0.00    -0.002 C 
BRANCH  10  11
ATOM     11  N   UNL     1       2.978  -0.477  -1.414  0.00  0.00    +0.384 N 
ATOM     12  C   UNL     1       1.673  -0.427  -2.085  0.00  0.00    -0.078 C 
ATOM     13  C   UNL     1       1.844  -0.781  -3.564  0.00  0.00    -0.019 C 
ATOM     14  C   UNL     1       2.446  -2.184  -3.681  0.00  0.00    -0.004 C 
ATOM     15  C   UNL     1       3.781  -2.223  -2.934  0.00  0.00    -0.019 C 
ATOM     16  C   UNL     1       3.554  -1.827  -1.473  0.00  0.00    -0.078 C 
ATOM     17  H   UNL     1       3.658   0.201  -1.951  0.00  0.00    -0.081 HD
ENDBRANCH  10  11
ENDBRANCH   9  10
ENDBRANCH   2   5
BRANCH   1  18
ATOM     18  C   UNL     1      -2.449   1.120   0.020  0.00  0.00    +0.106 C 
BRANCH  18  19
ATOM     19  C   UNL     1      -3.543   1.973  -0.571  0.00  0.00    -0.023 A 
ATOM     20  C   UNL     1      -3.608   3.319  -0.264  0.00  0.00    +0.009 A 
ATOM     21  C   UNL     1      -4.605   4.109  -0.808  0.00  0.00    +0.050 A 
ATOM     22  C   UNL     1      -5.546   3.543  -1.651  0.00  0.00    +0.162 A 
ATOM     23  C   UNL     1      -5.484   2.191  -1.955  0.00  0.00    +0.162 A 
ATOM     24  C   UNL     1      -4.481   1.404  -1.414  0.00  0.00    +0.055 A 
ATOM     25  O   UNL     1      -6.415   1.643  -2.788  0.00  0.00    -0.488 OA
ATOM     26  C   UNL     1      -7.748   1.574  -2.276  0.00  0.00    +0.232 C 
ATOM     27  C   UNL     1      -8.481   2.887  -2.502  0.00  0.00    +0.082 C 
ATOM     28  C   UNL     1      -7.861   4.037  -1.724  0.00  0.00    +0.232 C 
ATOM     29  O   UNL     1      -6.538   4.310  -2.189  0.00  0.00    -0.488 OA
ENDBRANCH  18  19
BRANCH  18  31
ATOM     30  C   UNL     1      -4.131  -0.040   1.458  0.00  0.00    +0.009 C 
ATOM     31  C   UNL     1      -2.816   0.743   1.456  0.00  0.00    +0.008 C 
ATOM     32  C   UNL     1      -1.706  -0.122   2.056  0.00  0.00    +0.009 C 
ENDBRANCH  18  31
ENDBRANCH   1  18
TORSDOF 6
