REMARK  Name = ZINC35095770
REMARK  12 active torsions:
REMARK  status: ('A' for Active; 'I' for Inactive)
REMARK    1  A    between atoms: C_1  and  C_2
REMARK    2  A    between atoms: C_2  and  C_39
REMARK    3  A    between atoms: C_7  and  C_11
REMARK    4  A    between atoms: C_11  and  N_12
REMARK    5  A    between atoms: N_12  and  C_13
REMARK    6  A    between atoms: N_12  and  C_22
REMARK    7  A    between atoms: C_13  and  C_14
REMARK    8  A    between atoms: C_14  and  C_15
REMARK    9  A    between atoms: C_15  and  C_16
REMARK   10  A    between atoms: C_22  and  C_23
REMARK   11  A    between atoms: C_23  and  N_24
REMARK   12  A    between atoms: C_30  and  C_32
REMARK                            x       y       z     vdW  Elec       q    Type
REMARK                         _______ _______ _______ _____ _____    ______ ____
ROOT
ATOM      1  N   UNL     1       1.885  -2.249   1.389  0.00  0.00    +0.383 N 
ATOM      2  H   UNL     1       1.333  -2.708   0.680  0.00  0.00    -0.081 HD
ENDROOT
BRANCH   1   3
ATOM      3  C   UNL     1       1.391  -2.630   2.719  0.00  0.00    -0.047 C 
BRANCH   3   9
ATOM      4  C   UNL     1       5.947  -1.698   4.677  0.00  0.00    +0.012 C 
ATOM      5  C   UNL     1       4.513  -1.239   4.410  0.00  0.00    -0.025 C 
ATOM      6  C   UNL     1       3.743  -0.825   5.681  0.00  0.00    -0.000 C 
ATOM      7  C   UNL     1       2.492  -0.012   5.321  0.00  0.00    +0.031 C 
ATOM      8  C   UNL     1       1.693  -0.745   4.271  0.00  0.00    -0.029 C 
ATOM      9  C   UNL     1       2.153  -1.871   3.774  0.00  0.00    -0.086 C 
ATOM     10  C   UNL     1       3.496  -2.392   4.318  0.00  0.00    +0.019 C 
ATOM     11  C   UNL     1       3.469  -2.328   5.865  0.00  0.00    +0.012 C 
ATOM     12  C   UNL     1       4.410  -0.230   3.264  0.00  0.00    +0.012 C 
ENDBRANCH   3   9
ENDBRANCH   1   3
BRANCH   1  13
ATOM     13  C   UNL     1       1.780  -0.793   1.225  0.00  0.00    -0.078 C 
BRANCH  13  14
ATOM     14  C   UNL     1       0.304  -0.387   1.210  0.00  0.00    -0.014 C 
BRANCH  14  15
ATOM     15  C   UNL     1       0.190   1.109   0.911  0.00  0.00    +0.033 C 
BRANCH  15  16
ATOM     16  C   UNL     1      -1.252   1.533   1.015  0.00  0.00    -0.047 A 
ATOM     17  C   UNL     1      -2.096   1.384  -0.069  0.00  0.00    +0.003 A 
ATOM     18  C   UNL     1      -3.419   1.773   0.027  0.00  0.00    +0.000 A 
ATOM     19  C   UNL     1      -3.898   2.311   1.207  0.00  0.00    +0.000 A 
ATOM     20  C   UNL     1      -3.054   2.459   2.291  0.00  0.00    +0.000 A 
ATOM     21  C   UNL     1      -1.732   2.066   2.197  0.00  0.00    +0.003 A 
ENDBRANCH  15  16
ENDBRANCH  14  15
ENDBRANCH  13  14
ENDBRANCH   1  13
BRANCH   1  22
ATOM     22  C   UNL     1       3.290  -2.656   1.254  0.00  0.00    -0.063 C 
BRANCH  22  23
ATOM     23  C   UNL     1       3.383  -4.184   1.271  0.00  0.00    +0.066 C 
BRANCH  23  24
ATOM     24  N   UNL     1       4.788  -4.591   1.137  0.00  0.00    -0.301 NA
ATOM     25  C   UNL     1       5.321  -4.216  -0.180  0.00  0.00    +0.103 C 
ATOM     26  C   UNL     1       6.827  -4.492  -0.214  0.00  0.00    +0.123 C 
ATOM     27  N   UNL     1       7.055  -5.892   0.173  0.00  0.00    -0.295 N 
ATOM     28  C   UNL     1       6.436  -6.380   1.415  0.00  0.00    +0.123 C 
ATOM     29  C   UNL     1       4.945  -6.030   1.385  0.00  0.00    +0.103 C 
ATOM     30  C   UNL     1       7.811  -6.707  -0.589  0.00  0.00    +0.247 C 
ATOM     31  O   UNL     1       7.906  -7.886  -0.310  0.00  0.00    -0.270 OA
BRANCH  30  32
ATOM     32  C   UNL     1       8.525  -6.167  -1.764  0.00  0.00    +0.037 A 
ATOM     33  C   UNL     1       9.122  -4.906  -1.702  0.00  0.00    +0.016 A 
ATOM     34  C   UNL     1       9.787  -4.406  -2.802  0.00  0.00    +0.039 A 
ATOM     35  C   UNL     1       9.864  -5.153  -3.967  0.00  0.00    +0.123 A 
ATOM     36  C   UNL     1       9.273  -6.406  -4.034  0.00  0.00    +0.039 A 
ATOM     37  C   UNL     1       8.611  -6.917  -2.938  0.00  0.00    +0.016 A 
ATOM     38  F   UNL     1      10.516  -4.659  -5.042  0.00  0.00    -0.205 F 
ENDBRANCH  30  32
ENDBRANCH  23  24
ENDBRANCH  22  23
ENDBRANCH   1  22
TORSDOF 10
