REMARK  Name = ZINC64057960
REMARK  11 active torsions:
REMARK  status: ('A' for Active; 'I' for Inactive)
REMARK    1  A    between atoms: C_1  and  C_2
REMARK    2  A    between atoms: C_4  and  C_13
REMARK    3  A    between atoms: C_13  and  C_14
REMARK    4  A    between atoms: C_14  and  N_15
REMARK    5  A    between atoms: C_16  and  C_18
REMARK    6  A    between atoms: C_18  and  C_19
REMARK    7  A    between atoms: C_19  and  C_20
REMARK    8  A    between atoms: C_20  and  C_26
REMARK    9  A    between atoms: C_26  and  C_27
REMARK   10  A    between atoms: C_29  and  O_34
REMARK   11  A    between atoms: O_34  and  C_35
REMARK                            x       y       z     vdW  Elec       q    Type
REMARK                         _______ _______ _______ _____ _____    ______ ____
ROOT
ATOM      1  C   UNL     1       1.404  -1.026  -7.382  0.00  0.00    +0.098 C 
ENDROOT
BRANCH   1   3
ATOM      2  N   UNL     1       1.055  -0.714  -4.954  0.00  0.00    -0.315 N 
ATOM      3  C   UNL     1       1.694  -1.368  -5.944  0.00  0.00    +0.213 C 
ATOM      4  O   UNL     1       2.503  -2.231  -5.677  0.00  0.00    -0.276 OA
ATOM      5  H   UNL     1       0.407  -0.024  -5.167  0.00  0.00    +0.149 HD
BRANCH   2   6
ATOM      6  C   UNL     1       1.337  -1.047  -3.555  0.00  0.00    +0.108 C 
BRANCH   6   7
ATOM      7  C   UNL     1       0.484  -0.166  -2.639  0.00  0.00    +0.052 C 
BRANCH   7  10
ATOM      8  C   UNL     1       0.465   1.619   0.067  0.00  0.00    +0.035 C 
ATOM      9  C   UNL     1       0.154   0.121   0.027  0.00  0.00    +0.103 C 
ATOM     10  C   UNL     1       0.775  -0.507  -1.201  0.00  0.00    -0.037 C 
ATOM     11  C   UNL     1       1.643  -1.439  -0.746  0.00  0.00    +0.001 A 
ATOM     12  C   UNL     1       2.544  -2.376  -1.428  0.00  0.00    +0.030 A 
ATOM     13  C   UNL     1       3.311  -3.207  -0.685  0.00  0.00    +0.042 A 
ATOM     14  C   UNL     1       3.268  -3.195   0.717  0.00  0.00    +0.022 A 
ATOM     15  C   UNL     1       2.466  -2.362   1.414  0.00  0.00    +0.027 A 
ATOM     16  C   UNL     1       1.617  -1.446   0.735  0.00  0.00    +0.043 A 
ATOM     17  N   UNL     1       0.763  -0.553   1.178  0.00  0.00    -0.378 N 
ATOM     18 CL   UNL     1       4.377  -4.318  -1.488  0.00  0.00    -0.084 Cl
ATOM     19  H   UNL     1       0.567  -0.370   2.110  0.00  0.00    +0.160 HD
ENDBRANCH   7  10
ENDBRANCH   6   7
ENDBRANCH   2   6
ENDBRANCH   1   3
BRANCH   1  20
ATOM     20  C   UNL     1       2.256  -1.907  -8.298  0.00  0.00    +0.035 C 
BRANCH  20  21
ATOM     21  C   UNL     1       1.938  -1.583  -9.759  0.00  0.00    +0.039 C 
ATOM     22  C   UNL     1       0.451  -1.876 -10.060  0.00  0.00    +0.035 C 
ATOM     23  C   UNL     1       0.103  -0.746 -11.057  0.00  0.00    +0.098 C 
ATOM     24  C   UNL     1       1.099   0.347 -10.742  0.00  0.00    +0.214 C 
ATOM     25  O   UNL     1       0.998   1.503 -11.097  0.00  0.00    -0.276 OA
ATOM     26  N   UNL     1       2.113  -0.147 -10.010  0.00  0.00    -0.309 N 
ATOM     27  H   UNL     1       2.863   0.377  -9.689  0.00  0.00    +0.149 HD
BRANCH  21  28
ATOM     28  C   UNL     1       2.838  -2.397 -10.690  0.00  0.00    +0.064 C 
BRANCH  28  29
ATOM     29  C   UNL     1       4.277  -2.009 -10.462  0.00  0.00    -0.007 A 
ATOM     30  C   UNL     1       5.058  -2.738  -9.586  0.00  0.00    +0.052 A 
ATOM     31  C   UNL     1       6.382  -2.381  -9.378  0.00  0.00    +0.121 A 
ATOM     32  C   UNL     1       6.920  -1.293 -10.049  0.00  0.00    +0.048 A 
ATOM     33  C   UNL     1       6.137  -0.566 -10.924  0.00  0.00    +0.042 A 
ATOM     34  C   UNL     1       4.816  -0.927 -11.136  0.00  0.00    +0.127 A 
ATOM     35  F   UNL     1       4.053  -0.218 -11.996  0.00  0.00    -0.205 F 
BRANCH  31  36
ATOM     36  O   UNL     1       7.152  -3.097  -8.515  0.00  0.00    -0.495 OA
ATOM     37  C   UNL     1       8.506  -2.672  -8.350  0.00  0.00    +0.277 C 
ENDBRANCH  31  36
ENDBRANCH  28  29
ENDBRANCH  21  28
ENDBRANCH  20  21
ENDBRANCH   1  20
TORSDOF 9
