REMARK  Name = ZINC49574114
REMARK  7 active torsions:
REMARK  status: ('A' for Active; 'I' for Inactive)
REMARK    1  A    between atoms: C_1  and  O_2
REMARK    2  A    between atoms: O_2  and  C_3
REMARK    3  A    between atoms: C_11  and  C_12
REMARK    4  A    between atoms: C_12  and  C_13
REMARK    5  A    between atoms: C_13  and  N_15
REMARK    6  A    between atoms: N_22  and  C_25
REMARK    7  A    between atoms: C_25  and  C_26
REMARK                            x       y       z     vdW  Elec       q    Type
REMARK                         _______ _______ _______ _____ _____    ______ ____
ROOT
ATOM      1  N   UNL     1      -7.984  -2.078  -1.598  0.00  0.00    -0.156 NA
ATOM      2  C   UNL     1      -8.408  -1.880  -2.848  0.00  0.00    +0.163 A 
ATOM      3  N   UNL     1      -7.689  -1.929  -4.001  0.00  0.00    -0.339 N 
ATOM      4  C   UNL     1      -8.312  -1.695  -5.195  0.00  0.00    +0.024 A 
ATOM      5  C   UNL     1      -9.626  -1.427  -5.114  0.00  0.00    -0.004 A 
ATOM      6  S   UNL     1      -9.963  -1.517  -3.380  0.00  0.00    -0.059 S 
ATOM      7  C   UNL     1     -10.550  -1.130  -6.249  0.00  0.00    -0.033 C 
ATOM      8  N   UNL     1      -9.738  -0.807  -7.437  0.00  0.00    +0.386 N 
ATOM      9  C   UNL     1      -8.717  -1.846  -7.629  0.00  0.00    -0.072 C 
ATOM     10  C   UNL     1      -7.629  -1.724  -6.557  0.00  0.00    +0.035 C 
ATOM     11  H   UNL     1      -6.740  -2.129  -3.976  0.00  0.00    +0.167 HD
ATOM     12  H   UNL     1      -9.288   0.086  -7.305  0.00  0.00    -0.081 HD
ENDROOT
BRANCH   1  13
ATOM     13  C   UNL     1      -6.708  -2.358  -1.366  0.00  0.00    +0.243 C 
ATOM     14  O   UNL     1      -5.924  -2.435  -2.294  0.00  0.00    -0.273 OA
BRANCH  13  15
ATOM     15  C   UNL     1      -6.230  -2.582   0.045  0.00  0.00    +0.136 C 
BRANCH  15  24
ATOM     16  C   UNL     1      -1.200  -0.638   0.010  0.00  0.00    +0.124 A 
ATOM     17  C   UNL     1      -2.374   0.110   0.020  0.00  0.00    +0.046 A 
ATOM     18  C   UNL     1      -3.591  -0.513   0.028  0.00  0.00    +0.015 A 
ATOM     19  C   UNL     1      -3.655  -1.906   0.027  0.00  0.00    +0.024 A 
ATOM     20  C   UNL     1      -2.475  -2.668   0.017  0.00  0.00    +0.139 A 
ATOM     21  C   UNL     1      -1.247  -2.020   0.003  0.00  0.00    +0.092 A 
ATOM     22  O   UNL     1      -2.838  -3.967   0.018  0.00  0.00    -0.463 OA
ATOM     23  C   UNL     1      -4.177  -4.091   0.028  0.00  0.00    +0.200 A 
ATOM     24  C   UNL     1      -4.753  -2.881   0.034  0.00  0.00    +0.007 A 
BRANCH  16  26
ATOM     25  C   UNL     1      -0.017   1.425   0.010  0.00  0.00    +0.277 C 
ATOM     26  O   UNL     1       0.002  -0.004   0.002  0.00  0.00    -0.495 OA
ENDBRANCH  16  26
ENDBRANCH  15  24
ENDBRANCH  13  15
ENDBRANCH   1  13
BRANCH   8  27
ATOM     27  C   UNL     1     -10.605  -0.748  -8.621  0.00  0.00    -0.043 C 
BRANCH  27  28
ATOM     28  C   UNL     1     -11.574   0.397  -8.478  0.00  0.00    -0.064 A 
ATOM     29  C   UNL     1     -12.799   0.194  -7.870  0.00  0.00    +0.002 A 
ATOM     30  C   UNL     1     -13.688   1.244  -7.739  0.00  0.00    +0.000 A 
ATOM     31  C   UNL     1     -13.352   2.498  -8.214  0.00  0.00    +0.000 A 
ATOM     32  C   UNL     1     -12.126   2.701  -8.821  0.00  0.00    +0.000 A 
ATOM     33  C   UNL     1     -11.236   1.651  -8.949  0.00  0.00    +0.002 A 
ENDBRANCH  27  28
ENDBRANCH   8  27
TORSDOF 6
