REMARK  Name = ZINC10166881
REMARK  12 active torsions:
REMARK  status: ('A' for Active; 'I' for Inactive)
REMARK    1  A    between atoms: C_1  and  C_2
REMARK    2  A    between atoms: C_2  and  C_3
REMARK    3  A    between atoms: C_6  and  C_9
REMARK    4  A    between atoms: C_9  and  C_11
REMARK    5  A    between atoms: C_9  and  N_22
REMARK    6  A    between atoms: C_12  and  O_21
REMARK    7  A    between atoms: C_17  and  C_19
REMARK    8  A    between atoms: C_19  and  C_20
REMARK    9  A    between atoms: C_26  and  C_29
REMARK   10  A    between atoms: C_29  and  O_31
REMARK   11  A    between atoms: O_31  and  C_32
REMARK   12  A    between atoms: C_32  and  C_33
REMARK                            x       y       z     vdW  Elec       q    Type
REMARK                         _______ _______ _______ _____ _____    ______ ____
ROOT
ATOM      1  C   UNL     1      -5.419  -2.005   0.043  0.00  0.00    +0.005 C 
ENDROOT
BRANCH   1   2
ATOM      2  C   UNL     1      -6.377  -0.866  -0.194  0.00  0.00    +0.045 A 
ATOM      3  C   UNL     1      -7.298  -0.351   0.630  0.00  0.00    +0.225 A 
ATOM      4  N   UNL     1      -8.087   0.700   0.228  0.00  0.00    -0.173 N 
ATOM      5  C   UNL     1      -7.889   1.183  -1.029  0.00  0.00    +0.199 A 
ATOM      6  S   UNL     1      -6.578   0.156  -1.646  0.00  0.00    -0.050 S 
ATOM      7  N   UNL     1      -8.712   2.171  -1.252  0.00  0.00    -0.205 NA
ATOM      8  C   UNL     1      -9.466   2.369  -0.173  0.00  0.00    +0.152 A 
ATOM      9  N   UNL     1      -9.130   1.509   0.750  0.00  0.00    -0.147 NA
BRANCH   8  10
ATOM     10  C   UNL     1     -10.536   3.421  -0.037  0.00  0.00    +0.075 C 
ATOM     11  C   UNL     1     -11.876   2.848  -0.502  0.00  0.00    +0.012 C 
ENDBRANCH   8  10
BRANCH   3  12
ATOM     12  O   UNL     1      -7.454  -0.873   1.876  0.00  0.00    -0.492 OA
ATOM     13  H   UNL     1      -8.140  -0.440   2.401  0.00  0.00    +0.294 HD
ENDBRANCH   3  12
ENDBRANCH   1   2
BRANCH   1  14
ATOM     14  N   UNL     1      -5.578  -3.008  -1.018  0.00  0.00    +0.388 N 
ATOM     15  C   UNL     1      -6.958  -3.509  -1.012  0.00  0.00    -0.077 C 
ATOM     16  C   UNL     1      -7.151  -4.495  -2.167  0.00  0.00    -0.018 C 
ATOM     17  C   UNL     1      -6.180  -5.666  -1.999  0.00  0.00    +0.011 C 
ATOM     18  C   UNL     1      -4.749  -5.125  -1.932  0.00  0.00    +0.081 C 
ATOM     19  C   UNL     1      -4.644  -4.116  -0.786  0.00  0.00    -0.063 C 
ATOM     20  H   UNL     1      -5.380  -2.584  -1.912  0.00  0.00    -0.080 HD
BRANCH  18  21
ATOM     21  C   UNL     1      -3.791  -6.263  -1.691  0.00  0.00    +0.308 C 
ATOM     22  O   UNL     1      -3.092  -6.266  -0.705  0.00  0.00    -0.251 OA
BRANCH  21  23
ATOM     23  O   UNL     1      -3.713  -7.273  -2.571  0.00  0.00    -0.465 OA
BRANCH  23  24
ATOM     24  C   UNL     1      -2.784  -8.318  -2.280  0.00  0.00    +0.229 C 
ATOM     25  C   UNL     1      -2.837  -9.372  -3.388  0.00  0.00    +0.048 C 
ENDBRANCH  23  24
ENDBRANCH  21  23
ENDBRANCH  18  21
ENDBRANCH   1  14
BRANCH   1  29
ATOM     26  C   UNL     1      -1.412  -0.526   0.013  0.00  0.00    -0.048 A 
ATOM     27  C   UNL     1      -2.051  -0.766   1.215  0.00  0.00    +0.004 A 
ATOM     28  C   UNL     1      -3.348  -1.244   1.225  0.00  0.00    +0.002 A 
ATOM     29  C   UNL     1      -4.006  -1.482   0.032  0.00  0.00    -0.056 A 
ATOM     30  C   UNL     1      -3.367  -1.241  -1.170  0.00  0.00    +0.002 A 
ATOM     31  C   UNL     1      -2.072  -0.758  -1.179  0.00  0.00    +0.004 A 
BRANCH  26  33
ATOM     32  C   UNL     1      -0.019   1.526   0.010  0.00  0.00    +0.009 C 
ATOM     33  C   UNL     1       0.002  -0.004   0.002  0.00  0.00    +0.032 C 
ENDBRANCH  26  33
ENDBRANCH   1  29
TORSDOF 9
