REMARK  Name = ZINC39844948
REMARK  5 active torsions:
REMARK  status: ('A' for Active; 'I' for Inactive)
REMARK    1  A    between atoms: C_4  and  N_7
REMARK    2  A    between atoms: N_7  and  C_8
REMARK    3  A    between atoms: C_9  and  S_20
REMARK    4  A    between atoms: C_11  and  C_13
REMARK    5  A    between atoms: S_20  and  C_23
REMARK                            x       y       z     vdW  Elec       q    Type
REMARK                         _______ _______ _______ _____ _____    ______ ____
ROOT
ATOM      1  C   UNL     1       3.644  -2.036   0.060  0.00  0.00    +0.237 A 
ATOM      2  C   UNL     1       4.747  -2.817   0.158  0.00  0.00    +0.243 A 
ATOM      3  N   UNL     1       4.340  -4.093   0.231  0.00  0.00    -0.188 NA
ATOM      4  C   UNL     1       3.029  -4.120   0.181  0.00  0.00    +0.231 A 
ATOM      5  O   UNL     1       2.574  -2.856   0.081  0.00  0.00    -0.420 OA
ENDROOT
BRANCH   4   6
ATOM      6  C   UNL     1       2.191  -5.335   0.233  0.00  0.00    +0.037 A 
ATOM      7  C   UNL     1       2.786  -6.593   0.350  0.00  0.00    +0.014 A 
ATOM      8  C   UNL     1       1.998  -7.724   0.399  0.00  0.00    +0.016 A 
ATOM      9  C   UNL     1       0.619  -7.614   0.331  0.00  0.00    +0.018 A 
ATOM     10  C   UNL     1       0.023  -6.370   0.214  0.00  0.00    +0.016 A 
ATOM     11  C   UNL     1       0.800  -5.231   0.171  0.00  0.00    +0.014 A 
ATOM     12 BR   UNL     1      -0.454  -9.170   0.396  0.00  0.00    -0.050 Br
ENDBRANCH   4   6
BRANCH   2  13
ATOM     13  S   UNL     1       6.418  -2.257   0.184  0.00  0.00    +0.047 S 
ATOM     14  O   UNL     1       7.217  -3.345  -0.261  0.00  0.00    -0.163 OA
ATOM     15  O   UNL     1       6.431  -0.989  -0.457  0.00  0.00    -0.163 OA
BRANCH  13  16
ATOM     16  C   UNL     1       6.846  -1.974   1.870  0.00  0.00    +0.095 A 
ATOM     17  C   UNL     1       6.630  -0.733   2.439  0.00  0.00    +0.027 A 
ATOM     18  C   UNL     1       6.966  -0.511   3.761  0.00  0.00    +0.002 A 
ATOM     19  C   UNL     1       7.517  -1.530   4.515  0.00  0.00    +0.000 A 
ATOM     20  C   UNL     1       7.731  -2.772   3.947  0.00  0.00    +0.002 A 
ATOM     21  C   UNL     1       7.392  -2.995   2.626  0.00  0.00    +0.027 A 
ENDBRANCH  13  16
ENDBRANCH   2  13
BRANCH   1  22
ATOM     22  N   UNL     1       3.620  -0.649  -0.037  0.00  0.00    -0.283 N 
ATOM     23  H   UNL     1       4.449  -0.155  -0.129  0.00  0.00    +0.155 HD
BRANCH  22  27
ATOM     24  C   UNL     1      -0.013   1.383   0.065  0.00  0.00    +0.000 A 
ATOM     25  C   UNL     1       0.100   0.142   0.664  0.00  0.00    +0.002 A 
ATOM     26  C   UNL     1       1.304  -0.535   0.632  0.00  0.00    +0.023 A 
ATOM     27  C   UNL     1       2.401   0.033  -0.003  0.00  0.00    +0.034 A 
ATOM     28  C   UNL     1       2.284   1.279  -0.605  0.00  0.00    +0.023 A 
ATOM     29  C   UNL     1       1.077   1.951  -0.569  0.00  0.00    +0.002 A 
ENDBRANCH  22  27
ENDBRANCH   1  22
TORSDOF 5
