REMARK  Name = ZINC39897017
REMARK  10 active torsions:
REMARK  status: ('A' for Active; 'I' for Inactive)
REMARK    1  A    between atoms: C_1  and  C_2
REMARK    2  A    between atoms: C_7  and  N_8
REMARK    3  A    between atoms: C_9  and  C_11
REMARK    4  A    between atoms: C_11  and  C_36
REMARK    5  A    between atoms: N_13  and  C_27
REMARK    6  A    between atoms: C_16  and  C_19
REMARK    7  A    between atoms: C_19  and  C_20
REMARK    8  A    between atoms: C_30  and  C_33
REMARK    9  A    between atoms: C_33  and  C_34
REMARK   10  A    between atoms: C_33  and  C_35
REMARK                            x       y       z     vdW  Elec       q    Type
REMARK                         _______ _______ _______ _____ _____    ______ ____
ROOT
ATOM      1  C   UNL     1       1.147   0.104   5.421  0.00  0.00    +0.142 C 
ATOM      2  C   UNL     1       0.386  -0.638   6.325  0.00  0.00    +0.098 C 
ATOM      3  N   UNL     1      -0.454  -0.174   7.308  0.00  0.00    -0.232 N 
ATOM      4  C   UNL     1      -1.127  -0.982   8.110  0.00  0.00    +0.238 C 
ATOM      5  O   UNL     1      -1.866  -0.563   8.975  0.00  0.00    -0.274 OA
ATOM      6  C   UNL     1      -0.914  -2.470   7.878  0.00  0.00    +0.143 C 
ATOM      7  S   UNL     1       0.271  -2.415   6.471  0.00  0.00    -0.095 S 
ENDROOT
BRANCH   3   8
ATOM      8  C   UNL     1      -0.603   1.210   7.468  0.00  0.00    +0.042 A 
ATOM      9  C   UNL     1       0.222   1.902   8.344  0.00  0.00    +0.024 A 
ATOM     10  C   UNL     1       0.073   3.267   8.498  0.00  0.00    +0.006 A 
ATOM     11  C   UNL     1      -0.897   3.943   7.782  0.00  0.00    -0.045 A 
ATOM     12  C   UNL     1      -1.721   3.256   6.909  0.00  0.00    +0.006 A 
ATOM     13  C   UNL     1      -1.573   1.893   6.746  0.00  0.00    +0.024 A 
BRANCH  11  14
ATOM     14  C   UNL     1      -1.058   5.431   7.954  0.00  0.00    +0.013 C 
ATOM     15  C   UNL     1      -0.834   6.127   6.609  0.00  0.00    +0.012 C 
ATOM     16  C   UNL     1      -2.470   5.737   8.457  0.00  0.00    +0.012 C 
ENDBRANCH  11  14
ENDBRANCH   3   8
BRANCH   1  18
ATOM     17  N   UNL     1       2.824   0.146   3.657  0.00  0.00    -0.281 N 
ATOM     18  C   UNL     1       2.090  -0.571   4.530  0.00  0.00    +0.261 C 
ATOM     19  O   UNL     1       2.211  -1.782   4.578  0.00  0.00    -0.269 OA
ATOM     20  H   UNL     1       2.777   1.115   3.664  0.00  0.00    +0.155 HD
BRANCH  17  27
ATOM     21  C   UNL     1       3.212   1.345   1.106  0.00  0.00    +0.045 C 
ATOM     22  C   UNL     1       3.871   0.043   1.484  0.00  0.00    -0.029 A 
ATOM     23  C   UNL     1       4.697  -0.601   0.583  0.00  0.00    +0.005 A 
ATOM     24  C   UNL     1       5.302  -1.795   0.929  0.00  0.00    +0.000 A 
ATOM     25  C   UNL     1       5.083  -2.349   2.177  0.00  0.00    +0.002 A 
ATOM     26  C   UNL     1       4.259  -1.710   3.083  0.00  0.00    +0.023 A 
ATOM     27  C   UNL     1       3.654  -0.507   2.740  0.00  0.00    +0.037 A 
ENDBRANCH  17  27
ENDBRANCH   1  18
BRANCH   1  28
ATOM     28  C   UNL     1       1.004   1.528   5.364  0.00  0.00    +0.107 C 
ATOM     29  N   UNL     1       0.890   2.658   5.320  0.00  0.00    -0.191 NA
ENDBRANCH   1  28
BRANCH   6  30
ATOM     30  C   UNL     1      -0.296  -3.140   9.107  0.00  0.00    +0.062 C 
BRANCH  30  31
ATOM     31  C   UNL     1      -0.217  -4.628   8.881  0.00  0.00    -0.011 A 
ATOM     32  C   UNL     1      -1.226  -5.452   9.343  0.00  0.00    +0.006 A 
ATOM     33  C   UNL     1      -1.153  -6.816   9.136  0.00  0.00    +0.000 A 
ATOM     34  C   UNL     1      -0.072  -7.359   8.467  0.00  0.00    +0.003 A 
ATOM     35  C   UNL     1       0.938  -6.537   8.004  0.00  0.00    +0.038 A 
ATOM     36  C   UNL     1       0.864  -5.169   8.206  0.00  0.00    +0.127 A 
ATOM     37  F   UNL     1       1.849  -4.364   7.750  0.00  0.00    -0.205 F 
ENDBRANCH  30  31
ENDBRANCH   6  30
TORSDOF 7
