REMARK  Name = ZINC64985359
REMARK  6 active torsions:
REMARK  status: ('A' for Active; 'I' for Inactive)
REMARK    1  A    between atoms: C_4  and  S_7
REMARK    2  A    between atoms: S_7  and  N_10
REMARK    3  A    between atoms: C_12  and  C_21
REMARK    4  A    between atoms: N_23  and  C_24
REMARK    5  A    between atoms: C_27  and  C_30
REMARK    6  A    between atoms: C_30  and  C_31
REMARK                            x       y       z     vdW  Elec       q    Type
REMARK                         _______ _______ _______ _____ _____    ______ ____
ROOT
ATOM      1  N   UNL     1       4.391  -1.094   1.527  0.00  0.00    -0.195 N 
ATOM      2  C   UNL     1       5.200  -0.100   2.253  0.00  0.00    +0.186 C 
ATOM      3  C   UNL     1       6.247  -0.864   3.075  0.00  0.00    +0.278 C 
ATOM      4  O   UNL     1       5.572  -1.762   3.960  0.00  0.00    -0.476 OA
ATOM      5  C   UNL     1       4.610  -2.566   3.434  0.00  0.00    +0.144 A 
ATOM      6  C   UNL     1       3.998  -2.249   2.222  0.00  0.00    +0.093 A 
ATOM      7  C   UNL     1       3.012  -3.071   1.702  0.00  0.00    +0.028 A 
ATOM      8  C   UNL     1       2.630  -4.208   2.389  0.00  0.00    +0.002 A 
ATOM      9  C   UNL     1       3.232  -4.525   3.593  0.00  0.00    +0.004 A 
ATOM     10  C   UNL     1       4.226  -3.711   4.113  0.00  0.00    +0.047 A 
ENDROOT
BRANCH   3  11
ATOM     11  C   UNL     1       7.073   0.111   3.873  0.00  0.00    +0.260 C 
ATOM     12  O   UNL     1       7.023   0.098   5.085  0.00  0.00    -0.271 OA
ATOM     13  N   UNL     1       7.867   0.998   3.241  0.00  0.00    -0.282 N 
ATOM     14  H   UNL     1       7.958   0.964   2.276  0.00  0.00    +0.155 HD
BRANCH  13  15
ATOM     15  C   UNL     1       8.559   1.966   3.977  0.00  0.00    +0.034 A 
ATOM     16  C   UNL     1       8.751   3.236   3.448  0.00  0.00    +0.023 A 
ATOM     17  C   UNL     1       9.435   4.189   4.177  0.00  0.00    +0.006 A 
ATOM     18  C   UNL     1       9.927   3.881   5.431  0.00  0.00    -0.034 A 
ATOM     19  C   UNL     1       9.738   2.617   5.961  0.00  0.00    +0.006 A 
ATOM     20  C   UNL     1       9.050   1.661   5.240  0.00  0.00    +0.023 A 
BRANCH  18  21
ATOM     21  C   UNL     1      10.673   4.924   6.224  0.00  0.00    +0.153 C 
BRANCH  21  22
ATOM     22  C   UNL     1       9.722   5.682   7.053  0.00  0.00    +0.067 C 
ATOM     23  N   UNL     1       8.988   6.268   7.693  0.00  0.00    -0.196 NA
ENDBRANCH  21  22
ENDBRANCH  18  21
ENDBRANCH  13  15
ENDBRANCH   3  11
BRANCH   1  24
ATOM     24  S   UNL     1       3.955  -0.855  -0.053  0.00  0.00    +0.075 S 
ATOM     25  O   UNL     1       3.702  -2.141  -0.603  0.00  0.00    -0.150 OA
ATOM     26  O   UNL     1       4.913   0.036  -0.608  0.00  0.00    -0.150 OA
BRANCH  24  30
ATOM     27  C   UNL     1      -0.000   1.346  -0.034  0.00  0.00    +0.000 A 
ATOM     28  C   UNL     1       1.186   2.056  -0.038  0.00  0.00    +0.002 A 
ATOM     29  C   UNL     1       2.394   1.383  -0.044  0.00  0.00    +0.029 A 
ATOM     30  C   UNL     1       2.416   0.001  -0.045  0.00  0.00    +0.109 A 
ATOM     31  C   UNL     1       1.230  -0.709  -0.039  0.00  0.00    +0.029 A 
ATOM     32  C   UNL     1       0.022  -0.036  -0.035  0.00  0.00    +0.002 A 
ENDBRANCH  24  30
ENDBRANCH   1  24
TORSDOF 6
