REMARK  Name = ZINC13073738
REMARK  11 active torsions:
REMARK  status: ('A' for Active; 'I' for Inactive)
REMARK    1  A    between atoms: C_1  and  C_2
REMARK    2  A    between atoms: C_2  and  O_3
REMARK    3  A    between atoms: O_3  and  C_4
REMARK    4  A    between atoms: C_7  and  C_10
REMARK    5  A    between atoms: C_10  and  N_60
REMARK    6  A    between atoms: C_11  and  N_60
REMARK    7  A    between atoms: C_12  and  N_13
REMARK    8  A    between atoms: C_12  and  N_60
REMARK    9  A    between atoms: N_16  and  C_26
REMARK   10  A    between atoms: C_17  and  C_19
REMARK   11  A    between atoms: C_26  and  C_27
REMARK                            x       y       z     vdW  Elec       q    Type
REMARK                         _______ _______ _______ _____ _____    ______ ____
ROOT
ATOM      1  N   UNL     1       3.892  -0.450   0.229  0.00  0.00    -0.257 N 
ATOM      2  C   UNL     1       4.545   0.638  -0.227  0.00  0.00    +0.177 A 
ATOM      3  S   UNL     1       6.226   0.753  -0.534  0.00  0.00    -0.011 S 
ATOM      4  N   UNL     1       3.637   1.619  -0.397  0.00  0.00    -0.299 N 
ATOM      5  C   UNL     1       2.397   1.127  -0.039  0.00  0.00    +0.163 A 
ATOM      6  N   UNL     1       2.536  -0.111   0.343  0.00  0.00    -0.152 NA
ENDROOT
BRANCH   5   7
ATOM      7  C   UNL     1       1.124   1.882  -0.078  0.00  0.00    +0.019 A 
ATOM      8  C   UNL     1      -0.052   1.250  -0.482  0.00  0.00    +0.013 A 
ATOM      9  C   UNL     1      -1.234   1.960  -0.522  0.00  0.00    +0.021 A 
ATOM     10  C   UNL     1      -1.257   3.294  -0.150  0.00  0.00    +0.041 A 
ATOM     11  C   UNL     1      -0.093   3.925   0.252  0.00  0.00    +0.021 A 
ATOM     12  C   UNL     1       1.097   3.227   0.290  0.00  0.00    +0.013 A 
ATOM     13 CL   UNL     1      -2.750   4.179  -0.197  0.00  0.00    -0.084 Cl
ENDBRANCH   5   7
BRANCH   1  14
ATOM     14  C   UNL     1       4.490  -1.748   0.552  0.00  0.00    +0.072 C 
BRANCH  14  16
ATOM     15  C   UNL     1       5.987  -0.804   2.205  0.00  0.00    -0.093 C 
ATOM     16  N   UNL     1       4.876  -1.753   1.979  0.00  0.00    +0.394 N 
ATOM     17  H   UNL     1       4.069  -1.462   2.544  0.00  0.00    -0.079 HD
BRANCH  16  18
ATOM     18  C   UNL     1       5.283  -3.114   2.387  0.00  0.00    -0.041 C 
BRANCH  18  22
ATOM     19  C   UNL     1       5.778  -3.189   6.631  0.00  0.00    +0.121 A 
ATOM     20  C   UNL     1       4.539  -3.465   6.071  0.00  0.00    +0.046 A 
ATOM     21  C   UNL     1       4.381  -3.440   4.699  0.00  0.00    +0.005 A 
ATOM     22  C   UNL     1       5.457  -3.140   3.884  0.00  0.00    -0.064 A 
ATOM     23  C   UNL     1       6.694  -2.871   4.439  0.00  0.00    +0.005 A 
ATOM     24  C   UNL     1       6.856  -2.889   5.811  0.00  0.00    +0.046 A 
BRANCH  19  25
ATOM     25  O   UNL     1       5.935  -3.213   7.981  0.00  0.00    -0.492 OA
BRANCH  25  27
ATOM     26  C   UNL     1       7.221  -2.993  10.015  0.00  0.00    +0.048 C 
ATOM     27  C   UNL     1       7.239  -2.919   8.487  0.00  0.00    +0.225 C 
ENDBRANCH  25  27
ENDBRANCH  19  25
ENDBRANCH  18  22
ENDBRANCH  16  18
ENDBRANCH  14  16
ENDBRANCH   1  14
BRANCH   4  28
ATOM     28  C   UNL     1       3.916   2.974  -0.879  0.00  0.00    +0.161 C 
BRANCH  28  29
ATOM     29  C   UNL     1       3.626   3.051  -2.356  0.00  0.00    -0.028 A 
ATOM     30  C   UNL     1       4.607   2.722  -3.272  0.00  0.00    +0.005 A 
ATOM     31  C   UNL     1       4.339   2.788  -4.627  0.00  0.00    +0.000 A 
ATOM     32  C   UNL     1       3.092   3.194  -5.065  0.00  0.00    +0.000 A 
ATOM     33  C   UNL     1       2.112   3.528  -4.149  0.00  0.00    +0.000 A 
ATOM     34  C   UNL     1       2.379   3.457  -2.795  0.00  0.00    +0.005 A 
ENDBRANCH  28  29
ENDBRANCH   4  28
TORSDOF 9
