REMARK  Name = ZINC44780650
REMARK  7 active torsions:
REMARK  status: ('A' for Active; 'I' for Inactive)
REMARK    1  A    between atoms: C_1  and  C_2
REMARK    2  A    between atoms: C_2  and  C_3
REMARK    3  A    between atoms: C_3  and  N_4
REMARK    4  A    between atoms: C_7  and  N_10
REMARK    5  A    between atoms: C_11  and  C_13
REMARK    6  A    between atoms: C_13  and  C_19
REMARK    7  A    between atoms: C_19  and  N_21
REMARK                            x       y       z     vdW  Elec       q    Type
REMARK                         _______ _______ _______ _____ _____    ______ ____
ROOT
ATOM      1  N   UNL     1      -1.948  -6.092   1.173  0.00  0.00    -0.312 N 
ATOM      2  C   UNL     1      -3.065  -6.835   1.309  0.00  0.00    +0.226 C 
ATOM      3  O   UNL     1      -4.114  -6.304   1.607  0.00  0.00    -0.275 OA
ATOM      4  H   UNL     1      -1.096  -6.524   1.009  0.00  0.00    +0.149 HD
ENDROOT
BRANCH   1   8
ATOM      5  N   UNL     1      -1.055  -2.047   0.396  0.00  0.00    +0.380 N 
ATOM      6  C   UNL     1      -0.724  -2.550   1.734  0.00  0.00    -0.077 C 
ATOM      7  C   UNL     1      -0.662  -4.079   1.707  0.00  0.00    +0.003 C 
ATOM      8  C   UNL     1      -2.023  -4.632   1.275  0.00  0.00    +0.069 C 
ATOM      9  C   UNL     1      -2.392  -4.042  -0.089  0.00  0.00    +0.003 C 
ATOM     10  C   UNL     1      -2.390  -2.515   0.004  0.00  0.00    -0.077 C 
ATOM     11  H   UNL     1      -0.374  -2.385  -0.267  0.00  0.00    -0.082 HD
BRANCH   5  12
ATOM     12  C   UNL     1      -1.037  -0.578   0.409  0.00  0.00    -0.079 C 
BRANCH  12  14
ATOM     13  C   UNL     1       0.402   1.442   0.708  0.00  0.00    +0.002 C 
ATOM     14  C   UNL     1       0.384  -0.088   0.694  0.00  0.00    -0.022 C 
ENDBRANCH  12  14
ENDBRANCH   5  12
ENDBRANCH   1   8
BRANCH   2  15
ATOM     15  C   UNL     1      -3.010  -8.325   1.089  0.00  0.00    +0.095 C 
ATOM     16  C   UNL     1      -4.353  -8.950   1.480  0.00  0.00    +0.051 C 
ATOM     17  C   UNL     1      -4.598  -8.721   2.974  0.00  0.00    +0.161 C 
ATOM     18  O   UNL     1      -3.519  -9.281   3.724  0.00  0.00    -0.380 OA
ATOM     19  C   UNL     1      -2.245  -8.702   3.435  0.00  0.00    +0.161 C 
ATOM     20  C   UNL     1      -1.905  -8.930   1.960  0.00  0.00    +0.051 C 
BRANCH  15  21
ATOM     21  C   UNL     1      -2.722  -8.610  -0.362  0.00  0.00    +0.061 C 
ATOM     22  S   UNL     1      -1.483  -9.537  -0.764  0.00  0.00    -0.040 S 
BRANCH  21  23
ATOM     23  N   UNL     1      -3.510  -8.084  -1.321  0.00  0.00    -0.355 N 
ATOM     24  H   UNL     1      -4.303  -7.583  -1.077  0.00  0.00    +0.143 HD
ATOM     25  H   UNL     1      -3.282  -8.206  -2.256  0.00  0.00    +0.143 HD
ENDBRANCH  21  23
ENDBRANCH  15  21
ENDBRANCH   2  15
TORSDOF 6
