REMARK  Name = ZINC02136036
REMARK  7 active torsions:
REMARK  status: ('A' for Active; 'I' for Inactive)
REMARK    1  A    between atoms: C_1  and  C_2
REMARK    2  A    between atoms: C_2  and  C_3
REMARK    3  A    between atoms: C_17  and  C_19
REMARK    4  A    between atoms: C_19  and  C_20
REMARK    5  A    between atoms: C_20  and  S_21
REMARK    6  A    between atoms: S_21  and  C_22
REMARK    7  A    between atoms: N_25  and  C_28
REMARK                            x       y       z     vdW  Elec       q    Type
REMARK                         _______ _______ _______ _____ _____    ______ ____
ROOT
ATOM      1  C   UNL     1      -5.415   0.872   1.749  0.00  0.00    -0.026 A 
ATOM      2  C   UNL     1      -6.190   1.924   1.308  0.00  0.00    +0.005 A 
ATOM      3  C   UNL     1      -5.596   3.085   0.850  0.00  0.00    +0.001 A 
ATOM      4  C   UNL     1      -4.216   3.192   0.833  0.00  0.00    +0.004 A 
ATOM      5  C   UNL     1      -3.439   2.145   1.272  0.00  0.00    -0.027 A 
ATOM      6  C   UNL     1      -4.026   0.971   1.736  0.00  0.00    +0.039 A 
ATOM      7  N   UNL     1      -3.042   0.059   2.125  0.00  0.00    -0.286 N 
ATOM      8  C   UNL     1      -1.799   0.549   1.952  0.00  0.00    +0.211 C 
ATOM      9  O   UNL     1      -0.756  -0.017   2.204  0.00  0.00    -0.277 OA
ATOM     10  C   UNL     1      -1.956   1.934   1.386  0.00  0.00    +0.050 C 
ATOM     11  C   UNL     1      -1.261   2.065   0.019  0.00  0.00    +0.088 C 
ATOM     12  C   UNL     1      -0.698   3.514   0.011  0.00  0.00    +0.073 C 
ATOM     13  C   UNL     1      -1.125   4.118   1.366  0.00  0.00    -0.057 C 
ATOM     14  C   UNL     1       0.799   3.307   0.006  0.00  0.00    +0.224 C 
ATOM     15  O   UNL     1       1.629   4.191   0.006  0.00  0.00    -0.275 OA
ATOM     16  N   UNL     1       1.067   1.996   0.003  0.00  0.00    -0.239 N 
ATOM     17  C   UNL     1      -0.014   1.208   0.009  0.00  0.00    +0.225 C 
ATOM     18  O   UNL     1       0.002  -0.004   0.002  0.00  0.00    -0.275 OA
ATOM     19  H   UNL     1      -3.232  -0.824   2.478  0.00  0.00    +0.155 HD
ATOM     20  N   UNL     1      -1.340   2.950   2.223  0.00  0.00    +0.394 N 
ATOM     21  H   UNL     1      -0.444   2.610   2.591  0.00  0.00    -0.083 HD
ATOM     22  H   UNL     1      -1.961   3.192   3.003  0.00  0.00    -0.083 HD
ENDROOT
BRANCH  16  23
ATOM     23  C   UNL     1       2.433   1.466  -0.008  0.00  0.00    +0.084 C 
ATOM     24  C   UNL     1       3.213   1.990   1.215  0.00  0.00    +0.023 C 
ATOM     25  C   UNL     1       4.647   2.227   0.678  0.00  0.00    +0.002 C 
ATOM     26  C   UNL     1       4.392   2.777  -0.747  0.00  0.00    +0.002 C 
ATOM     27  C   UNL     1       3.182   1.966  -1.256  0.00  0.00    +0.023 C 
ENDBRANCH  16  23
BRANCH   1  29
ATOM     28  C   UNL     1      -6.209  -0.328   3.769  0.00  0.00    +0.009 C 
ATOM     29  C   UNL     1      -6.073  -0.390   2.246  0.00  0.00    +0.033 C 
ENDBRANCH   1  29
BRANCH  13  30
ATOM     30  C   UNL     1      -0.019   5.020   1.918  0.00  0.00    -0.004 C 
BRANCH  30  31
ATOM     31  C   UNL     1      -0.510   5.705   3.195  0.00  0.00    +0.067 C 
BRANCH  31  32
ATOM     32  S   UNL     1       0.801   6.774   3.850  0.00  0.00    -0.164 S 
ATOM     33  C   UNL     1       0.069   7.502   5.342  0.00  0.00    +0.084 C 
ENDBRANCH  31  32
ENDBRANCH  30  31
ENDBRANCH  13  30
TORSDOF 5
