REMARK  Name = ZINC48922561
REMARK  3 active torsions:
REMARK  status: ('A' for Active; 'I' for Inactive)
REMARK    1  A    between atoms: C_1  and  N_2
REMARK    2  A    between atoms: N_5  and  C_6
REMARK    3  A    between atoms: N_15  and  C_17
REMARK                            x       y       z     vdW  Elec       q    Type
REMARK                         _______ _______ _______ _____ _____    ______ ____
ROOT
ATOM      1  C   UNL     1      -2.394  -2.789   0.010  0.00  0.00    +0.077 C 
ATOM      2  C   UNL     1      -2.908  -2.980  -1.419  0.00  0.00    -0.007 C 
ATOM      3  C   UNL     1      -4.272  -3.660  -1.377  0.00  0.00    +0.003 C 
ATOM      4  C   UNL     1      -4.248  -4.980  -0.623  0.00  0.00    +0.001 C 
ATOM      5  C   UNL     1      -3.521  -4.899   0.710  0.00  0.00    +0.003 C 
ATOM      6  C   UNL     1      -2.179  -4.182   0.607  0.00  0.00    -0.007 C 
ATOM      7  C   UNL     1      -1.185  -4.969  -0.233  0.00  0.00    -0.073 C 
ATOM      8  N   UNL     1      -1.563  -5.064  -1.639  0.00  0.00    +0.382 N 
ATOM      9  C   UNL     1      -1.907  -3.779  -2.238  0.00  0.00    -0.073 C 
ATOM     10  H   UNL     1      -2.322  -5.718  -1.754  0.00  0.00    -0.081 HD
ENDROOT
BRANCH   1  15
ATOM     11  C   UNL     1      -0.018   1.461   0.010  0.00  0.00    +0.129 C 
ATOM     12  N   UNL     1       0.002  -0.004   0.002  0.00  0.00    -0.302 N 
ATOM     13  C   UNL     1      -1.156  -0.694   0.009  0.00  0.00    +0.300 C 
ATOM     14  O   UNL     1      -2.217  -0.100   0.023  0.00  0.00    -0.253 OA
ATOM     15  N   UNL     1      -1.137  -2.041   0.002  0.00  0.00    -0.296 N 
ATOM     16  H   UNL     1       0.849  -0.478  -0.009  0.00  0.00    +0.150 HD
ATOM     17  H   UNL     1      -0.291  -2.515  -0.009  0.00  0.00    +0.151 HD
ENDBRANCH   1  15
BRANCH   8  18
ATOM     18  C   UNL     1      -0.423  -5.621  -2.380  0.00  0.00    -0.069 C 
ATOM     19  C   UNL     1      -0.691  -6.821  -3.289  0.00  0.00    -0.017 C 
ATOM     20  C   UNL     1       0.070  -7.011  -1.976  0.00  0.00    -0.017 C 
ENDBRANCH   8  18
TORSDOF 2
