REMARK  Name = ZINC06679050
REMARK  6 active torsions:
REMARK  status: ('A' for Active; 'I' for Inactive)
REMARK    1  A    between atoms: C_1  and  C_2
REMARK    2  A    between atoms: C_5  and  N_8
REMARK    3  A    between atoms: C_11  and  C_13
REMARK    4  A    between atoms: C_14  and  C_23
REMARK    5  A    between atoms: C_17  and  C_22
REMARK    6  A    between atoms: C_27  and  O_29
REMARK                            x       y       z     vdW  Elec       q    Type
REMARK                         _______ _______ _______ _____ _____    ______ ____
ROOT
ATOM      1  N   UNL     1      -0.306  -4.154   0.006  0.00  0.00    -0.218 N 
ATOM      2  C   UNL     1       0.663  -4.898   0.644  0.00  0.00    +0.133 A 
ATOM      3  C   UNL     1       0.472  -6.186   0.283  0.00  0.00    +0.033 A 
ATOM      4  C   UNL     1      -0.635  -6.230  -0.591  0.00  0.00    +0.067 A 
ATOM      5  N   UNL     1      -1.096  -5.022  -0.748  0.00  0.00    -0.170 NA
ATOM      6  C   UNL     1      -1.196  -7.472  -1.234  0.00  0.00    +0.068 C 
ATOM      7  C   UNL     1       1.227  -7.419   0.670  0.00  0.00    +0.112 C 
ATOM      8  S   UNL     1       2.982  -7.131   0.911  0.00  0.00    -0.135 S 
ATOM      9  C   UNL     1       3.118  -6.090   2.371  0.00  0.00    +0.130 C 
ATOM     10  C   UNL     1       2.609  -4.720   2.152  0.00  0.00    +0.231 C 
ATOM     11  O   UNL     1       3.251  -3.845   2.694  0.00  0.00    -0.274 OA
ATOM     12  N   UNL     1       1.584  -4.304   1.472  0.00  0.00    -0.269 N 
ATOM     13  C   UNL     1       2.324  -6.733   3.510  0.00  0.00    +0.029 C 
ATOM     14  H   UNL     1       1.433  -3.351   1.572  0.00  0.00    +0.156 HD
ENDROOT
BRANCH   1  19
ATOM     15  C   UNL     1      -0.978   1.468   0.393  0.00  0.00    +0.044 C 
ATOM     16  C   UNL     1      -0.799  -0.025   0.290  0.00  0.00    -0.050 A 
ATOM     17  C   UNL     1       0.467  -0.559   0.141  0.00  0.00    +0.005 A 
ATOM     18  C   UNL     1       0.634  -1.927   0.046  0.00  0.00    +0.028 A 
ATOM     19  C   UNL     1      -0.472  -2.765   0.102  0.00  0.00    +0.067 A 
ATOM     20  C   UNL     1      -1.742  -2.225   0.253  0.00  0.00    +0.028 A 
ATOM     21  C   UNL     1      -1.902  -0.857   0.351  0.00  0.00    +0.005 A 
ENDBRANCH   1  19
BRANCH   7  22
ATOM     22  C   UNL     1       1.053  -8.452  -0.414  0.00  0.00    -0.026 A 
ATOM     23  C   UNL     1       1.652  -8.268  -1.647  0.00  0.00    +0.005 A 
ATOM     24  C   UNL     1       1.495  -9.213  -2.642  0.00  0.00    +0.004 A 
ATOM     25  C   UNL     1       0.738 -10.345  -2.408  0.00  0.00    +0.045 A 
ATOM     26  C   UNL     1       0.137 -10.533  -1.172  0.00  0.00    +0.117 A 
ATOM     27  C   UNL     1       0.301  -9.585  -0.172  0.00  0.00    +0.050 A 
BRANCH  26  28
ATOM     28  O   UNL     1      -0.608 -11.646  -0.940  0.00  0.00    -0.507 OA
ATOM     29  H   UNL     1      -0.103 -12.390  -0.585  0.00  0.00    +0.292 HD
ENDBRANCH  26  28
ENDBRANCH   7  22
TORSDOF 3
