REMARK  Name = ZINC40424190
REMARK  9 active torsions:
REMARK  status: ('A' for Active; 'I' for Inactive)
REMARK    1  A    between atoms: C_1  and  C_2
REMARK    2  A    between atoms: C_2  and  C_3
REMARK    3  A    between atoms: C_3  and  C_4
REMARK    4  A    between atoms: C_4  and  C_6
REMARK    5  A    between atoms: C_4  and  C_7
REMARK    6  A    between atoms: C_7  and  N_8
REMARK    7  A    between atoms: C_11  and  C_14
REMARK    8  A    between atoms: C_21  and  C_30
REMARK    9  A    between atoms: C_22  and  C_23
REMARK                            x       y       z     vdW  Elec       q    Type
REMARK                         _______ _______ _______ _____ _____    ______ ____
ROOT
ATOM      1  C   UNL     1       3.222  -7.986   2.135  0.00  0.00    -0.040 A 
ATOM      2  C   UNL     1       2.005  -8.681   2.079  0.00  0.00    +0.022 A 
ATOM      3  C   UNL     1       1.995 -10.030   2.006  0.00  0.00    +0.093 A 
ATOM      4  N   UNL     1       3.163 -10.733   1.986  0.00  0.00    -0.297 N 
ATOM      5  C   UNL     1       4.367 -10.084   2.039  0.00  0.00    +0.139 A 
ATOM      6  C   UNL     1       4.395  -8.677   2.110  0.00  0.00    +0.050 A 
ATOM      7  N   UNL     1       5.341 -10.986   2.005  0.00  0.00    -0.227 NA
ATOM      8  C   UNL     1       4.814 -12.212   1.931  0.00  0.00    +0.099 A 
ATOM      9  C   UNL     1       3.430 -12.083   1.917  0.00  0.00    +0.100 A 
ENDROOT
BRANCH   9  10
ATOM     10  C   UNL     1       2.445 -13.173   1.843  0.00  0.00    +0.095 A 
ATOM     11  C   UNL     1       1.144 -12.994   2.339  0.00  0.00    +0.050 A 
ATOM     12  C   UNL     1       0.256 -14.046   2.247  0.00  0.00    +0.116 A 
ATOM     13  N   UNL     1       0.653 -15.185   1.697  0.00  0.00    -0.223 NA
ATOM     14  C   UNL     1       1.887 -15.329   1.236  0.00  0.00    +0.213 A 
ATOM     15  N   UNL     1       2.772 -14.347   1.298  0.00  0.00    -0.213 NA
ATOM     16  N   UNL     1       2.258 -16.536   0.669  0.00  0.00    -0.327 N 
ATOM     17  H   UNL     1       1.618 -17.263   0.614  0.00  0.00    +0.145 HD
ATOM     18  H   UNL     1       3.158 -16.656   0.328  0.00  0.00    +0.145 HD
ENDBRANCH   9  10
BRANCH   1  22
ATOM     19  N   UNL     1       1.727  -4.008   2.327  0.00  0.00    +0.380 N 
ATOM     20  C   UNL     1       2.470  -4.374   1.115  0.00  0.00    -0.078 C 
ATOM     21  C   UNL     1       2.527  -5.898   0.988  0.00  0.00    -0.011 C 
ATOM     22  C   UNL     1       3.232  -6.481   2.216  0.00  0.00    +0.016 C 
ATOM     23  C   UNL     1       2.492  -6.031   3.479  0.00  0.00    -0.011 C 
ATOM     24  C   UNL     1       2.436  -4.503   3.514  0.00  0.00    -0.078 C 
ATOM     25  H   UNL     1       0.806  -4.418   2.292  0.00  0.00    -0.082 HD
BRANCH  19  26
ATOM     26  C   UNL     1       1.608  -2.546   2.404  0.00  0.00    -0.076 C 
BRANCH  26  27
ATOM     27  C   UNL     1       0.763  -2.041   1.233  0.00  0.00    -0.031 C 
ATOM     28  C   UNL     1      -0.666  -2.571   1.370  0.00  0.00    +0.005 C 
BRANCH  27  29
ATOM     29  C   UNL     1       0.742  -0.511   1.242  0.00  0.00    +0.001 C 
BRANCH  29  31
ATOM     30  C   UNL     1      -0.019   1.526   0.010  0.00  0.00    +0.004 C 
ATOM     31  C   UNL     1       0.002  -0.004   0.002  0.00  0.00    -0.003 C 
ENDBRANCH  29  31
ENDBRANCH  27  29
ENDBRANCH  26  27
ENDBRANCH  19  26
ENDBRANCH   1  22
BRANCH   8  32
ATOM     32  C   UNL     1       5.572 -13.484   1.874  0.00  0.00    +0.003 A 
ATOM     33  C   UNL     1       5.067 -14.627   2.492  0.00  0.00    +0.013 A 
ATOM     34  C   UNL     1       5.776 -15.809   2.436  0.00  0.00    +0.039 A 
ATOM     35  C   UNL     1       6.988 -15.862   1.766  0.00  0.00    +0.123 A 
ATOM     36  C   UNL     1       7.494 -14.728   1.150  0.00  0.00    +0.039 A 
ATOM     37  C   UNL     1       6.790 -13.543   1.196  0.00  0.00    +0.013 A 
ATOM     38  F   UNL     1       7.679 -17.022   1.714  0.00  0.00    -0.205 F 
ENDBRANCH   8  32
TORSDOF 7
