REMARK  Name = ZINC40986487
REMARK  10 active torsions:
REMARK  status: ('A' for Active; 'I' for Inactive)
REMARK    1  A    between atoms: C_1  and  C_2
REMARK    2  A    between atoms: C_2  and  C_3
REMARK    3  A    between atoms: C_2  and  C_4
REMARK    4  A    between atoms: C_2  and  C_5
REMARK    5  A    between atoms: C_8  and  C_11
REMARK    6  A    between atoms: C_11  and  C_13
REMARK    7  A    between atoms: C_11  and  N_30
REMARK    8  A    between atoms: C_13  and  N_14
REMARK    9  A    between atoms: C_15  and  C_17
REMARK   10  A    between atoms: C_19  and  C_22
REMARK                            x       y       z     vdW  Elec       q    Type
REMARK                         _______ _______ _______ _____ _____    ______ ____
ROOT
ATOM      1  C   UNL     1       2.682  -0.641  -5.643  0.00  0.00    +0.094 C 
ENDROOT
BRANCH   1   2
ATOM      2  N   UNL     1       1.324  -0.430  -6.152  0.00  0.00    -0.311 N 
ATOM      3  C   UNL     1       1.085   0.549  -7.047  0.00  0.00    +0.266 C 
ATOM      4  O   UNL     1       1.994   1.257  -7.432  0.00  0.00    -0.268 OA
ATOM      5  H   UNL     1       0.598  -0.995  -5.845  0.00  0.00    +0.149 HD
BRANCH   3   6
ATOM      6  C   UNL     1      -0.290   0.763  -7.562  0.00  0.00    +0.168 A 
ATOM      7  C   UNL     1      -0.681   1.742  -8.501  0.00  0.00    +0.086 A 
ATOM      8  C   UNL     1      -2.018   1.610  -8.710  0.00  0.00    +0.168 A 
ATOM      9  O   UNL     1      -2.460   0.597  -7.942  0.00  0.00    -0.354 OA
ATOM     10  N   UNL     1      -1.354   0.072  -7.230  0.00  0.00    -0.073 NA
BRANCH   8  11
ATOM     11  C   UNL     1      -2.841   2.434  -9.620  0.00  0.00    +0.023 A 
ATOM     12  C   UNL     1      -2.251   3.456 -10.367  0.00  0.00    +0.014 A 
ATOM     13  C   UNL     1      -3.023   4.223 -11.214  0.00  0.00    +0.042 A 
ATOM     14  C   UNL     1      -4.383   3.981 -11.326  0.00  0.00    +0.158 A 
ATOM     15  C   UNL     1      -4.976   2.968 -10.587  0.00  0.00    +0.159 A 
ATOM     16  C   UNL     1      -4.210   2.191  -9.739  0.00  0.00    +0.053 A 
ATOM     17  F   UNL     1      -6.302   2.737 -10.700  0.00  0.00    -0.202 F 
ATOM     18  F   UNL     1      -5.134   4.736 -12.158  0.00  0.00    -0.202 F 
ENDBRANCH   8  11
ENDBRANCH   3   6
ENDBRANCH   1   2
BRANCH   1  19
ATOM     19  C   UNL     1       2.656  -1.716  -4.554  0.00  0.00    -0.020 C 
BRANCH  19  23
ATOM     20  C   UNL     1       0.428  -0.293  -1.199  0.00  0.00    -0.042 A 
ATOM     21  C   UNL     1      -0.163  -1.150  -2.108  0.00  0.00    +0.004 A 
ATOM     22  C   UNL     1       0.558  -1.610  -3.194  0.00  0.00    +0.002 A 
ATOM     23  C   UNL     1       1.870  -1.213  -3.371  0.00  0.00    -0.059 A 
ATOM     24  C   UNL     1       2.461  -0.355  -2.462  0.00  0.00    +0.002 A 
ATOM     25  C   UNL     1       1.739   0.108  -1.379  0.00  0.00    +0.004 A 
BRANCH  20  27
ATOM     26  C   UNL     1      -0.443   1.735  -0.069  0.00  0.00    +0.015 C 
ATOM     27  C   UNL     1      -0.358   0.208  -0.015  0.00  0.00    -0.013 C 
ATOM     28  C   UNL     1       0.340  -0.218   1.278  0.00  0.00    +0.015 C 
ATOM     29  C   UNL     1      -1.768  -0.383  -0.052  0.00  0.00    +0.015 C 
ENDBRANCH  20  27
ENDBRANCH  19  23
BRANCH  19  30
ATOM     30  N   UNL     1       4.031  -2.020  -4.135  0.00  0.00    +0.385 N 
ATOM     31  C   UNL     1       4.026  -3.073  -3.087  0.00  0.00    -0.078 C 
ATOM     32  C   UNL     1       5.456  -3.662  -3.169  0.00  0.00    -0.020 C 
ATOM     33  C   UNL     1       5.752  -3.642  -4.686  0.00  0.00    -0.020 C 
ATOM     34  C   UNL     1       4.797  -2.583  -5.269  0.00  0.00    -0.078 C 
ATOM     35  H   UNL     1       4.483  -1.187  -3.790  0.00  0.00    -0.081 HD
ENDBRANCH  19  30
ENDBRANCH   1  19
TORSDOF 7
