REMARK  Name = ZINC13063784
REMARK  14 active torsions:
REMARK  status: ('A' for Active; 'I' for Inactive)
REMARK    1  A    between atoms: C_1  and  C_2
REMARK    2  A    between atoms: C_2  and  C_3
REMARK    3  A    between atoms: C_3  and  C_5
REMARK    4  A    between atoms: C_3  and  N_68
REMARK    5  A    between atoms: N_9  and  C_10
REMARK    6  A    between atoms: C_10  and  C_11
REMARK    7  A    between atoms: C_10  and  C_12
REMARK    8  A    between atoms: C_10  and  C_13
REMARK    9  A    between atoms: C_13  and  C_14
REMARK   10  A    between atoms: C_15  and  C_16
REMARK   11  A    between atoms: C_15  and  N_68
REMARK   12  A    between atoms: C_22  and  C_23
REMARK   13  A    between atoms: C_22  and  N_68
REMARK   14  A    between atoms: C_28  and  C_35
REMARK                            x       y       z     vdW  Elec       q    Type
REMARK                         _______ _______ _______ _____ _____    ______ ____
ROOT
ATOM      1  N   UNL     1      -0.357  -0.259   4.417  0.00  0.00    +0.392 N 
ATOM      2  H   UNL     1      -0.662   0.206   5.280  0.00  0.00    -0.080 HD
ENDROOT
BRANCH   1   3
ATOM      3  C   UNL     1       0.097   0.766   3.453  0.00  0.00    +0.003 C 
BRANCH   3   4
ATOM      4  C   UNL     1       0.726   1.900   4.220  0.00  0.00    +0.139 A 
ATOM      5  N   UNL     1       1.373   1.813   5.357  0.00  0.00    -0.115 NA
ATOM      6  N   UNL     1       1.753   2.998   5.691  0.00  0.00    -0.023 NA
ATOM      7  N   UNL     1       1.371   3.838   4.794  0.00  0.00    -0.043 NA
ATOM      8  N   UNL     1       0.737   3.200   3.869  0.00  0.00    -0.225 N 
BRANCH   8   9
ATOM      9  C   UNL     1       0.137   3.780   2.665  0.00  0.00    +0.061 C 
ATOM     10  C   UNL     1      -1.387   3.676   2.754  0.00  0.00    +0.036 C 
ATOM     11  C   UNL     1       0.629   3.021   1.432  0.00  0.00    +0.036 C 
BRANCH   9  12
ATOM     12  C   UNL     1       0.541   5.252   2.553  0.00  0.00    +0.026 C 
ATOM     13  C   UNL     1      -0.086   5.859   1.296  0.00  0.00    +0.006 C 
ENDBRANCH   9  12
ENDBRANCH   8   9
ENDBRANCH   3   4
BRANCH   3  15
ATOM     14  C   UNL     1       0.482  -0.976   1.704  0.00  0.00    +0.002 C 
ATOM     15  C   UNL     1       1.123   0.172   2.486  0.00  0.00    -0.011 C 
ENDBRANCH   3  15
ENDBRANCH   1   3
BRANCH   1  16
ATOM     16  C   UNL     1      -1.495  -1.015   3.851  0.00  0.00    -0.042 C 
BRANCH  16  17
ATOM     17  C   UNL     1      -2.173  -1.773   4.963  0.00  0.00    -0.064 A 
ATOM     18  C   UNL     1      -1.847  -3.096   5.197  0.00  0.00    +0.002 A 
ATOM     19  C   UNL     1      -2.465  -3.790   6.220  0.00  0.00    +0.000 A 
ATOM     20  C   UNL     1      -3.416  -3.164   7.004  0.00  0.00    +0.000 A 
ATOM     21  C   UNL     1      -3.746  -1.842   6.767  0.00  0.00    +0.000 A 
ATOM     22  C   UNL     1      -3.124  -1.147   5.747  0.00  0.00    +0.002 A 
ENDBRANCH  16  17
ENDBRANCH   1  16
BRANCH   1  23
ATOM     23  C   UNL     1       0.753  -1.181   4.734  0.00  0.00    -0.036 C 
BRANCH  23  24
ATOM     24  C   UNL     1       1.583  -0.572   5.835  0.00  0.00    +0.001 A 
ATOM     25  C   UNL     1       1.151  -0.633   7.119  0.00  0.00    +0.017 A 
ATOM     26  C   UNL     1       1.980  -0.032   8.166  0.00  0.00    -0.001 A 
ATOM     27  C   UNL     1       1.587  -0.064   9.508  0.00  0.00    +0.010 A 
ATOM     28  C   UNL     1       2.383   0.506  10.460  0.00  0.00    +0.004 A 
ATOM     29  C   UNL     1       3.580   1.115  10.108  0.00  0.00    -0.048 A 
ATOM     30  C   UNL     1       3.987   1.158   8.793  0.00  0.00    +0.029 A 
ATOM     31  C   UNL     1       3.192   0.585   7.805  0.00  0.00    +0.049 A 
ATOM     32  N   UNL     1       3.576   0.613   6.481  0.00  0.00    -0.322 N 
ATOM     33  H   UNL     1       4.412   1.038   6.234  0.00  0.00    +0.169 HD
ATOM     34  C   UNL     1       2.810   0.053   5.528  0.00  0.00    +0.251 A 
ATOM     35  O   UNL     1       3.183   0.092   4.368  0.00  0.00    -0.268 OA
ATOM     36  C   UNL     1       4.442   1.737  11.177  0.00  0.00    +0.044 C 
ENDBRANCH  23  24
ENDBRANCH   1  23
TORSDOF 9
