REMARK  Name = ZINC65227939
REMARK  6 active torsions:
REMARK  status: ('A' for Active; 'I' for Inactive)
REMARK    1  A    between atoms: C_1  and  C_2
REMARK    2  A    between atoms: C_7  and  C_8
REMARK    3  A    between atoms: C_8  and  N_9
REMARK    4  A    between atoms: C_10  and  C_12
REMARK    5  A    between atoms: C_20  and  C_25
REMARK    6  A    between atoms: C_27  and  C_30
REMARK                            x       y       z     vdW  Elec       q    Type
REMARK                         _______ _______ _______ _____ _____    ______ ____
ROOT
ATOM      1  C   UNL     1      -3.005   1.591   4.293  0.00  0.00    +0.092 C 
ATOM      2  C   UNL     1      -3.929   0.375   4.400  0.00  0.00    +0.016 C 
ATOM      3  C   UNL     1      -5.357   0.842   4.691  0.00  0.00    +0.020 C 
ATOM      4  C   UNL     1      -5.384   1.589   6.028  0.00  0.00    +0.106 C 
ATOM      5  N   UNL     1      -4.392   2.672   5.985  0.00  0.00    -0.315 N 
ATOM      6  C   UNL     1      -3.005   2.347   5.625  0.00  0.00    +0.119 C 
ATOM      7  C   UNL     1      -4.758   3.977   6.277  0.00  0.00    +0.110 A 
ATOM      8  C   UNL     1      -4.761   4.419   7.608  0.00  0.00    +0.060 A 
ATOM      9  C   UNL     1      -5.133   5.736   7.880  0.00  0.00    +0.016 A 
ATOM     10  C   UNL     1      -5.484   6.554   6.817  0.00  0.00    +0.018 A 
ATOM     11  C   UNL     1      -5.456   6.048   5.532  0.00  0.00    +0.084 A 
ATOM     12  N   UNL     1      -5.096   4.800   5.297  0.00  0.00    -0.349 N 
ATOM     13  H   UNL     1      -5.083   4.477   4.383  0.00  0.00    +0.167 HD
ENDROOT
BRANCH   8  14
ATOM     14  C   UNL     1      -4.378   3.502   8.708  0.00  0.00    +0.205 A 
ATOM     15  N   UNL     1      -4.450   3.778  10.022  0.00  0.00    -0.191 NA
ATOM     16  C   UNL     1      -4.037   2.757  10.717  0.00  0.00    +0.231 A 
ATOM     17  O   UNL     1      -3.682   1.782   9.869  0.00  0.00    -0.337 OA
ATOM     18  N   UNL     1      -3.916   2.283   8.562  0.00  0.00    -0.056 NA
BRANCH  16  19
ATOM     19  C   UNL     1      -3.970   2.684  12.220  0.00  0.00    +0.078 C 
ATOM     20  C   UNL     1      -2.741   1.922  12.745  0.00  0.00    +0.013 C 
ATOM     21  C   UNL     1      -3.672   1.311  13.806  0.00  0.00    +0.001 C 
ATOM     22  C   UNL     1      -4.827   1.558  12.822  0.00  0.00    +0.013 C 
ENDBRANCH  16  19
ENDBRANCH   8  14
BRANCH   1  24
ATOM     23  N   UNL     1      -1.364   0.440   2.843  0.00  0.00    -0.311 N 
ATOM     24  C   UNL     1      -1.606   1.132   3.974  0.00  0.00    +0.218 C 
ATOM     25  O   UNL     1      -0.697   1.385   4.736  0.00  0.00    -0.275 OA
ATOM     26  H   UNL     1      -2.091   0.238   2.234  0.00  0.00    +0.149 HD
BRANCH  23  27
ATOM     27  C   UNL     1      -0.004  -0.006   2.534  0.00  0.00    +0.139 C 
BRANCH  27  34
ATOM     28  C   UNL     1      -0.015   1.455   0.041  0.00  0.00    +0.044 C 
ATOM     29  C   UNL     1      -0.010  -0.052   0.031  0.00  0.00    -0.046 A 
ATOM     30  C   UNL     1      -0.006  -0.735  -1.171  0.00  0.00    +0.003 A 
ATOM     31  C   UNL     1      -0.002  -2.117  -1.180  0.00  0.00    +0.000 A 
ATOM     32  C   UNL     1      -0.002  -2.816   0.013  0.00  0.00    +0.000 A 
ATOM     33  C   UNL     1      -0.005  -2.133   1.214  0.00  0.00    +0.005 A 
ATOM     34  C   UNL     1      -0.005  -0.751   1.224  0.00  0.00    -0.027 A 
ENDBRANCH  27  34
ENDBRANCH  23  27
ENDBRANCH   1  24
TORSDOF 5
