REMARK  Name = ZINC35363830
REMARK  8 active torsions:
REMARK  status: ('A' for Active; 'I' for Inactive)
REMARK    1  A    between atoms: C_1  and  C_2
REMARK    2  A    between atoms: C_16  and  C_19
REMARK    3  A    between atoms: C_19  and  C_21
REMARK    4  A    between atoms: C_19  and  O_22
REMARK    5  A    between atoms: N_25  and  C_28
REMARK    6  A    between atoms: C_28  and  C_29
REMARK    7  A    between atoms: C_32  and  O_35
REMARK    8  A    between atoms: O_35  and  C_36
REMARK                            x       y       z     vdW  Elec       q    Type
REMARK                         _______ _______ _______ _____ _____    ______ ____
ROOT
ATOM      1  C   UNL     1      -0.018   1.503   0.010  0.00  0.00    +0.046 C 
ATOM      2  C   UNL     1       0.002  -0.004   0.002  0.00  0.00    -0.028 A 
ATOM      3  C   UNL     1       0.006  -0.685  -1.198  0.00  0.00    +0.025 A 
ATOM      4  C   UNL     1       0.024  -2.068  -1.216  0.00  0.00    +0.042 A 
ATOM      5  C   UNL     1       0.039  -2.772  -0.023  0.00  0.00    +0.027 A 
ATOM      6  C   UNL     1       0.035  -2.096   1.176  0.00  0.00    +0.005 A 
ATOM      7  C   UNL     1       0.023  -0.704   1.205  0.00  0.00    +0.042 A 
ATOM      8  N   UNL     1       0.031  -0.249   2.526  0.00  0.00    -0.283 N 
ATOM      9  C   UNL     1       0.053  -1.263   3.413  0.00  0.00    +0.243 C 
ATOM     10  O   UNL     1       0.065  -1.168   4.622  0.00  0.00    -0.273 OA
ATOM     11  C   UNL     1       0.046  -2.537   2.612  0.00  0.00    +0.136 C 
ATOM     12  C   UNL     1       1.279  -3.390   2.931  0.00  0.00    +0.123 C 
ATOM     13  C   UNL     1       0.771  -4.447   3.951  0.00  0.00    +0.109 C 
ATOM     14  C   UNL     1      -0.725  -4.121   4.147  0.00  0.00    +0.096 C 
ATOM     15  N   UNL     1      -1.122  -3.380   2.928  0.00  0.00    -0.293 NA
ATOM     16  C   UNL     1       1.536  -4.111   5.211  0.00  0.00    +0.228 C 
ATOM     17  O   UNL     1       1.441  -4.700   6.267  0.00  0.00    -0.275 OA
ATOM     18  N   UNL     1       2.334  -3.062   4.981  0.00  0.00    -0.237 N 
ATOM     19  C   UNL     1       2.276  -2.573   3.721  0.00  0.00    +0.229 C 
ATOM     20  O   UNL     1       2.912  -1.635   3.289  0.00  0.00    -0.275 OA
ATOM     21 CL   UNL     1       0.029  -2.919  -2.729  0.00  0.00    -0.084 Cl
ATOM     22  H   UNL     1       0.022   0.688   2.776  0.00  0.00    +0.155 HD
ATOM     23  H   UNL     1      -1.942  -2.815   3.094  0.00  0.00    +0.124 HD
ENDROOT
BRANCH  14  24
ATOM     24  C   UNL     1      -1.536  -5.409   4.297  0.00  0.00    +0.129 C 
ATOM     25  C   UNL     1      -3.026  -5.069   4.364  0.00  0.00    +0.039 C 
BRANCH  24  26
ATOM     26  O   UNL     1      -1.292  -6.259   3.174  0.00  0.00    -0.390 OA
ATOM     27  H   UNL     1      -1.534  -5.867   2.324  0.00  0.00    +0.210 HD
ENDBRANCH  24  26
ENDBRANCH  14  24
BRANCH  18  28
ATOM     28  C   UNL     1       3.208  -2.490   6.008  0.00  0.00    +0.151 C 
BRANCH  28  29
ATOM     29  C   UNL     1       4.550  -3.174   5.963  0.00  0.00    -0.029 A 
ATOM     30  C   UNL     1       4.773  -4.307   6.724  0.00  0.00    +0.009 A 
ATOM     31  C   UNL     1       6.003  -4.935   6.685  0.00  0.00    +0.046 A 
ATOM     32  C   UNL     1       7.014  -4.429   5.882  0.00  0.00    +0.120 A 
ATOM     33  C   UNL     1       6.788  -3.293   5.119  0.00  0.00    +0.046 A 
ATOM     34  C   UNL     1       5.555  -2.671   5.157  0.00  0.00    +0.009 A 
BRANCH  32  35
ATOM     35  O   UNL     1       8.225  -5.046   5.842  0.00  0.00    -0.495 OA
ATOM     36  C   UNL     1       9.219  -4.470   4.992  0.00  0.00    +0.277 C 
ENDBRANCH  32  35
ENDBRANCH  28  29
ENDBRANCH  18  28
TORSDOF 5
