REMARK  Name = ZINC20609465
REMARK  11 active torsions:
REMARK  status: ('A' for Active; 'I' for Inactive)
REMARK    1  A    between atoms: C_1  and  C_2
REMARK    2  A    between atoms: C_2  and  O_3
REMARK    3  A    between atoms: O_3  and  C_4
REMARK    4  A    between atoms: C_4  and  C_6
REMARK    5  A    between atoms: C_7  and  C_29
REMARK    6  A    between atoms: C_19  and  N_27
REMARK    7  A    between atoms: C_20  and  C_21
REMARK    8  A    between atoms: C_21  and  O_23
REMARK    9  A    between atoms: O_23  and  C_24
REMARK   10  A    between atoms: C_24  and  C_25
REMARK   11  A    between atoms: C_24  and  C_26
REMARK                            x       y       z     vdW  Elec       q    Type
REMARK                         _______ _______ _______ _____ _____    ______ ____
ROOT
ATOM      1  C   UNL     1      -3.243   4.581  -1.333  0.00  0.00    +0.100 C 
ATOM      2  C   UNL     1      -4.398   3.925  -1.131  0.00  0.00    +0.117 C 
ATOM      3  O   UNL     1      -4.581   3.584   0.151  0.00  0.00    -0.429 OA
ATOM      4  C   UNL     1      -3.567   3.976   0.941  0.00  0.00    +0.332 C 
ATOM      5  O   UNL     1      -3.461   3.806   2.132  0.00  0.00    -0.249 OA
ATOM      6  C   UNL     1      -2.583   4.675   0.026  0.00  0.00    +0.164 C 
ATOM      7  C   UNL     1      -1.273   3.943   0.018  0.00  0.00    +0.001 A 
ATOM      8  C   UNL     1      -1.262   2.560  -0.011  0.00  0.00    +0.022 A 
ATOM      9  C   UNL     1      -0.062   1.873  -0.017  0.00  0.00    +0.018 A 
ATOM     10  C   UNL     1       1.136   2.567  -0.004  0.00  0.00    +0.017 A 
ATOM     11  C   UNL     1       1.132   3.947   0.021  0.00  0.00    +0.024 A 
ATOM     12  C   UNL     1      -0.072   4.639   0.034  0.00  0.00    +0.037 A 
ATOM     13  N   UNL     1      -0.068   6.037   0.066  0.00  0.00    -0.302 N 
ATOM     14  C   UNL     1      -1.195   6.723   0.432  0.00  0.00    +0.097 C 
ATOM     15  C   UNL     1      -2.422   6.107   0.431  0.00  0.00    +0.098 C 
ATOM     16 BR   UNL     1      -0.057  -0.017  -0.049  0.00  0.00    -0.050 Br
ATOM     17  C   UNL     1      -5.381   3.607  -2.228  0.00  0.00    +0.087 C 
ATOM     18  H   UNL     1       0.843   6.590  -0.204  0.00  0.00    +0.153 HD
ENDROOT
BRANCH  14  19
ATOM     19  N   UNL     1      -1.097   8.038   0.804  0.00  0.00    -0.346 N 
ATOM     20  H   UNL     1      -1.999   8.595   1.099  0.00  0.00    +0.143 HD
ATOM     21  H   UNL     1      -0.117   8.537   0.807  0.00  0.00    +0.143 HD
ENDBRANCH  14  19
BRANCH   1  22
ATOM     22  C   UNL     1      -2.746   5.081  -2.562  0.00  0.00    +0.340 C 
ATOM     23  O   UNL     1      -3.389   4.931  -3.584  0.00  0.00    -0.245 OA
BRANCH  22  24
ATOM     24  O   UNL     1      -1.560   5.722  -2.599  0.00  0.00    -0.462 OA
BRANCH  24  26
ATOM     25  C   UNL     1       0.234   6.895  -3.716  0.00  0.00    +0.048 C 
ATOM     26  C   UNL     1      -1.120   6.200  -3.872  0.00  0.00    +0.229 C 
ENDBRANCH  24  26
ENDBRANCH  22  24
ENDBRANCH   1  22
BRANCH  15  27
ATOM     27  C   UNL     1      -3.552   6.838   0.819  0.00  0.00    +0.340 C 
ATOM     28  O   UNL     1      -4.305   7.289  -0.026  0.00  0.00    -0.245 OA
BRANCH  27  29
ATOM     29  O   UNL     1      -3.807   7.042   2.130  0.00  0.00    -0.459 OA
BRANCH  29  30
ATOM     30  C   UNL     1      -4.977   7.796   2.453  0.00  0.00    +0.171 C 
ATOM     31  C   UNL     1      -5.524   7.333   3.805  0.00  0.00    +0.052 C 
ATOM     32  C   UNL     1      -4.621   9.283   2.529  0.00  0.00    +0.052 C 
ENDBRANCH  29  30
ENDBRANCH  27  29
ENDBRANCH  15  27
TORSDOF 7
