REMARK  Name = ZINC13273905
REMARK  8 active torsions:
REMARK  status: ('A' for Active; 'I' for Inactive)
REMARK    1  A    between atoms: C_4  and  N_9
REMARK    2  A    between atoms: C_5  and  C_7
REMARK    3  A    between atoms: N_9  and  S_10
REMARK    4  A    between atoms: S_10  and  C_13
REMARK    5  A    between atoms: C_16  and  O_22
REMARK    6  A    between atoms: C_17  and  N_19
REMARK    7  A    between atoms: O_22  and  C_23
REMARK    8  A    between atoms: C_28  and  C_29
REMARK                            x       y       z     vdW  Elec       q    Type
REMARK                         _______ _______ _______ _____ _____    ______ ____
ROOT
ATOM      1  C   UNL     1      -1.272   6.095   0.206  0.00  0.00    +0.111 A 
ATOM      2  C   UNL     1      -0.191   5.271  -0.048  0.00  0.00    +0.032 A 
ATOM      3  C   UNL     1      -0.383   3.917  -0.241  0.00  0.00    +0.050 A 
ATOM      4  C   UNL     1      -1.663   3.384  -0.180  0.00  0.00    +0.159 A 
ATOM      5  C   UNL     1      -2.747   4.213   0.069  0.00  0.00    +0.170 A 
ATOM      6  C   UNL     1      -2.548   5.566   0.268  0.00  0.00    +0.065 A 
ENDROOT
BRANCH   1   7
ATOM      7  S   UNL     1      -1.024   7.822   0.453  0.00  0.00    +0.072 S 
ATOM      8  O   UNL     1      -2.130   8.287   1.214  0.00  0.00    -0.150 OA
ATOM      9  O   UNL     1       0.320   7.981   0.886  0.00  0.00    -0.150 OA
BRANCH   7  10
ATOM     10  N   UNL     1      -1.131   8.549  -1.032  0.00  0.00    -0.215 N 
ATOM     11  H   UNL     1      -0.376   9.045  -1.385  0.00  0.00    +0.174 HD
BRANCH  10  15
ATOM     12  C   UNL     1      -4.646   8.246  -3.248  0.00  0.00    +0.001 A 
ATOM     13  C   UNL     1      -4.697   8.337  -1.865  0.00  0.00    +0.002 A 
ATOM     14  C   UNL     1      -3.534   8.432  -1.128  0.00  0.00    +0.025 A 
ATOM     15  C   UNL     1      -2.302   8.448  -1.770  0.00  0.00    +0.062 A 
ATOM     16  C   UNL     1      -2.248   8.357  -3.171  0.00  0.00    +0.085 A 
ATOM     17  C   UNL     1      -3.435   8.256  -3.902  0.00  0.00    +0.017 A 
BRANCH  16  18
ATOM     18  C   UNL     1      -0.948   8.367  -3.864  0.00  0.00    +0.388 C 
ATOM     19  O   UNL     1       0.081   8.455  -3.224  0.00  0.00    -0.241 OA
ATOM     20  O   UNL     1      -0.901   8.279  -5.208  0.00  0.00    -0.241 OA
ENDBRANCH  16  18
ENDBRANCH  10  15
ENDBRANCH   7  10
ENDBRANCH   1   7
BRANCH   5  21
ATOM     21  N   UNL     1      -4.114   3.648   0.129  0.00  0.00    +0.060 N 
ATOM     22  O   UNL     1      -5.065   4.377   0.348  0.00  0.00    -0.126 OA
ATOM     23  O   UNL     1      -4.287   2.455  -0.041  0.00  0.00    -0.126 OA
ENDBRANCH   5  21
BRANCH   4  24
ATOM     24  O   UNL     1      -1.855   2.052  -0.370  0.00  0.00    -0.453 OA
BRANCH  24  25
ATOM     25  C   UNL     1      -0.759   1.263  -0.503  0.00  0.00    +0.143 A 
ATOM     26  C   UNL     1      -0.265   0.963  -1.764  0.00  0.00    +0.047 A 
ATOM     27  C   UNL     1       0.847   0.156  -1.897  0.00  0.00    +0.004 A 
ATOM     28  C   UNL     1       1.477  -0.360  -0.777  0.00  0.00    +0.001 A 
ATOM     29  C   UNL     1       1.000  -0.073   0.484  0.00  0.00    +0.019 A 
ATOM     30  C   UNL     1      -0.124   0.743   0.634  0.00  0.00    +0.105 A 
BRANCH  30  31
ATOM     31  C   UNL     1      -0.639   1.055   1.979  0.00  0.00    +0.390 C 
ATOM     32  O   UNL     1      -1.617   1.766   2.105  0.00  0.00    -0.240 OA
ATOM     33  O   UNL     1      -0.026   0.553   3.069  0.00  0.00    -0.240 OA
ENDBRANCH  30  31
ENDBRANCH  24  25
ENDBRANCH   4  24
TORSDOF 8
