REMARK  Name = ZINC02140256
REMARK  6 active torsions:
REMARK  status: ('A' for Active; 'I' for Inactive)
REMARK    1  A    between atoms: C_1  and  C_2
REMARK    2  A    between atoms: C_2  and  C_31
REMARK    3  A    between atoms: C_4  and  C_9
REMARK    4  A    between atoms: C_6  and  C_7
REMARK    5  A    between atoms: C_6  and  C_8
REMARK    6  A    between atoms: C_9  and  N_10
REMARK                            x       y       z     vdW  Elec       q    Type
REMARK                         _______ _______ _______ _____ _____    ______ ____
ROOT
ATOM      1  N   UNL     1      -0.826   0.109   3.216  0.00  0.00    -0.291 N 
ATOM      2  C   UNL     1      -2.211  -0.168   2.873  0.00  0.00    +0.203 C 
ATOM      3  C   UNL     1      -2.672   0.639   1.703  0.00  0.00    +0.234 C 
ATOM      4  O   UNL     1      -3.823   0.507   1.344  0.00  0.00    -0.274 OA
ATOM      5  N   UNL     1      -1.903   1.494   1.027  0.00  0.00    -0.283 N 
ATOM      6  C   UNL     1      -2.504   2.294  -0.062  0.00  0.00    +0.162 C 
ATOM      7  C   UNL     1      -1.556   2.242  -1.238  0.00  0.00    +0.038 A 
ATOM      8  C   UNL     1      -0.295   1.764  -1.159  0.00  0.00    -0.015 A 
ATOM      9  C   UNL     1       0.287   1.884  -2.481  0.00  0.00    +0.003 A 
ATOM     10  C   UNL     1       1.545   1.558  -2.995  0.00  0.00    +0.010 A 
ATOM     11  C   UNL     1       1.756   1.815  -4.327  0.00  0.00    +0.001 A 
ATOM     12  C   UNL     1       0.778   2.372  -5.134  0.00  0.00    +0.002 A 
ATOM     13  C   UNL     1      -0.476   2.704  -4.651  0.00  0.00    +0.026 A 
ATOM     14  C   UNL     1      -0.720   2.455  -3.302  0.00  0.00    +0.047 A 
ATOM     15  N   UNL     1      -1.819   2.656  -2.517  0.00  0.00    -0.356 N 
ATOM     16  H   UNL     1      -2.658   3.036  -2.820  0.00  0.00    +0.166 HD
ATOM     17  C   UNL     1       0.339   1.218   0.094  0.00  0.00    +0.069 C 
ATOM     18  C   UNL     1      -0.477   1.684   1.309  0.00  0.00    +0.167 C 
ATOM     19  C   UNL     1      -0.043   0.935   2.525  0.00  0.00    +0.237 C 
ATOM     20  O   UNL     1       1.097   1.091   2.908  0.00  0.00    -0.274 OA
ENDROOT
BRANCH   1  21
ATOM     21  C   UNL     1      -0.258  -0.560   4.389  0.00  0.00    +0.111 C 
BRANCH  21  25
ATOM     22  C   UNL     1       0.884  -3.881   1.685  0.00  0.00    -0.010 C 
ATOM     23  C   UNL     1       1.901  -3.205   2.604  0.00  0.00    -0.073 C 
ATOM     24  C   UNL     1       1.401  -1.818   3.011  0.00  0.00    -0.008 C 
ATOM     25  C   UNL     1       0.235  -1.957   3.992  0.00  0.00    +0.004 C 
ATOM     26  C   UNL     1       0.732  -2.688   5.238  0.00  0.00    -0.008 C 
ATOM     27  C   UNL     1       1.283  -4.064   4.874  0.00  0.00    -0.073 C 
ATOM     28  C   UNL     1       0.126  -5.030   4.603  0.00  0.00    -0.010 C 
ATOM     29  C   UNL     1       2.042  -4.599   6.111  0.00  0.00    -0.010 C 
ATOM     30  C   UNL     1       3.201  -3.008   1.792  0.00  0.00    -0.010 C 
ATOM     31  N   UNL     1       2.275  -4.059   3.765  0.00  0.00    +0.386 N 
ATOM     32  H   UNL     1       3.170  -3.720   4.138  0.00  0.00    -0.084 HD
ATOM     33  H   UNL     1       2.386  -5.023   3.431  0.00  0.00    -0.084 HD
ENDBRANCH  21  25
ENDBRANCH   1  21
TORSDOF 2
