REMARK  Name = ZINC18197847
REMARK  2 active torsions:
REMARK  status: ('A' for Active; 'I' for Inactive)
REMARK    1  A    between atoms: C_1  and  C_2
REMARK    2  A    between atoms: C_7  and  C_12
REMARK                            x       y       z     vdW  Elec       q    Type
REMARK                         _______ _______ _______ _____ _____    ______ ____
ROOT
ATOM      1  C   UNL     1      -4.831   5.737   1.097  0.00  0.00    +0.038 C 
ATOM      2  C   UNL     1      -5.057   4.630   0.065  0.00  0.00    +0.142 C 
ATOM      3  C   UNL     1      -3.789   3.817  -0.084  0.00  0.00    +0.036 C 
ATOM      4  C   UNL     1      -3.294   3.476  -1.292  0.00  0.00    +0.020 C 
ATOM      5  C   UNL     1      -2.044   2.636  -1.408  0.00  0.00    +0.060 C 
ATOM      6  C   UNL     1      -1.116   2.929  -0.228  0.00  0.00    +0.039 C 
ATOM      7  C   UNL     1      -1.871   2.617   1.069  0.00  0.00    +0.088 C 
ATOM      8  C   UNL     1      -3.142   3.420   1.100  0.00  0.00    +0.163 C 
ATOM      9  O   UNL     1      -3.620   3.733   2.172  0.00  0.00    -0.292 OA
ATOM     10  N   UNL     1      -3.900   3.869  -2.462  0.00  0.00    -0.287 N 
ATOM     11  C   UNL     1      -4.868   4.857  -2.394  0.00  0.00    +0.220 A 
ATOM     12  N   UNL     1      -5.418   5.230  -1.213  0.00  0.00    -0.224 N 
ATOM     13  N   UNL     1      -6.336   6.239  -1.501  0.00  0.00    -0.132 NA
ATOM     14  C   UNL     1      -6.303   6.421  -2.803  0.00  0.00    +0.233 A 
ATOM     15  N   UNL     1      -5.410   5.577  -3.339  0.00  0.00    -0.180 NA
ATOM     16  N   UNL     1      -7.073   7.343  -3.513  0.00  0.00    -0.326 N 
ATOM     17  H   UNL     1      -3.656   3.466  -3.310  0.00  0.00    +0.155 HD
ATOM     18  H   UNL     1      -7.697   7.918  -3.042  0.00  0.00    +0.145 HD
ATOM     19  H   UNL     1      -6.984   7.410  -4.476  0.00  0.00    +0.145 HD
ENDROOT
BRANCH   6  20
ATOM     20  C   UNL     1       0.113   2.063  -0.320  0.00  0.00    -0.006 A 
ATOM     21  C   UNL     1       1.414   2.434  -0.405  0.00  0.00    +0.011 A 
ATOM     22  C   UNL     1       2.386   1.455  -0.486  0.00  0.00    +0.008 A 
ATOM     23  C   UNL     1       2.010   0.153  -0.480  0.00  0.00    +0.045 A 
ATOM     24  S   UNL     1       0.234   0.282  -0.356  0.00  0.00    -0.101 S 
ENDBRANCH   6  20
TORSDOF 1
