REMARK  Name = ZINC36709257
REMARK  10 active torsions:
REMARK  status: ('A' for Active; 'I' for Inactive)
REMARK    1  A    between atoms: C_1  and  C_2
REMARK    2  A    between atoms: C_5  and  N_9
REMARK    3  A    between atoms: C_6  and  C_8
REMARK    4  A    between atoms: C_10  and  C_12
REMARK    5  A    between atoms: C_12  and  N_13
REMARK    6  A    between atoms: C_16  and  C_19
REMARK    7  A    between atoms: N_21  and  C_22
REMARK    8  A    between atoms: C_22  and  C_23
REMARK    9  A    between atoms: C_23  and  N_24
REMARK   10  A    between atoms: C_29  and  C_31
REMARK                            x       y       z     vdW  Elec       q    Type
REMARK                         _______ _______ _______ _____ _____    ______ ____
ROOT
ATOM      1  N   UNL     1      -0.232  -6.827  -2.571  0.00  0.00    +0.385 N 
ATOM      2  C   UNL     1       1.007  -6.506  -3.289  0.00  0.00    -0.077 C 
ATOM      3  C   UNL     1       0.879  -6.936  -4.752  0.00  0.00    -0.006 C 
ATOM      4  C   UNL     1       0.626  -8.445  -4.814  0.00  0.00    +0.071 C 
ATOM      5  C   UNL     1      -0.627  -8.777  -4.000  0.00  0.00    -0.006 C 
ATOM      6  C   UNL     1      -0.443  -8.280  -2.565  0.00  0.00    -0.077 C 
ATOM      7  H   UNL     1      -1.010  -6.377  -3.029  0.00  0.00    -0.081 HD
ENDROOT
BRANCH   4   8
ATOM      8  C   UNL     1       0.422  -8.863  -6.248  0.00  0.00    +0.216 C 
ATOM      9  O   UNL     1       0.472  -8.036  -7.133  0.00  0.00    -0.276 OA
ATOM     10  N   UNL     1       0.182 -10.155  -6.546  0.00  0.00    -0.313 N 
ATOM     11  H   UNL     1       0.141 -10.817  -5.838  0.00  0.00    +0.149 HD
BRANCH  10  12
ATOM     12  C   UNL     1      -0.017 -10.561  -7.939  0.00  0.00    +0.127 C 
BRANCH  12  13
ATOM     13  C   UNL     1      -0.270 -12.069  -8.000  0.00  0.00    +0.166 C 
BRANCH  13  14
ATOM     14  N   UNL     1      -0.469 -12.475  -9.394  0.00  0.00    -0.227 N 
ATOM     15  C   UNL     1       0.597 -12.850 -10.125  0.00  0.00    +0.267 A 
ATOM     16  O   UNL     1       1.712 -12.851  -9.630  0.00  0.00    -0.266 OA
ATOM     17  C   UNL     1       0.416 -13.243 -11.470  0.00  0.00    +0.074 A 
ATOM     18  C   UNL     1      -0.849 -13.225 -11.976  0.00  0.00    +0.038 A 
ATOM     19  C   UNL     1      -1.905 -12.814 -11.126  0.00  0.00    +0.126 A 
ATOM     20  N   UNL     1      -1.656 -12.467  -9.883  0.00  0.00    -0.165 NA
BRANCH  19  21
ATOM     21  C   UNL     1      -3.291 -12.780 -11.636  0.00  0.00    +0.155 A 
ATOM     22  C   UNL     1      -4.391 -12.402 -10.932  0.00  0.00    +0.051 A 
ATOM     23  C   UNL     1      -5.492 -12.523 -11.805  0.00  0.00    +0.042 A 
ATOM     24  C   UNL     1      -5.013 -12.963 -12.985  0.00  0.00    +0.196 A 
ATOM     25  O   UNL     1      -3.683 -13.111 -12.882  0.00  0.00    -0.461 OA
ENDBRANCH  19  21
ENDBRANCH  13  14
ENDBRANCH  12  13
ENDBRANCH  10  12
ENDBRANCH   4   8
BRANCH   1  26
ATOM     26  C   UNL     1      -0.134  -6.343  -1.187  0.00  0.00    +0.019 C 
BRANCH  26  28
ATOM     27  N   UNL     1       0.059  -4.170  -0.021  0.00  0.00    -0.287 N 
ATOM     28  C   UNL     1      -0.040  -4.839  -1.187  0.00  0.00    +0.201 C 
ATOM     29  O   UNL     1      -0.054  -4.230  -2.236  0.00  0.00    -0.278 OA
ATOM     30  H   UNL     1       0.135  -4.658   0.814  0.00  0.00    +0.155 HD
BRANCH  27  35
ATOM     31  C   UNL     1       0.025   1.503   0.005  0.00  0.00    +0.044 C 
ATOM     32  C   UNL     1       0.034  -0.004  -0.002  0.00  0.00    -0.050 A 
ATOM     33  C   UNL     1       0.632  -0.685  -1.046  0.00  0.00    +0.005 A 
ATOM     34  C   UNL     1       0.641  -2.066  -1.055  0.00  0.00    +0.024 A 
ATOM     35  C   UNL     1       0.051  -2.771  -0.014  0.00  0.00    +0.036 A 
ATOM     36  C   UNL     1      -0.548  -2.083   1.033  0.00  0.00    -0.029 A 
ATOM     37  C   UNL     1      -0.550  -0.702   1.039  0.00  0.00    +0.008 A 
ATOM     38  C   UNL     1      -1.190  -2.843   2.165  0.00  0.00    +0.045 C 
ENDBRANCH  27  35
ENDBRANCH  26  28
ENDBRANCH   1  26
TORSDOF 8
