REMARK  Name = ZINC09548967
REMARK  12 active torsions:
REMARK  status: ('A' for Active; 'I' for Inactive)
REMARK    1  A    between atoms: C_1  and  C_2
REMARK    2  A    between atoms: C_6  and  C_33
REMARK    3  A    between atoms: C_7  and  N_8
REMARK    4  A    between atoms: C_9  and  S_13
REMARK    5  A    between atoms: S_13  and  C_14
REMARK    6  A    between atoms: C_14  and  C_15
REMARK    7  A    between atoms: N_17  and  C_18
REMARK    8  A    between atoms: C_19  and  C_31
REMARK    9  A    between atoms: C_20  and  C_30
REMARK   10  A    between atoms: C_21  and  C_29
REMARK   11  A    between atoms: N_22  and  C_23
REMARK   12  A    between atoms: C_23  and  C_24
REMARK                            x       y       z     vdW  Elec       q    Type
REMARK                         _______ _______ _______ _____ _____    ______ ____
ROOT
ATOM      1  C   UNL     1      -7.056   4.645   1.085  0.00  0.00    +0.229 C 
ATOM      2  O   UNL     1      -6.759   5.718   1.565  0.00  0.00    -0.275 OA
ATOM      3  N   UNL     1      -8.131   4.542   0.278  0.00  0.00    -0.270 N 
ATOM      4  H   UNL     1      -8.341   3.695  -0.144  0.00  0.00    +0.156 HD
ENDROOT
BRANCH   3   5
ATOM      5  C   UNL     1      -8.935   5.649   0.050  0.00  0.00    +0.124 A 
ATOM      6  C   UNL     1      -8.562   6.806  -0.620  0.00  0.00    +0.095 A 
ATOM      7  C   UNL     1      -9.742   7.679  -0.607  0.00  0.00    -0.011 A 
ATOM      8  C   UNL     1     -10.708   7.012   0.045  0.00  0.00    +0.022 A 
ATOM      9  N   UNL     1     -10.229   5.790   0.436  0.00  0.00    -0.324 N 
ATOM     10  C   UNL     1     -12.102   7.524   0.301  0.00  0.00    +0.064 C 
ATOM     11  C   UNL     1      -9.849   9.057  -1.207  0.00  0.00    +0.047 C 
BRANCH   6  12
ATOM     12  C   UNL     1      -7.285   7.091  -1.203  0.00  0.00    +0.103 C 
ATOM     13  N   UNL     1      -6.273   7.317  -1.666  0.00  0.00    -0.191 NA
ENDBRANCH   6  12
BRANCH   9  14
ATOM     14  C   UNL     1     -11.000   4.782   1.169  0.00  0.00    +0.197 C 
BRANCH  14  15
ATOM     15  C   UNL     1     -10.733   4.920   2.645  0.00  0.00    +0.124 A 
ATOM     16  C   UNL     1     -11.424   5.696   3.500  0.00  0.00    +0.046 A 
ATOM     17  C   UNL     1     -10.840   5.521   4.776  0.00  0.00    +0.041 A 
ATOM     18  C   UNL     1      -9.822   4.655   4.622  0.00  0.00    +0.195 A 
ATOM     19  O   UNL     1      -9.762   4.295   3.330  0.00  0.00    -0.466 OA
ENDBRANCH  14  15
ENDBRANCH   9  14
ENDBRANCH   3   5
BRANCH   1  20
ATOM     20  C   UNL     1      -6.225   3.426   1.392  0.00  0.00    +0.173 C 
BRANCH  20  21
ATOM     21  S   UNL     1      -4.865   3.885   2.495  0.00  0.00    -0.075 S 
BRANCH  21  23
ATOM     22  N   UNL     1      -2.971   2.051   3.425  0.00  0.00    -0.187 N 
ATOM     23  C   UNL     1      -4.081   2.318   2.682  0.00  0.00    +0.214 A 
ATOM     24  N   UNL     1      -4.454   1.185   2.128  0.00  0.00    -0.101 NA
ATOM     25  N   UNL     1      -3.667   0.232   2.477  0.00  0.00    -0.022 NA
ATOM     26  N   UNL     1      -2.743   0.673   3.260  0.00  0.00    -0.038 NA
BRANCH  22  33
ATOM     27  C   UNL     1      -0.326   2.669   2.574  0.00  0.00    +0.046 C 
ATOM     28  C   UNL     1      -0.926   3.281   3.812  0.00  0.00    -0.025 A 
ATOM     29  C   UNL     1      -0.192   4.175   4.568  0.00  0.00    +0.005 A 
ATOM     30  C   UNL     1      -0.743   4.738   5.704  0.00  0.00    +0.001 A 
ATOM     31  C   UNL     1      -2.030   4.409   6.088  0.00  0.00    +0.005 A 
ATOM     32  C   UNL     1      -2.769   3.516   5.337  0.00  0.00    -0.025 A 
ATOM     33  C   UNL     1      -2.221   2.953   4.192  0.00  0.00    +0.076 A 
ATOM     34  C   UNL     1      -4.172   3.159   5.755  0.00  0.00    +0.046 C 
ENDBRANCH  22  33
ENDBRANCH  21  23
ENDBRANCH  20  21
ENDBRANCH   1  20
TORSDOF 8
