REMARK  Name = ZINC14545183
REMARK  9 active torsions:
REMARK  status: ('A' for Active; 'I' for Inactive)
REMARK    1  A    between atoms: C_1  and  C_2
REMARK    2  A    between atoms: C_2  and  N_64
REMARK    3  A    between atoms: C_3  and  C_4
REMARK    4  A    between atoms: C_3  and  N_64
REMARK    5  A    between atoms: C_5  and  C_6
REMARK    6  A    between atoms: C_5  and  N_64
REMARK    7  A    between atoms: C_6  and  N_7
REMARK    8  A    between atoms: C_8  and  C_10
REMARK    9  A    between atoms: C_23  and  C_26
REMARK                            x       y       z     vdW  Elec       q    Type
REMARK                         _______ _______ _______ _____ _____    ______ ____
ROOT
ATOM      1  C   UNL     1      -1.462   1.322  -1.741  0.00  0.00    +0.037 A 
ATOM      2  C   UNL     1      -1.416   2.714  -1.857  0.00  0.00    +0.015 A 
ATOM      3  C   UNL     1      -0.244   3.325  -2.238  0.00  0.00    +0.024 A 
ATOM      4  C   UNL     1       0.890   2.562  -2.503  0.00  0.00    +0.031 A 
ATOM      5  C   UNL     1       0.857   1.178  -2.385  0.00  0.00    -0.019 A 
ATOM      6  C   UNL     1      -0.321   0.562  -2.002  0.00  0.00    +0.019 A 
ATOM      7  C   UNL     1       2.054   0.322  -2.659  0.00  0.00    +0.049 C 
ATOM      8  C   UNL     1       2.671  -0.184  -1.377  0.00  0.00    -0.023 C 
ATOM      9  C   UNL     1       3.977  -0.224  -1.486  0.00  0.00    -0.030 C 
ATOM     10  C   UNL     1       4.409   0.246  -2.862  0.00  0.00    +0.033 C 
ATOM     11  C   UNL     1       3.197   1.092  -3.350  0.00  0.00    +0.029 C 
ATOM     12  C   UNL     1       3.335   2.486  -2.732  0.00  0.00    +0.107 C 
ATOM     13  N   UNL     1       2.066   3.204  -2.887  0.00  0.00    -0.336 N 
ATOM     14  H   UNL     1       2.045   4.104  -3.248  0.00  0.00    +0.147 HD
ENDROOT
BRANCH  12  15
ATOM     15  C   UNL     1       3.667   2.358  -1.268  0.00  0.00    -0.002 A 
ATOM     16  C   UNL     1       2.797   2.382  -0.247  0.00  0.00    +0.089 A 
ATOM     17  N   UNL     1       3.464   2.237   0.939  0.00  0.00    -0.360 N 
ATOM     18  H   UNL     1       3.048   2.224   1.815  0.00  0.00    +0.165 HD
ATOM     19  C   UNL     1       4.815   2.113   0.704  0.00  0.00    +0.047 A 
ATOM     20  C   UNL     1       5.001   2.177  -0.690  0.00  0.00    +0.005 A 
ATOM     21  C   UNL     1       6.287   2.084  -1.226  0.00  0.00    +0.010 A 
ATOM     22  C   UNL     1       7.358   1.919  -0.394  0.00  0.00    +0.001 A 
ATOM     23  C   UNL     1       7.179   1.849   0.981  0.00  0.00    +0.002 A 
ATOM     24  C   UNL     1       5.920   1.945   1.532  0.00  0.00    +0.026 A 
ENDBRANCH  12  15
BRANCH   1  26
ATOM     25  N   UNL     1      -3.817   1.389  -1.086  0.00  0.00    -0.313 N 
ATOM     26  C   UNL     1      -2.715   0.655  -1.339  0.00  0.00    +0.244 C 
ATOM     27  O   UNL     1      -2.754  -0.555  -1.235  0.00  0.00    -0.270 OA
ATOM     28  H   UNL     1      -3.787   2.355  -1.169  0.00  0.00    +0.149 HD
BRANCH  25  29
ATOM     29  C   UNL     1      -5.062   0.727  -0.686  0.00  0.00    +0.086 C 
BRANCH  29  30
ATOM     30  C   UNL     1      -6.150   1.780  -0.462  0.00  0.00    -0.060 C 
BRANCH  30  31
ATOM     31  N   UNL     1      -7.403   1.096  -0.081  0.00  0.00    +0.380 N 
ATOM     32  H   UNL     1      -7.605   0.361  -0.769  0.00  0.00    -0.082 HD
BRANCH  31  34
ATOM     33  C   UNL     1      -6.927   1.538   2.305  0.00  0.00    -0.017 C 
ATOM     34  C   UNL     1      -7.255   0.476   1.253  0.00  0.00    -0.082 C 
ENDBRANCH  31  34
BRANCH  31  35
ATOM     35  C   UNL     1      -8.522   2.062  -0.067  0.00  0.00    -0.082 C 
ATOM     36  C   UNL     1      -9.840   1.287  -0.034  0.00  0.00    -0.017 C 
ENDBRANCH  31  35
ENDBRANCH  30  31
ENDBRANCH  29  30
ENDBRANCH  25  29
ENDBRANCH   1  26
TORSDOF 7
