REMARK  Name = ZINC63024917
REMARK  5 active torsions:
REMARK  status: ('A' for Active; 'I' for Inactive)
REMARK    1  A    between atoms: C_1  and  C_2
REMARK    2  A    between atoms: C_2  and  C_4
REMARK    3  A    between atoms: C_2  and  N_15
REMARK    4  A    between atoms: C_4  and  C_5
REMARK    5  A    between atoms: C_8  and  N_12
REMARK                            x       y       z     vdW  Elec       q    Type
REMARK                         _______ _______ _______ _____ _____    ______ ____
ROOT
ATOM      1  C   UNL     1       0.657  -2.014   1.298  0.00  0.00    -0.035 A 
ATOM      2  C   UNL     1      -0.337  -2.623   2.041  0.00  0.00    +0.007 A 
ATOM      3  C   UNL     1      -0.416  -4.002   2.093  0.00  0.00    +0.033 A 
ATOM      4  C   UNL     1       0.499  -4.773   1.400  0.00  0.00    +0.127 A 
ATOM      5  C   UNL     1       1.493  -4.166   0.657  0.00  0.00    +0.048 A 
ATOM      6  C   UNL     1       1.569  -2.785   0.601  0.00  0.00    +0.023 A 
ATOM      7 BR   UNL     1       2.924  -1.954  -0.422  0.00  0.00    -0.050 Br
ENDROOT
BRANCH   4   8
ATOM      8  N   UNL     1       0.415  -6.250   1.456  0.00  0.00    +0.056 N 
ATOM      9  O   UNL     1      -0.454  -6.782   2.107  0.00  0.00    -0.126 OA
ATOM     10  O   UNL     1       1.215  -6.925   0.851  0.00  0.00    -0.126 OA
ENDBRANCH   4   8
BRANCH   1  11
ATOM     11  C   UNL     1       0.742  -0.511   1.242  0.00  0.00    +0.020 C 
BRANCH  11  13
ATOM     12  C   UNL     1      -0.019   1.526   0.010  0.00  0.00    -0.014 C 
ATOM     13  C   UNL     1       0.002  -0.004   0.002  0.00  0.00    -0.074 C 
BRANCH  13  14
ATOM     14  N   UNL     1       0.690  -0.478  -1.207  0.00  0.00    +0.380 N 
ATOM     15  H   UNL     1       1.636  -0.129  -1.214  0.00  0.00    -0.090 HD
ATOM     16  H   UNL     1       0.703  -1.487  -1.212  0.00  0.00    -0.090 HD
ATOM     17  H   UNL     1       0.202  -0.144  -2.024  0.00  0.00    -0.090 HD
ENDBRANCH  13  14
ENDBRANCH  11  13
ENDBRANCH   1  11
TORSDOF 4
