REMARK  Name = ZINC16011848
REMARK  4 active torsions:
REMARK  status: ('A' for Active; 'I' for Inactive)
REMARK    1  A    between atoms: C_12  and  C_15
REMARK    2  A    between atoms: C_15  and  C_16
REMARK    3  A    between atoms: N_21  and  C_24
REMARK    4  A    between atoms: C_26  and  C_31
REMARK                            x       y       z     vdW  Elec       q    Type
REMARK                         _______ _______ _______ _____ _____    ______ ____
ROOT
ATOM      1  C   UNL     1      -0.017   1.379   0.010  0.00  0.00    +0.000 A 
ATOM      2  C   UNL     1       1.173   2.084   0.002  0.00  0.00    +0.002 A 
ATOM      3  C   UNL     1       2.379   1.414  -0.012  0.00  0.00    +0.023 A 
ATOM      4  C   UNL     1       2.407   0.021  -0.019  0.00  0.00    +0.039 A 
ATOM      5  C   UNL     1       1.203  -0.677  -0.012  0.00  0.00    +0.003 A 
ATOM      6  C   UNL     1       0.002  -0.004   0.002  0.00  0.00    +0.008 A 
ATOM      7  C   UNL     1       1.573  -2.133  -0.023  0.00  0.00    +0.136 C 
ATOM      8  C   UNL     1       1.010  -2.865   1.202  0.00  0.00    +0.123 C 
ATOM      9  C   UNL     1      -0.285  -3.552   0.684  0.00  0.00    +0.108 C 
ATOM     10  C   UNL     1      -0.388  -3.139  -0.799  0.00  0.00    +0.076 C 
ATOM     11  N   UNL     1       1.016  -2.825  -1.200  0.00  0.00    -0.295 NA
ATOM     12  C   UNL     1       0.035  -5.025   0.787  0.00  0.00    +0.232 C 
ATOM     13  O   UNL     1      -0.709  -5.928   0.470  0.00  0.00    -0.274 OA
ATOM     14  N   UNL     1       1.269  -5.178   1.282  0.00  0.00    -0.208 N 
ATOM     15  C   UNL     1       1.914  -4.022   1.563  0.00  0.00    +0.233 C 
ATOM     16  O   UNL     1       3.030  -3.920   2.025  0.00  0.00    -0.274 OA
ATOM     17  C   UNL     1       3.077  -2.155  -0.034  0.00  0.00    +0.243 C 
ATOM     18  O   UNL     1       3.787  -3.138  -0.042  0.00  0.00    -0.273 OA
ATOM     19  N   UNL     1       3.482  -0.870  -0.034  0.00  0.00    -0.283 N 
ATOM     20  H   UNL     1       1.030  -2.226  -2.011  0.00  0.00    +0.124 HD
ATOM     21  H   UNL     1       4.413  -0.596  -0.042  0.00  0.00    +0.155 HD
ENDROOT
BRANCH  14  22
ATOM     22  C   UNL     1       1.849  -6.436   1.499  0.00  0.00    +0.063 A 
ATOM     23  C   UNL     1       2.590  -7.043   0.495  0.00  0.00    +0.037 A 
ATOM     24  C   UNL     1       3.160  -8.283   0.712  0.00  0.00    +0.057 A 
ATOM     25  C   UNL     1       2.992  -8.920   1.927  0.00  0.00    +0.014 A 
ATOM     26  C   UNL     1       2.255  -8.319   2.930  0.00  0.00    +0.022 A 
ATOM     27  C   UNL     1       1.687  -7.075   2.722  0.00  0.00    +0.063 A 
ATOM     28 CL   UNL     1       0.767  -6.317   3.984  0.00  0.00    -0.082 Cl
BRANCH  24  29
ATOM     29  C   UNL     1       3.965  -8.942  -0.379  0.00  0.00    +0.417 C 
ATOM     30  F   UNL     1       5.307  -8.564  -0.261  0.00  0.00    -0.166 F 
ATOM     31  F   UNL     1       3.860 -10.332  -0.261  0.00  0.00    -0.166 F 
ATOM     32  F   UNL     1       3.475  -8.541  -1.627  0.00  0.00    -0.166 F 
ENDBRANCH  24  29
ENDBRANCH  14  22
BRANCH  10  33
ATOM     33  C   UNL     1      -0.920  -4.301  -1.639  0.00  0.00    +0.115 C 
BRANCH  33  34
ATOM     34  C   UNL     1      -1.129  -3.841  -3.059  0.00  0.00    +0.212 C 
ATOM     35  O   UNL     1      -0.876  -2.696  -3.368  0.00  0.00    -0.276 OA
ATOM     36  N   UNL     1      -1.595  -4.702  -3.985  0.00  0.00    -0.329 N 
ATOM     37  H   UNL     1      -1.797  -5.618  -3.738  0.00  0.00    +0.145 HD
ATOM     38  H   UNL     1      -1.729  -4.406  -4.899  0.00  0.00    +0.145 HD
ENDBRANCH  33  34
ENDBRANCH  10  33
TORSDOF 4
