REMARK  Name = ZINC12768712
REMARK  8 active torsions:
REMARK  status: ('A' for Active; 'I' for Inactive)
REMARK    1  A    between atoms: C_1  and  C_2
REMARK    2  A    between atoms: C_7  and  S_31
REMARK    3  A    between atoms: C_12  and  C_14
REMARK    4  A    between atoms: C_14  and  O_15
REMARK    5  A    between atoms: O_15  and  C_16
REMARK    6  A    between atoms: C_16  and  C_18
REMARK    7  A    between atoms: C_18  and  C_24
REMARK    8  A    between atoms: S_31  and  N_34
REMARK                            x       y       z     vdW  Elec       q    Type
REMARK                         _______ _______ _______ _____ _____    ______ ____
ROOT
ATOM      1  C   UNL     1      -2.163   7.444  -5.926  0.00  0.00    +0.029 C 
ATOM      2  C   UNL     1      -2.847   7.799  -4.604  0.00  0.00    +0.083 C 
ATOM      3  C   UNL     1      -2.702   9.302  -4.315  0.00  0.00    +0.059 C 
ATOM      4  C   UNL     1      -1.935   9.367  -3.014  0.00  0.00    -0.022 A 
ATOM      5  C   UNL     1      -1.511  10.448  -2.264  0.00  0.00    +0.034 A 
ATOM      6  C   UNL     1      -0.814  10.247  -1.088  0.00  0.00    +0.105 A 
ATOM      7  C   UNL     1      -0.540   8.960  -0.662  0.00  0.00    +0.030 A 
ATOM      8  C   UNL     1      -0.961   7.878  -1.406  0.00  0.00    +0.026 A 
ATOM      9  C   UNL     1      -1.672   8.073  -2.592  0.00  0.00    +0.040 A 
ATOM     10  N   UNL     1      -2.177   7.127  -3.488  0.00  0.00    -0.265 N 
ATOM     11  C   UNL     1      -2.070   5.791  -3.343  0.00  0.00    +0.258 C 
ATOM     12  O   UNL     1      -2.548   5.050  -4.176  0.00  0.00    -0.272 OA
ENDROOT
BRANCH   6  13
ATOM     13  S   UNL     1      -0.274  11.627  -0.134  0.00  0.00    +0.056 S 
ATOM     14  O   UNL     1       0.830  11.178   0.640  0.00  0.00    -0.153 OA
ATOM     15  O   UNL     1      -0.181  12.727  -1.028  0.00  0.00    -0.153 OA
BRANCH  13  16
ATOM     16  N   UNL     1      -1.487  11.986   0.935  0.00  0.00    -0.204 NA
ATOM     17  H   UNL     1      -2.301  11.460   0.940  0.00  0.00    +0.144 HD
ATOM     18  H   UNL     1      -1.383  12.724   1.556  0.00  0.00    +0.144 HD
ENDBRANCH  13  16
ENDBRANCH   6  13
BRANCH  11  19
ATOM     19  C   UNL     1      -1.354   5.218  -2.147  0.00  0.00    +0.328 C 
BRANCH  19  20
ATOM     20  O   UNL     1      -1.373   3.768  -2.221  0.00  0.00    -0.455 OA
BRANCH  20  21
ATOM     21  C   UNL     1      -0.773   3.099  -1.223  0.00  0.00    +0.318 C 
ATOM     22  O   UNL     1      -0.250   3.706  -0.319  0.00  0.00    -0.250 OA
BRANCH  21  23
ATOM     23  C   UNL     1      -0.753   1.593  -1.232  0.00  0.00    +0.093 C 
ATOM     24  C   UNL     1      -0.013   1.086   0.008  0.00  0.00    +0.023 C 
ATOM     25  C   UNL     1      -0.729   1.579   1.267  0.00  0.00    +0.001 C 
ATOM     26  C   UNL     1      -2.164   1.050   1.278  0.00  0.00    +0.000 C 
ATOM     27  C   UNL     1      -2.904   1.556   0.038  0.00  0.00    +0.001 C 
ATOM     28  C   UNL     1      -2.188   1.063  -1.221  0.00  0.00    +0.023 C 
BRANCH  23  29
ATOM     29  C   UNL     1      -0.047   1.107  -2.471  0.00  0.00    -0.029 A 
ATOM     30  C   UNL     1       1.092   0.331  -2.359  0.00  0.00    +0.005 A 
ATOM     31  C   UNL     1       1.737  -0.119  -3.496  0.00  0.00    +0.002 A 
ATOM     32  C   UNL     1       1.249   0.215  -4.746  0.00  0.00    +0.020 A 
ATOM     33  C   UNL     1       0.112   0.995  -4.858  0.00  0.00    +0.041 A 
ATOM     34  C   UNL     1      -0.536   1.441  -3.720  0.00  0.00    +0.024 A 
ATOM     35 CL   UNL     1      -0.501   1.415  -6.427  0.00  0.00    -0.084 Cl
ENDBRANCH  23  29
ENDBRANCH  21  23
ENDBRANCH  20  21
ENDBRANCH  19  20
ENDBRANCH  11  19
TORSDOF 7
