REMARK  Name = ZINC64636571
REMARK  7 active torsions:
REMARK  status: ('A' for Active; 'I' for Inactive)
REMARK    1  A    between atoms: C_1  and  C_2
REMARK    2  A    between atoms: C_5  and  C_7
REMARK    3  A    between atoms: C_11  and  C_13
REMARK    4  A    between atoms: C_13  and  C_14
REMARK    5  A    between atoms: C_14  and  C_15
REMARK    6  A    between atoms: N_17  and  C_18
REMARK    7  A    between atoms: C_18  and  C_19
REMARK                            x       y       z     vdW  Elec       q    Type
REMARK                         _______ _______ _______ _____ _____    ______ ____
ROOT
ATOM      1  C   UNL     1       5.456  -5.979   3.651  0.00  0.00    +0.214 C 
ATOM      2  O   UNL     1       4.801  -6.160   4.655  0.00  0.00    -0.276 OA
ATOM      3  N   UNL     1       6.781  -6.225   3.658  0.00  0.00    -0.312 N 
ATOM      4  H   UNL     1       7.305  -6.080   2.854  0.00  0.00    +0.149 HD
ENDROOT
BRANCH   1   5
ATOM      5  C   UNL     1       4.788  -5.479   2.396  0.00  0.00    +0.105 C 
BRANCH   5   6
ATOM      6  C   UNL     1       3.294  -5.282   2.657  0.00  0.00    +0.106 C 
BRANCH   6  10
ATOM      7  C   UNL     1       1.043  -4.062  -0.027  0.00  0.00    +0.315 C 
ATOM      8  N   UNL     1       2.362  -4.108  -0.683  0.00  0.00    -0.224 N 
ATOM      9  N   UNL     1       3.249  -4.566   0.302  0.00  0.00    -0.150 NA
ATOM     10  C   UNL     1       2.626  -4.781   1.402  0.00  0.00    +0.208 C 
ATOM     11  O   UNL     1       1.301  -4.512   1.311  0.00  0.00    -0.451 OA
ATOM     12  H   UNL     1       2.572  -3.872  -1.600  0.00  0.00    +0.172 HD
BRANCH   7  17
ATOM     13  C   UNL     1      -0.018   1.503   0.010  0.00  0.00    +0.051 C 
ATOM     14  C   UNL     1       0.002  -0.004   0.002  0.00  0.00    -0.013 A 
ATOM     15  C   UNL     1      -1.039  -0.872   0.002  0.00  0.00    +0.011 A 
ATOM     16  C   UNL     1      -0.780  -2.230  -0.007  0.00  0.00    +0.017 A 
ATOM     17  C   UNL     1       0.507  -2.653  -0.016  0.00  0.00    +0.050 A 
ATOM     18  S   UNL     1       1.404  -1.109  -0.018  0.00  0.00    -0.093 S 
ENDBRANCH   7  17
ENDBRANCH   6  10
ENDBRANCH   5   6
ENDBRANCH   1   5
BRANCH   3  19
ATOM     19  C   UNL     1       7.430  -6.711   4.878  0.00  0.00    +0.150 C 
BRANCH  19  20
ATOM     20  C   UNL     1       8.924  -6.908   4.617  0.00  0.00    +0.191 C 
ATOM     21  N   UNL     1       9.524  -5.652   4.149  0.00  0.00    -0.362 N 
ATOM     22  C   UNL     1      10.008  -5.870   2.960  0.00  0.00    +0.060 A 
ATOM     23  C   UNL     1      10.715  -5.014   1.997  0.00  0.00    +0.027 A 
ATOM     24  C   UNL     1      11.106  -5.528   0.813  0.00  0.00    +0.002 A 
ATOM     25  C   UNL     1      10.866  -6.865   0.450  0.00  0.00    +0.002 A 
ATOM     26  C   UNL     1      10.226  -7.734   1.258  0.00  0.00    +0.027 A 
ATOM     27  C   UNL     1       9.754  -7.286   2.576  0.00  0.00    +0.060 A 
ATOM     28  N   UNL     1       9.123  -7.888   3.542  0.00  0.00    -0.362 N 
ATOM     29  H   UNL     1       9.554  -4.814   4.636  0.00  0.00    +0.162 HD
ATOM     30  H   UNL     1       8.837  -8.815   3.550  0.00  0.00    +0.162 HD
ENDBRANCH  19  20
ENDBRANCH   3  19
TORSDOF 6
