REMARK  Name = ZINC02925181
REMARK  7 active torsions:
REMARK  status: ('A' for Active; 'I' for Inactive)
REMARK    1  A    between atoms: C_1  and  C_2
REMARK    2  A    between atoms: C_2  and  C_30
REMARK    3  A    between atoms: C_4  and  N_9
REMARK    4  A    between atoms: C_6  and  C_7
REMARK    5  A    between atoms: C_6  and  C_8
REMARK    6  A    between atoms: C_10  and  C_11
REMARK    7  A    between atoms: C_12  and  C_26
REMARK                            x       y       z     vdW  Elec       q    Type
REMARK                         _______ _______ _______ _____ _____    ______ ____
ROOT
ATOM      1  C   UNL     1       0.071   7.085  -2.385  0.00  0.00    +0.172 C 
ATOM      2  C   UNL     1       0.362   8.004  -1.274  0.00  0.00    +0.157 C 
ATOM      3  N   UNL     1       0.244   9.214  -1.726  0.00  0.00    -0.170 NA
ATOM      4  N   UNL     1      -0.109   9.220  -3.076  0.00  0.00    -0.135 N 
ATOM      5  C   UNL     1      -0.222   7.956  -3.530  0.00  0.00    +0.255 C 
ATOM      6  O   UNL     1      -0.512   7.607  -4.662  0.00  0.00    -0.272 OA
ATOM      7  C   UNL     1      -0.307  10.361  -3.840  0.00  0.00    +0.189 A 
ATOM      8  N   UNL     1      -0.633  10.455  -5.109  0.00  0.00    -0.223 NA
ATOM      9  C   UNL     1      -0.799  11.643  -5.729  0.00  0.00    +0.080 A 
ATOM     10  C   UNL     1      -1.151  11.882  -7.077  0.00  0.00    +0.029 A 
ATOM     11  C   UNL     1      -1.274  13.162  -7.553  0.00  0.00    +0.002 A 
ATOM     12  C   UNL     1      -1.059  14.262  -6.736  0.00  0.00    +0.001 A 
ATOM     13  C   UNL     1      -0.714  14.066  -5.411  0.00  0.00    +0.017 A 
ATOM     14  C   UNL     1      -0.589  12.788  -4.926  0.00  0.00    +0.041 A 
ATOM     15  S   UNL     1      -0.178  12.075  -3.351  0.00  0.00    -0.050 S 
ENDROOT
BRANCH   2  16
ATOM     16  C   UNL     1       0.730   7.610   0.133  0.00  0.00    +0.433 C 
ATOM     17  F   UNL     1       0.931   8.762   0.901  0.00  0.00    -0.165 F 
ATOM     18  F   UNL     1      -0.305   6.853   0.692  0.00  0.00    -0.165 F 
ATOM     19  F   UNL     1       1.905   6.851   0.113  0.00  0.00    -0.165 F 
ENDBRANCH   2  16
BRANCH   1  21
ATOM     20  N   UNL     1       0.376   5.050  -1.216  0.00  0.00    -0.292 NA
ATOM     21  C   UNL     1       0.077   5.701  -2.359  0.00  0.00    +0.097 C 
BRANCH  20  25
ATOM     22  C   UNL     1      -0.958   0.983  -2.263  0.00  0.00    -0.010 C 
ATOM     23  C   UNL     1      -1.049   1.551  -0.842  0.00  0.00    -0.071 C 
ATOM     24  C   UNL     1      -1.030   3.077  -0.900  0.00  0.00    +0.014 C 
ATOM     25  C   UNL     1       0.383   3.582  -1.188  0.00  0.00    +0.102 C 
ATOM     26  C   UNL     1       1.307   3.104  -0.068  0.00  0.00    +0.014 C 
ATOM     27  C   UNL     1       1.318   1.579  -0.002  0.00  0.00    -0.071 C 
ATOM     28  C   UNL     1       2.027   1.175   1.309  0.00  0.00    -0.010 C 
ATOM     29  C   UNL     1       2.153   1.022  -1.161  0.00  0.00    -0.010 C 
ATOM     30  C   UNL     1      -2.418   1.125  -0.266  0.00  0.00    -0.010 C 
ATOM     31  N   UNL     1      -0.027   0.945   0.053  0.00  0.00    +0.386 N 
ATOM     32  H   UNL     1       0.076  -0.043  -0.206  0.00  0.00    -0.084 HD
ATOM     33  H   UNL     1      -0.370   1.012   1.019  0.00  0.00    -0.084 HD
ENDBRANCH  20  25
ENDBRANCH   1  21
TORSDOF 3
