REMARK  Name = ZINC22399403
REMARK  6 active torsions:
REMARK  status: ('A' for Active; 'I' for Inactive)
REMARK    1  A    between atoms: C_3  and  N_8
REMARK    2  A    between atoms: N_8  and  C_9
REMARK    3  A    between atoms: N_8  and  S_23
REMARK    4  A    between atoms: C_9  and  C_10
REMARK    5  A    between atoms: N_12  and  C_13
REMARK    6  A    between atoms: S_23  and  C_26
REMARK                            x       y       z     vdW  Elec       q    Type
REMARK                         _______ _______ _______ _____ _____    ______ ____
ROOT
ATOM      1  N   UNL     1       4.270  -1.193  -1.633  0.00  0.00    -0.194 N 
ENDROOT
BRANCH   1   4
ATOM      2  C   UNL     1       6.527   0.037  -4.261  0.00  0.00    +0.005 A 
ATOM      3  C   UNL     1       5.714  -0.806  -3.528  0.00  0.00    +0.025 A 
ATOM      4  C   UNL     1       5.092  -0.342  -2.376  0.00  0.00    +0.055 A 
ATOM      5  C   UNL     1       5.283   0.972  -1.968  0.00  0.00    +0.063 A 
ATOM      6  C   UNL     1       6.101   1.810  -2.703  0.00  0.00    +0.125 A 
ATOM      7  C   UNL     1       6.721   1.343  -3.851  0.00  0.00    +0.038 A 
ATOM      8  F   UNL     1       6.293   3.087  -2.305  0.00  0.00    -0.205 F 
ENDBRANCH   1   4
BRANCH   1   9
ATOM      9  S   UNL     1       4.645  -1.538  -0.058  0.00  0.00    +0.075 S 
ATOM     10  O   UNL     1       6.052  -1.382   0.069  0.00  0.00    -0.150 OA
ATOM     11  O   UNL     1       3.982  -2.753   0.261  0.00  0.00    -0.150 OA
BRANCH   9  12
ATOM     12  C   UNL     1       3.908  -0.286   0.939  0.00  0.00    +0.112 A 
ATOM     13  C   UNL     1       2.588  -0.405   1.333  0.00  0.00    +0.032 A 
ATOM     14  C   UNL     1       2.006   0.575   2.114  0.00  0.00    +0.051 A 
ATOM     15  C   UNL     1       2.745   1.682   2.504  0.00  0.00    +0.162 A 
ATOM     16  C   UNL     1       4.073   1.801   2.110  0.00  0.00    +0.164 A 
ATOM     17  C   UNL     1       4.651   0.814   1.326  0.00  0.00    +0.078 A 
ATOM     18  O   UNL     1       4.818   2.875   2.489  0.00  0.00    -0.485 OA
ATOM     19  C   UNL     1       4.102   4.022   2.959  0.00  0.00    +0.270 C 
ATOM     20  C   UNL     1       3.032   3.547   3.951  0.00  0.00    +0.270 C 
ATOM     21  O   UNL     1       2.156   2.644   3.266  0.00  0.00    -0.485 OA
ENDBRANCH   9  12
ENDBRANCH   1   9
BRANCH   1  22
ATOM     22  C   UNL     1       3.077  -1.780  -2.248  0.00  0.00    +0.227 C 
BRANCH  22  23
ATOM     23  C   UNL     1       1.928  -0.811  -2.139  0.00  0.00    +0.233 C 
ATOM     24  O   UNL     1       2.089   0.263  -1.601  0.00  0.00    -0.274 OA
ATOM     25  N   UNL     1       0.720  -1.140  -2.640  0.00  0.00    -0.308 N 
ATOM     26  H   UNL     1       0.574  -2.115  -3.128  0.00  0.00    +0.149 HD
BRANCH  25  27
ATOM     27  C   UNL     1      -0.397  -0.198  -2.534  0.00  0.00    +0.035 C 
ATOM     28  C   UNL     1      -0.677   0.098  -1.059  0.00  0.00    +0.029 C 
ATOM     29  C   UNL     1      -1.844   1.081  -0.949  0.00  0.00    -0.008 C 
ATOM     30  C   UNL     1      -3.090   0.468  -1.591  0.00  0.00    +0.007 C 
ATOM     31  C   UNL     1      -2.810   0.172  -3.065  0.00  0.00    -0.008 C 
ATOM     32  C   UNL     1      -1.643  -0.812  -3.176  0.00  0.00    +0.029 C 
ATOM     33  C   UNL     1      -2.452   1.472  -3.788  0.00  0.00    +0.007 C 
ATOM     34  C   UNL     1      -1.206   2.085  -3.146  0.00  0.00    -0.008 C 
ATOM     35  C   UNL     1      -1.485   2.381  -1.671  0.00  0.00    +0.007 C 
ATOM     36  C   UNL     1      -0.039   1.102  -3.256  0.00  0.00    +0.029 C 
ENDBRANCH  25  27
ENDBRANCH  22  23
ENDBRANCH   1  22
TORSDOF 6
