REMARK  Name = ZINC37264073
REMARK  12 active torsions:
REMARK  status: ('A' for Active; 'I' for Inactive)
REMARK    1  A    between atoms: C_1  and  C_2
REMARK    2  A    between atoms: C_2  and  C_3
REMARK    3  A    between atoms: C_3  and  C_5
REMARK    4  A    between atoms: C_3  and  N_6
REMARK    5  A    between atoms: C_7  and  C_9
REMARK    6  A    between atoms: C_9  and  N_10
REMARK    7  A    between atoms: C_13  and  C_23
REMARK    8  A    between atoms: N_15  and  C_16
REMARK    9  A    between atoms: C_23  and  C_24
REMARK   10  A    between atoms: C_23  and  C_25
REMARK   11  A    between atoms: C_23  and  C_26
REMARK   12  A    between atoms: C_27  and  C_33
REMARK                            x       y       z     vdW  Elec       q    Type
REMARK                         _______ _______ _______ _____ _____    ______ ____
ROOT
ATOM      1  N   UNL     1       7.553  -3.501  -2.302  0.00  0.00    -0.246 N 
ATOM      2  C   UNL     1       7.491  -3.420  -3.701  0.00  0.00    +0.136 A 
ATOM      3  C   UNL     1       6.370  -3.101  -4.389  0.00  0.00    +0.034 A 
ATOM      4  C   UNL     1       6.684  -3.110  -5.748  0.00  0.00    +0.075 A 
ATOM      5  N   UNL     1       7.951  -3.427  -5.875  0.00  0.00    -0.169 NA
ATOM      6  N   UNL     1       8.487  -3.631  -4.594  0.00  0.00    -0.218 N 
ATOM      7  C   UNL     1       5.032  -2.801  -3.763  0.00  0.00    +0.115 C 
ATOM      8  S   UNL     1       5.111  -1.149  -2.982  0.00  0.00    -0.138 S 
ATOM      9  C   UNL     1       6.770  -1.170  -2.224  0.00  0.00    +0.166 C 
ATOM     10  C   UNL     1       7.038  -2.499  -1.582  0.00  0.00    +0.231 C 
ATOM     11  O   UNL     1       6.793  -2.663  -0.406  0.00  0.00    -0.274 OA
ENDROOT
BRANCH   6  12
ATOM     12  C   UNL     1       9.810  -3.987  -4.294  0.00  0.00    +0.068 A 
ATOM     13  C   UNL     1      10.419  -3.494  -3.147  0.00  0.00    +0.030 A 
ATOM     14  C   UNL     1      11.722  -3.846  -2.854  0.00  0.00    +0.040 A 
ATOM     15  C   UNL     1      12.421  -4.689  -3.702  0.00  0.00    +0.124 A 
ATOM     16  C   UNL     1      11.814  -5.181  -4.846  0.00  0.00    +0.040 A 
ATOM     17  C   UNL     1      10.510  -4.837  -5.139  0.00  0.00    +0.030 A 
ATOM     18  F   UNL     1      13.695  -5.032  -3.413  0.00  0.00    -0.205 F 
ENDBRANCH   6  12
BRANCH   7  19
ATOM     19  C   UNL     1       3.963  -2.813  -4.824  0.00  0.00    +0.005 A 
ATOM     20  C   UNL     1       3.365  -4.004  -5.191  0.00  0.00    +0.008 A 
ATOM     21  C   UNL     1       2.385  -4.016  -6.164  0.00  0.00    +0.000 A 
ATOM     22  C   UNL     1       1.999  -2.835  -6.773  0.00  0.00    +0.003 A 
ATOM     23  C   UNL     1       2.595  -1.643  -6.408  0.00  0.00    +0.038 A 
ATOM     24  C   UNL     1       3.574  -1.630  -5.429  0.00  0.00    +0.128 A 
ATOM     25  F   UNL     1       4.154  -0.464  -5.068  0.00  0.00    -0.205 F 
ENDBRANCH   7  19
BRANCH   4  26
ATOM     26  C   UNL     1       5.732  -2.809  -6.877  0.00  0.00    +0.007 C 
ATOM     27  C   UNL     1       5.074  -1.448  -6.640  0.00  0.00    +0.017 C 
ATOM     28  C   UNL     1       6.502  -2.780  -8.199  0.00  0.00    +0.017 C 
ATOM     29  C   UNL     1       4.654  -3.893  -6.938  0.00  0.00    +0.017 C 
ENDBRANCH   4  26
BRANCH   1  30
ATOM     30  C   UNL     1       8.161  -4.661  -1.644  0.00  0.00    +0.210 C 
BRANCH  30  32
ATOM     31  N   UNL     1       7.439  -6.875  -0.811  0.00  0.00    -0.311 N 
ATOM     32  C   UNL     1       7.108  -5.713  -1.407  0.00  0.00    +0.231 C 
ATOM     33  O   UNL     1       5.963  -5.514  -1.754  0.00  0.00    -0.274 OA
ATOM     34  H   UNL     1       8.355  -7.034  -0.534  0.00  0.00    +0.149 HD
BRANCH  31  35
ATOM     35  C   UNL     1       6.416  -7.898  -0.581  0.00  0.00    +0.070 C 
ATOM     36  C   UNL     1       6.261  -8.757  -1.837  0.00  0.00    +0.028 C 
BRANCH  35  38
ATOM     37  C   UNL     1       6.870  -7.949   1.876  0.00  0.00    +0.005 C 
ATOM     38  C   UNL     1       6.836  -8.784   0.594  0.00  0.00    +0.018 C 
ENDBRANCH  35  38
ENDBRANCH  31  35
ENDBRANCH  30  32
ENDBRANCH   1  30
TORSDOF 7
