REMARK  Name = ZINC09434818
REMARK  9 active torsions:
REMARK  status: ('A' for Active; 'I' for Inactive)
REMARK    1  A    between atoms: C_1  and  C_2
REMARK    2  A    between atoms: C_5  and  C_7
REMARK    3  A    between atoms: C_12  and  C_17
REMARK    4  A    between atoms: C_21  and  O_23
REMARK    5  A    between atoms: O_23  and  C_24
REMARK    6  A    between atoms: C_26  and  C_36
REMARK    7  A    between atoms: C_27  and  C_28
REMARK    8  A    between atoms: C_28  and  O_30
REMARK    9  A    between atoms: O_30  and  C_31
REMARK                            x       y       z     vdW  Elec       q    Type
REMARK                         _______ _______ _______ _____ _____    ______ ____
ROOT
ATOM      1  C   UNL     1       1.141   2.138  -0.029  0.00  0.00    +0.099 C 
ATOM      2  C   UNL     1       2.377   1.390   0.405  0.00  0.00    +0.024 C 
ATOM      3  C   UNL     1       2.400   0.040   0.412  0.00  0.00    +0.016 C 
ATOM      4  C   UNL     1       3.631  -0.714   0.848  0.00  0.00    +0.059 C 
ATOM      5  C   UNL     1       4.880   0.103   0.511  0.00  0.00    +0.032 C 
ATOM      6  C   UNL     1       4.778   1.459   1.217  0.00  0.00    +0.088 C 
ATOM      7  C   UNL     1       3.503   2.136   0.796  0.00  0.00    +0.162 C 
ATOM      8  O   UNL     1       3.444   3.350   0.792  0.00  0.00    -0.292 OA
ATOM      9  N   UNL     1       1.298  -0.675   0.025  0.00  0.00    -0.321 N 
ATOM     10  C   UNL     1       0.060  -0.094   0.012  0.00  0.00    +0.016 C 
ATOM     11  C   UNL     1      -0.064   1.244  -0.010  0.00  0.00    +0.066 C 
ATOM     12  C   UNL     1      -1.173  -0.961   0.023  0.00  0.00    +0.061 C 
ATOM     13  H   UNL     1       1.404  -1.727  -0.279  0.00  0.00    +0.152 HD
ENDROOT
BRANCH   1  18
ATOM     14  C   UNL     1       1.995   3.155  -5.536  0.00  0.00    +0.051 C 
ATOM     15  C   UNL     1       1.752   3.146  -4.049  0.00  0.00    -0.013 A 
ATOM     16  C   UNL     1       1.564   4.193  -3.209  0.00  0.00    +0.011 A 
ATOM     17  C   UNL     1       1.350   3.944  -1.866  0.00  0.00    +0.012 A 
ATOM     18  C   UNL     1       1.346   2.662  -1.427  0.00  0.00    +0.002 A 
ATOM     19  S   UNL     1       1.637   1.754  -2.937  0.00  0.00    -0.097 S 
ENDBRANCH   1  18
BRANCH   5  20
ATOM     20  C   UNL     1       6.108  -0.627   0.992  0.00  0.00    -0.040 A 
ATOM     21  C   UNL     1       6.246  -0.939   2.332  0.00  0.00    +0.004 A 
ATOM     22  C   UNL     1       7.370  -1.609   2.775  0.00  0.00    +0.004 A 
ATOM     23  C   UNL     1       8.360  -1.969   1.880  0.00  0.00    +0.045 A 
ATOM     24  C   UNL     1       8.224  -1.657   0.536  0.00  0.00    +0.120 A 
ATOM     25  C   UNL     1       7.092  -0.988   0.092  0.00  0.00    +0.049 A 
BRANCH  24  26
ATOM     26  O   UNL     1       9.195  -2.010  -0.346  0.00  0.00    -0.495 OA
ATOM     27  C   UNL     1      10.330  -2.701   0.180  0.00  0.00    +0.277 C 
ENDBRANCH  24  26
ENDBRANCH   5  20
BRANCH  11  28
ATOM     28  C   UNL     1      -1.355   1.821  -0.020  0.00  0.00    +0.338 C 
ATOM     29  O   UNL     1      -2.338   1.110  -0.117  0.00  0.00    -0.245 OA
BRANCH  28  30
ATOM     30  O   UNL     1      -1.497   3.159   0.077  0.00  0.00    -0.458 OA
BRANCH  30  31
ATOM     31  C   UNL     1      -2.831   3.673   0.060  0.00  0.00    +0.177 C 
ATOM     32  C   UNL     1      -3.237   4.040  -1.382  0.00  0.00    +0.044 C 
ATOM     33  C   UNL     1      -4.090   5.323  -1.221  0.00  0.00    +0.004 C 
ATOM     34  C   UNL     1      -3.355   6.083  -0.089  0.00  0.00    +0.004 C 
ATOM     35  C   UNL     1      -2.906   4.971   0.882  0.00  0.00    +0.044 C 
ENDBRANCH  30  31
ENDBRANCH  28  30
ENDBRANCH  11  28
TORSDOF 6
