REMARK  Name = ZINC26053565
REMARK  9 active torsions:
REMARK  status: ('A' for Active; 'I' for Inactive)
REMARK    1  A    between atoms: C_1  and  C_2
REMARK    2  A    between atoms: C_2  and  C_4
REMARK    3  A    between atoms: C_2  and  N_31
REMARK    4  A    between atoms: C_7  and  S_16
REMARK    5  A    between atoms: N_8  and  C_9
REMARK    6  A    between atoms: S_16  and  C_17
REMARK    7  A    between atoms: C_17  and  C_19
REMARK    8  A    between atoms: C_17  and  C_20
REMARK    9  A    between atoms: C_23  and  C_25
REMARK                            x       y       z     vdW  Elec       q    Type
REMARK                         _______ _______ _______ _____ _____    ______ ____
ROOT
ATOM      1  C   UNL     1      -6.369   8.601  -1.334  0.00  0.00    +0.125 A 
ATOM      2  N   UNL     1      -5.423   8.743  -0.449  0.00  0.00    -0.135 NA
ATOM      3  N   UNL     1      -4.811   7.627  -0.274  0.00  0.00    -0.122 NA
ATOM      4  C   UNL     1      -5.336   6.702  -1.044  0.00  0.00    +0.197 A 
ATOM      5  N   UNL     1      -6.346   7.296  -1.750  0.00  0.00    -0.275 N 
ENDROOT
BRANCH   5   6
ATOM      6  C   UNL     1      -7.185   6.694  -2.700  0.00  0.00    +0.050 A 
ATOM      7  C   UNL     1      -7.139   7.103  -4.026  0.00  0.00    +0.029 A 
ATOM      8  C   UNL     1      -7.961   6.504  -4.961  0.00  0.00    +0.040 A 
ATOM      9  C   UNL     1      -8.839   5.506  -4.574  0.00  0.00    +0.124 A 
ATOM     10  C   UNL     1      -8.890   5.101  -3.251  0.00  0.00    +0.040 A 
ATOM     11  C   UNL     1      -8.065   5.692  -2.314  0.00  0.00    +0.029 A 
ATOM     12  F   UNL     1      -9.646   4.926  -5.489  0.00  0.00    -0.205 F 
ENDBRANCH   5   6
BRANCH   1  14
ATOM     13  C   UNL     1      -6.567  10.618  -2.763  0.00  0.00    -0.005 C 
ATOM     14  C   UNL     1      -7.311   9.675  -1.815  0.00  0.00    -0.002 C 
BRANCH  14  15
ATOM     15  N   UNL     1      -7.815  10.435  -0.663  0.00  0.00    +0.386 N 
ATOM     16  C   UNL     1      -8.449   9.545   0.318  0.00  0.00    -0.078 C 
ATOM     17  C   UNL     1      -8.831  10.347   1.564  0.00  0.00    -0.019 C 
ATOM     18  C   UNL     1      -9.795  11.469   1.167  0.00  0.00    -0.004 C 
ATOM     19  C   UNL     1      -9.129  12.353   0.109  0.00  0.00    -0.019 C 
ATOM     20  C   UNL     1      -8.738  11.493  -1.095  0.00  0.00    -0.078 C 
ATOM     21  H   UNL     1      -6.957  10.918  -0.173  0.00  0.00    -0.081 HD
ENDBRANCH  14  15
ENDBRANCH   1  14
BRANCH   4  22
ATOM     22  S   UNL     1      -4.832   5.017  -1.153  0.00  0.00    -0.073 S 
BRANCH  22  23
ATOM     23  C   UNL     1      -3.477   5.017   0.048  0.00  0.00    +0.139 C 
ATOM     24  C   UNL     1      -4.033   5.295   1.445  0.00  0.00    +0.029 C 
BRANCH  23  25
ATOM     25  C   UNL     1      -2.796   3.672   0.036  0.00  0.00    +0.231 A 
ATOM     26  N   UNL     1      -3.388   2.510   0.033  0.00  0.00    -0.111 NA
ATOM     27  N   UNL     1      -2.502   1.577   0.023  0.00  0.00    -0.107 NA
ATOM     28  C   UNL     1      -1.305   2.116   0.020  0.00  0.00    +0.248 A 
ATOM     29  O   UNL     1      -1.470   3.454   0.033  0.00  0.00    -0.419 OA
BRANCH  28  30
ATOM     30  C   UNL     1      -0.017   1.391   0.010  0.00  0.00    +0.038 A 
ATOM     31  C   UNL     1       1.186   2.100   0.002  0.00  0.00    +0.013 A 
ATOM     32  C   UNL     1       2.385   1.417  -0.013  0.00  0.00    +0.001 A 
ATOM     33  C   UNL     1       2.396   0.034  -0.021  0.00  0.00    +0.000 A 
ATOM     34  C   UNL     1       1.208  -0.674  -0.013  0.00  0.00    +0.001 A 
ATOM     35  C   UNL     1       0.002  -0.004   0.002  0.00  0.00    +0.013 A 
ENDBRANCH  28  30
ENDBRANCH  23  25
ENDBRANCH  22  23
ENDBRANCH   4  22
TORSDOF 7
