REMARK  Name = ZINC29615110
REMARK  9 active torsions:
REMARK  status: ('A' for Active; 'I' for Inactive)
REMARK    1  A    between atoms: C_1  and  C_2
REMARK    2  A    between atoms: C_5  and  N_8
REMARK    3  A    between atoms: C_9  and  C_27
REMARK    4  A    between atoms: C_10  and  C_13
REMARK    5  A    between atoms: N_15  and  C_16
REMARK    6  A    between atoms: C_16  and  C_17
REMARK    7  A    between atoms: C_17  and  N_24
REMARK    8  A    between atoms: N_24  and  C_25
REMARK    9  A    between atoms: N_24  and  C_26
REMARK                            x       y       z     vdW  Elec       q    Type
REMARK                         _______ _______ _______ _____ _____    ______ ____
ROOT
ATOM      1  N   UNL     1      -0.211  -0.361  -2.623  0.00  0.00    -0.227 N 
ATOM      2  C   UNL     1      -0.662  -0.783  -1.428  0.00  0.00    +0.159 A 
ATOM      3  C   UNL     1      -0.459  -2.148  -1.370  0.00  0.00    +0.086 A 
ATOM      4  C   UNL     1       0.139  -2.533  -2.591  0.00  0.00    +0.148 A 
ATOM      5  N   UNL     1       0.276  -1.466  -3.329  0.00  0.00    -0.174 NA
ENDROOT
BRANCH   1  10
ATOM      6  C   UNL     1      -0.292   4.997  -4.494  0.00  0.00    +0.044 C 
ATOM      7  C   UNL     1      -0.271   3.574  -3.997  0.00  0.00    -0.050 A 
ATOM      8  C   UNL     1       0.778   2.740  -4.339  0.00  0.00    +0.005 A 
ATOM      9  C   UNL     1       0.800   1.435  -3.885  0.00  0.00    +0.028 A 
ATOM     10  C   UNL     1      -0.231   0.962  -3.085  0.00  0.00    +0.066 A 
ATOM     11  C   UNL     1      -1.285   1.801  -2.748  0.00  0.00    +0.028 A 
ATOM     12  C   UNL     1      -1.299   3.106  -3.200  0.00  0.00    +0.005 A 
ENDBRANCH   1  10
BRANCH   3  13
ATOM     13  C   UNL     1      -0.801  -3.036  -0.244  0.00  0.00    +0.248 C 
ATOM     14  O   UNL     1      -1.316  -2.577   0.757  0.00  0.00    -0.270 OA
ATOM     15  N   UNL     1      -0.544  -4.357  -0.326  0.00  0.00    -0.313 N 
ATOM     16  H   UNL     1      -0.079  -4.771  -1.232  0.00  0.00    +0.149 HD
BRANCH  15  17
ATOM     17  C   UNL     1      -0.885  -5.239   0.793  0.00  0.00    +0.092 C 
BRANCH  17  18
ATOM     18  C   UNL     1      -0.618  -6.692   0.395  0.00  0.00    -0.050 C 
ATOM     19  C   UNL     1      -1.687  -7.580   0.973  0.00  0.00    -0.010 C 
ATOM     20  C   UNL     1      -2.326  -6.979   2.242  0.00  0.00    -0.001 C 
ATOM     21  C   UNL     1      -1.295  -6.329   3.184  0.00  0.00    -0.000 C 
ATOM     22  C   UNL     1      -0.040  -7.148   3.317  0.00  0.00    -0.000 C 
ATOM     23  C   UNL     1       0.994  -6.631   2.295  0.00  0.00    -0.001 C 
ATOM     24  C   UNL     1       0.749  -7.139   0.953  0.00  0.00    -0.010 C 
BRANCH  18  25
ATOM     25  N   UNL     1      -0.616  -6.811  -1.069  0.00  0.00    +0.381 N 
ATOM     26  C   UNL     1      -0.261  -8.174  -1.486  0.00  0.00    -0.096 C 
ATOM     27  C   UNL     1      -1.912  -6.409  -1.631  0.00  0.00    -0.096 C 
ATOM     28  H   UNL     1       0.150  -6.127  -1.463  0.00  0.00    -0.082 HD
ENDBRANCH  18  25
ENDBRANCH  17  18
ENDBRANCH  15  17
ENDBRANCH   3  13
BRANCH   2  29
ATOM     29  C   UNL     1      -1.275   0.074  -0.351  0.00  0.00    +0.435 C 
ATOM     30  F   UNL     1      -2.659   0.140  -0.539  0.00  0.00    -0.164 F 
ATOM     31  F   UNL     1      -1.001  -0.483   0.902  0.00  0.00    -0.164 F 
ATOM     32  F   UNL     1      -0.733   1.363  -0.417  0.00  0.00    -0.164 F 
ENDBRANCH   2  29
TORSDOF 6
