REMARK  Name = ZINC20885373
REMARK  11 active torsions:
REMARK  status: ('A' for Active; 'I' for Inactive)
REMARK    1  A    between atoms: C_1  and  O_2
REMARK    2  A    between atoms: O_2  and  C_3
REMARK    3  A    between atoms: C_7  and  C_10
REMARK    4  A    between atoms: C_8  and  O_9
REMARK    5  A    between atoms: C_15  and  C_20
REMARK    6  A    between atoms: C_22  and  O_30
REMARK    7  A    between atoms: C_23  and  O_28
REMARK    8  A    between atoms: C_24  and  O_26
REMARK    9  A    between atoms: O_26  and  C_27
REMARK   10  A    between atoms: O_28  and  C_29
REMARK   11  A    between atoms: O_30  and  C_31
REMARK                            x       y       z     vdW  Elec       q    Type
REMARK                         _______ _______ _______ _____ _____    ______ ____
ROOT
ATOM      1  C   UNL     1       1.651   9.292  -2.893  0.00  0.00    +0.140 C 
ATOM      2  C   UNL     1       1.081   8.398  -1.819  0.00  0.00    +0.037 C 
ATOM      3  C   UNL     1      -0.150   7.856  -1.815  0.00  0.00    +0.017 C 
ATOM      4  C   UNL     1      -0.600   6.974  -0.663  0.00  0.00    +0.059 C 
ATOM      5  C   UNL     1       0.594   6.207  -0.098  0.00  0.00    +0.032 C 
ATOM      6  C   UNL     1       1.622   7.235   0.389  0.00  0.00    +0.088 C 
ATOM      7  C   UNL     1       1.977   8.136  -0.756  0.00  0.00    +0.163 C 
ATOM      8  O   UNL     1       3.074   8.658  -0.772  0.00  0.00    -0.292 OA
ATOM      9  N   UNL     1      -1.080   8.043  -2.786  0.00  0.00    -0.316 N 
ATOM     10  C   UNL     1      -0.833   7.950  -4.151  0.00  0.00    +0.052 A 
ATOM     11  C   UNL     1      -1.411   6.974  -4.943  0.00  0.00    +0.025 A 
ATOM     12  C   UNL     1      -1.159   6.968  -6.305  0.00  0.00    +0.002 A 
ATOM     13  C   UNL     1      -0.341   7.931  -6.867  0.00  0.00    +0.002 A 
ATOM     14  C   UNL     1       0.251   8.898  -6.073  0.00  0.00    +0.025 A 
ATOM     15  C   UNL     1       0.019   8.892  -4.707  0.00  0.00    +0.049 A 
ATOM     16  N   UNL     1       0.681   9.773  -3.853  0.00  0.00    -0.331 N 
ATOM     17  H   UNL     1      -2.117   8.287  -2.514  0.00  0.00    +0.152 HD
ATOM     18  H   UNL     1       0.457  10.848  -3.917  0.00  0.00    +0.147 HD
ENDROOT
BRANCH   1  23
ATOM     19  C   UNL     1       4.626   8.497  -5.094  0.00  0.00    +0.162 A 
ATOM     20  C   UNL     1       4.678   7.116  -4.991  0.00  0.00    +0.049 A 
ATOM     21  C   UNL     1       3.754   6.446  -4.212  0.00  0.00    +0.004 A 
ATOM     22  C   UNL     1       2.779   7.151  -3.531  0.00  0.00    +0.009 A 
ATOM     23  C   UNL     1       2.718   8.528  -3.633  0.00  0.00    +0.022 A 
ATOM     24  C   UNL     1       3.642   9.206  -4.412  0.00  0.00    +0.164 A 
BRANCH  19  26
ATOM     25  C   UNL     1       6.516   8.366  -6.532  0.00  0.00    +0.277 C 
ATOM     26  O   UNL     1       5.535   9.158  -5.861  0.00  0.00    -0.491 OA
ENDBRANCH  19  26
BRANCH  24  27
ATOM     27  O   UNL     1       3.586  10.561  -4.511  0.00  0.00    -0.503 OA
ATOM     28  H   UNL     1       2.808  11.120  -3.971  0.00  0.00    +0.292 HD
ENDBRANCH  24  27
ENDBRANCH   1  23
BRANCH   5  29
ATOM     29  C   UNL     1       0.149   5.345   1.055  0.00  0.00    -0.036 A 
ATOM     30  C   UNL     1      -0.442   5.925   2.162  0.00  0.00    +0.053 A 
ATOM     31  C   UNL     1      -0.854   5.135   3.225  0.00  0.00    +0.165 A 
ATOM     32  C   UNL     1      -0.675   3.758   3.174  0.00  0.00    +0.204 A 
ATOM     33  C   UNL     1      -0.076   3.179   2.062  0.00  0.00    +0.165 A 
ATOM     34  C   UNL     1       0.332   3.975   1.003  0.00  0.00    +0.053 A 
BRANCH  33  35
ATOM     35  O   UNL     1       0.105   1.832   2.010  0.00  0.00    -0.491 OA
ATOM     36  C   UNL     1       0.722   1.305   0.834  0.00  0.00    +0.277 C 
ENDBRANCH  33  35
BRANCH  32  37
ATOM     37  O   UNL     1      -1.082   2.979   4.213  0.00  0.00    -0.488 OA
ATOM     38  C   UNL     1      -0.134   2.740   5.255  0.00  0.00    +0.277 C 
ENDBRANCH  32  37
BRANCH  31  39
ATOM     39  O   UNL     1      -1.435   5.707   4.313  0.00  0.00    -0.491 OA
ATOM     40  C   UNL     1      -1.590   7.128   4.294  0.00  0.00    +0.277 C 
ENDBRANCH  31  39
ENDBRANCH   5  29
TORSDOF 7
