REMARK  Name = ZINC39654575
REMARK  8 active torsions:
REMARK  status: ('A' for Active; 'I' for Inactive)
REMARK    1  A    between atoms: C_1  and  C_2
REMARK    2  A    between atoms: C_2  and  C_3
REMARK    3  A    between atoms: C_6  and  C_9
REMARK    4  A    between atoms: C_9  and  C_10
REMARK    5  A    between atoms: C_10  and  N_11
REMARK    6  A    between atoms: C_12  and  C_14
REMARK    7  A    between atoms: C_25  and  C_27
REMARK    8  A    between atoms: C_30  and  C_32
REMARK                            x       y       z     vdW  Elec       q    Type
REMARK                         _______ _______ _______ _____ _____    ______ ____
ROOT
ATOM      1  C   UNL     1       5.056  -0.741  -8.911  0.00  0.00    +0.100 C 
ATOM      2  C   UNL     1       4.120  -1.649  -9.741  0.00  0.00    +0.121 C 
ATOM      3  N   UNL     1       3.513  -0.743 -10.744  0.00  0.00    -0.294 N 
ATOM      4  C   UNL     1       4.621   0.156 -11.147  0.00  0.00    +0.115 C 
ATOM      5  C   UNL     1       5.385   0.440  -9.839  0.00  0.00    -0.004 C 
ATOM      6  C   UNL     1       6.886   0.500 -10.106  0.00  0.00    -0.010 C 
ATOM      7  C   UNL     1       7.196   1.717 -10.983  0.00  0.00    -0.082 C 
ATOM      8  N   UNL     1       6.750   2.939 -10.302  0.00  0.00    +0.379 N 
ATOM      9  C   UNL     1       5.292   2.914 -10.133  0.00  0.00    -0.082 C 
ATOM     10  C   UNL     1       4.902   1.748  -9.220  0.00  0.00    -0.010 C 
ATOM     11  C   UNL     1       2.241  -0.738 -11.190  0.00  0.00    +0.282 C 
ATOM     12  O   UNL     1       1.892   0.077 -12.024  0.00  0.00    -0.267 OA
ATOM     13  H   UNL     1       7.192   2.998  -9.397  0.00  0.00    -0.086 HD
ATOM     14  H   UNL     1       7.010   3.743 -10.854  0.00  0.00    -0.086 HD
ENDROOT
BRANCH  11  15
ATOM     15  C   UNL     1       1.279  -1.712 -10.670  0.00  0.00    +0.190 A 
ATOM     16  C   UNL     1      -0.044  -1.821 -11.041  0.00  0.00    +0.055 A 
ATOM     17  C   UNL     1      -0.585  -2.877 -10.302  0.00  0.00    +0.051 A 
ATOM     18  C   UNL     1       0.416  -3.370  -9.514  0.00  0.00    +0.139 A 
ATOM     19  O   UNL     1       1.535  -2.665  -9.748  0.00  0.00    -0.450 OA
BRANCH  18  20
ATOM     20  C   UNL     1       0.290  -4.495  -8.566  0.00  0.00    +0.052 A 
ATOM     21  C   UNL     1      -0.757  -4.522  -7.643  0.00  0.00    +0.014 A 
ATOM     22  C   UNL     1      -0.869  -5.576  -6.761  0.00  0.00    +0.001 A 
ATOM     23  C   UNL     1       0.053  -6.607  -6.788  0.00  0.00    +0.003 A 
ATOM     24  C   UNL     1       1.094  -6.590  -7.699  0.00  0.00    +0.039 A 
ATOM     25  C   UNL     1       1.216  -5.543  -8.593  0.00  0.00    +0.134 A 
ATOM     26  F   UNL     1       2.229  -5.530  -9.487  0.00  0.00    -0.205 F 
ENDBRANCH  18  20
ENDBRANCH  11  15
BRANCH   1  28
ATOM     27  N   UNL     1       5.061   0.043  -6.565  0.00  0.00    -0.315 N 
ATOM     28  C   UNL     1       4.351  -0.254  -7.671  0.00  0.00    +0.218 C 
ATOM     29  O   UNL     1       3.144  -0.130  -7.669  0.00  0.00    -0.275 OA
ATOM     30  H   UNL     1       6.025  -0.057  -6.566  0.00  0.00    +0.149 HD
BRANCH  27  31
ATOM     31  C   UNL     1       4.375   0.516  -5.360  0.00  0.00    +0.109 C 
BRANCH  31  32
ATOM     32  C   UNL     1       5.403   0.779  -4.258  0.00  0.00    +0.054 C 
BRANCH  32  36
ATOM     33  C   UNL     1       3.406   2.159  -0.743  0.00  0.00    -0.048 A 
ATOM     34  C   UNL     1       3.613   0.806  -0.934  0.00  0.00    +0.004 A 
ATOM     35  C   UNL     1       4.259   0.359  -2.072  0.00  0.00    +0.004 A 
ATOM     36  C   UNL     1       4.698   1.266  -3.018  0.00  0.00    -0.046 A 
ATOM     37  C   UNL     1       4.491   2.619  -2.828  0.00  0.00    +0.004 A 
ATOM     38  C   UNL     1       3.841   3.066  -1.692  0.00  0.00    +0.004 A 
BRANCH  33  40
ATOM     39  C   UNL     1       1.196   2.708   0.237  0.00  0.00    +0.009 C 
ATOM     40  C   UNL     1       2.702   2.647   0.497  0.00  0.00    +0.032 C 
ENDBRANCH  33  40
ENDBRANCH  32  36
ENDBRANCH  31  32
ENDBRANCH  27  31
ENDBRANCH   1  28
TORSDOF 7
