REMARK  Name = ZINC26510322
REMARK  11 active torsions:
REMARK  status: ('A' for Active; 'I' for Inactive)
REMARK    1  A    between atoms: C_1  and  C_2
REMARK    2  A    between atoms: C_2  and  C_3
REMARK    3  A    between atoms: C_3  and  C_4
REMARK    4  A    between atoms: C_3  and  C_5
REMARK    5  A    between atoms: C_3  and  C_6
REMARK    6  A    between atoms: C_14  and  N_19
REMARK    7  A    between atoms: N_19  and  S_20
REMARK    8  A    between atoms: S_20  and  C_23
REMARK    9  A    between atoms: C_26  and  O_32
REMARK   10  A    between atoms: C_27  and  N_29
REMARK   11  A    between atoms: O_32  and  C_33
REMARK                            x       y       z     vdW  Elec       q    Type
REMARK                         _______ _______ _______ _____ _____    ______ ____
ROOT
ATOM      1  C   UNL     1       7.336   2.611  -6.912  0.00  0.00    -0.000 C 
ATOM      2  C   UNL     1       6.521   3.460  -7.893  0.00  0.00    +0.012 C 
ATOM      3  C   UNL     1       5.817   4.588  -7.131  0.00  0.00    +0.075 C 
ATOM      4  C   UNL     1       5.090   3.989  -5.949  0.00  0.00    +0.109 A 
ATOM      5  C   UNL     1       5.346   2.762  -5.465  0.00  0.00    +0.002 A 
ATOM      6  C   UNL     1       4.441   2.558  -4.335  0.00  0.00    +0.025 A 
ATOM      7  C   UNL     1       4.216   1.517  -3.435  0.00  0.00    +0.036 A 
ATOM      8  C   UNL     1       3.254   1.659  -2.452  0.00  0.00    +0.049 A 
ATOM      9  C   UNL     1       2.510   2.834  -2.366  0.00  0.00    +0.028 A 
ATOM     10  C   UNL     1       2.731   3.869  -3.248  0.00  0.00    +0.049 A 
ATOM     11  C   UNL     1       3.692   3.745  -4.242  0.00  0.00    +0.136 A 
ATOM     12  O   UNL     1       4.115   4.566  -5.228  0.00  0.00    -0.459 OA
ATOM     13  C   UNL     1       6.379   1.816  -6.015  0.00  0.00    +0.043 C 
ENDROOT
BRANCH   1  14
ATOM     14  C   UNL     1       8.228   1.643  -7.693  0.00  0.00    -0.032 C 
ATOM     15  C   UNL     1       9.038   0.793  -6.713  0.00  0.00    +0.011 C 
ATOM     16  C   UNL     1       7.356   0.733  -8.560  0.00  0.00    +0.011 C 
BRANCH  14  18
ATOM     17  C   UNL     1      10.074   1.470  -9.368  0.00  0.00    +0.004 C 
ATOM     18  C   UNL     1       9.182   2.438  -8.588  0.00  0.00    +0.003 C 
ENDBRANCH  14  18
ENDBRANCH   1  14
BRANCH   8  19
ATOM     19  N   UNL     1       3.022   0.618  -1.546  0.00  0.00    -0.216 N 
ATOM     20  H   UNL     1       2.118  -0.001  -1.638  0.00  0.00    +0.174 HD
BRANCH  19  21
ATOM     21  S   UNL     1       4.110   0.319  -0.334  0.00  0.00    +0.072 S 
ATOM     22  O   UNL     1       5.389   0.236  -0.947  0.00  0.00    -0.150 OA
ATOM     23  O   UNL     1       3.570  -0.740   0.445  0.00  0.00    -0.150 OA
BRANCH  21  24
ATOM     24  C   UNL     1       4.140   1.742   0.704  0.00  0.00    +0.111 A 
ATOM     25  C   UNL     1       3.204   1.881   1.712  0.00  0.00    +0.032 A 
ATOM     26  C   UNL     1       3.222   2.999   2.523  0.00  0.00    +0.050 A 
ATOM     27  C   UNL     1       4.186   3.978   2.332  0.00  0.00    +0.150 A 
ATOM     28  C   UNL     1       5.124   3.837   1.320  0.00  0.00    +0.169 A 
ATOM     29  C   UNL     1       5.099   2.719   0.508  0.00  0.00    +0.065 A 
BRANCH  28  30
ATOM     30  N   UNL     1       6.151   4.882   1.110  0.00  0.00    +0.060 N 
ATOM     31  O   UNL     1       6.974   4.757   0.221  0.00  0.00    -0.126 OA
ATOM     32  O   UNL     1       6.172   5.867   1.826  0.00  0.00    -0.126 OA
ENDBRANCH  28  30
BRANCH  27  33
ATOM     33  O   UNL     1       4.209   5.077   3.132  0.00  0.00    -0.493 OA
ATOM     34  C   UNL     1       3.213   5.156   4.154  0.00  0.00    +0.277 C 
ENDBRANCH  27  33
ENDBRANCH  21  24
ENDBRANCH  19  21
ENDBRANCH   8  19
TORSDOF 7
