REMARK  Name = ZINC43741591
REMARK  4 active torsions:
REMARK  status: ('A' for Active; 'I' for Inactive)
REMARK    1  A    between atoms: C_1  and  C_2
REMARK    2  A    between atoms: N_6  and  N_7
REMARK    3  A    between atoms: C_22  and  C_33
REMARK    4  A    between atoms: C_26  and  C_27
REMARK                            x       y       z     vdW  Elec       q    Type
REMARK                         _______ _______ _______ _____ _____    ______ ____
ROOT
ATOM      1  C   UNL     1      -0.020   1.524   0.010  0.00  0.00    +0.012 C 
ATOM      2  C   UNL     1       0.002  -0.006   0.003  0.00  0.00    -0.025 C 
ATOM      3  C   UNL     1       0.708  -0.502  -1.262  0.00  0.00    +0.013 C 
ATOM      4  C   UNL     1       2.121   0.086  -1.325  0.00  0.00    +0.053 C 
ATOM      5  C   UNL     1       2.840  -0.262  -0.040  0.00  0.00    +0.037 C 
ATOM      6  N   UNL     1       3.995  -0.814  -0.061  0.00  0.00    -0.188 NA
ATOM      7  C   UNL     1       2.157   0.060   1.270  0.00  0.00    +0.056 C 
ATOM      8  C   UNL     1       0.743  -0.515   1.243  0.00  0.00    +0.001 C 
ATOM      9  C   UNL     1       0.015  -0.077   2.515  0.00  0.00    +0.005 C 
ATOM     10  C   UNL     1      -1.429  -0.587   2.507  0.00  0.00    +0.008 C 
ATOM     11  C   UNL     1      -2.139  -0.013   1.283  0.00  0.00    +0.019 C 
ATOM     12  C   UNL     1      -1.429  -0.537   0.023  0.00  0.00    +0.002 C 
ATOM     13  C   UNL     1      -2.203  -0.125  -1.221  0.00  0.00    +0.006 C 
ATOM     14  C   UNL     1      -3.593  -0.777  -1.240  0.00  0.00    +0.016 C 
ATOM     15  C   UNL     1      -4.398  -0.258  -0.050  0.00  0.00    +0.015 C 
ATOM     16  C   UNL     1      -3.566  -0.484   1.204  0.00  0.00    -0.056 C 
ATOM     17  C   UNL     1      -4.319  -1.136   2.067  0.00  0.00    +0.001 C 
ATOM     18  C   UNL     1      -5.608  -1.476   1.474  0.00  0.00    +0.005 C 
ATOM     19  C   UNL     1      -5.666  -1.030   0.184  0.00  0.00    -0.031 C 
ATOM     20  C   UNL     1      -4.704   1.231  -0.222  0.00  0.00    +0.021 C 
ENDROOT
BRANCH   6  21
ATOM     21  N   UNL     1       4.565  -1.198  -1.282  0.00  0.00    -0.191 N 
ATOM     22  C   UNL     1       5.733  -1.870  -1.297  0.00  0.00    +0.317 C 
ATOM     23  O   UNL     1       6.228  -2.204  -2.357  0.00  0.00    -0.251 OA
ATOM     24  N   UNL     1       6.354  -2.171  -0.139  0.00  0.00    -0.312 N 
ATOM     25  H   UNL     1       4.119  -0.982  -2.115  0.00  0.00    +0.179 HD
ATOM     26  H   UNL     1       5.959  -1.904   0.706  0.00  0.00    +0.147 HD
ATOM     27  H   UNL     1       7.194  -2.654  -0.151  0.00  0.00    +0.147 HD
ENDBRANCH   6  21
BRANCH  19  28
ATOM     28  C   UNL     1      -6.725  -1.208  -0.728  0.00  0.00    +0.000 C 
ATOM     29  C   UNL     1      -6.804  -0.721  -1.996  0.00  0.00    +0.098 C 
ATOM     30  C   UNL     1      -8.023  -1.121  -2.577  0.00  0.00    +0.333 C 
ATOM     31  O   UNL     1      -8.375  -0.836  -3.707  0.00  0.00    -0.246 OA
ATOM     32  O   UNL     1      -8.748  -1.861  -1.717  0.00  0.00    -0.457 OA
ATOM     33  C   UNL     1      -8.003  -1.984  -0.499  0.00  0.00    +0.268 C 
ENDBRANCH  19  28
TORSDOF 2
