REMARK  Name = ZINC67428641
REMARK  3 active torsions:
REMARK  status: ('A' for Active; 'I' for Inactive)
REMARK    1  A    between atoms: C_4  and  C_7
REMARK    2  A    between atoms: C_10  and  S_13
REMARK    3  A    between atoms: S_13  and  C_14
REMARK                            x       y       z     vdW  Elec       q    Type
REMARK                         _______ _______ _______ _____ _____    ______ ____
ROOT
ATOM      1  S   UNL     1       5.812  -3.946  -0.076  0.00  0.00    -0.075 S 
ENDROOT
BRANCH   1   2
ATOM      2  C   UNL     1       4.360  -5.032  -0.067  0.00  0.00    +0.125 C 
ATOM      3  C   UNL     1       4.806  -6.465  -0.209  0.00  0.00    +0.023 C 
ATOM      4  C   UNL     1       3.665  -7.464  -0.328  0.00  0.00    +0.006 C 
ATOM      5  C   UNL     1       2.931  -7.633   0.998  0.00  0.00    +0.036 C 
ATOM      6  C   UNL     1       1.838  -6.583   1.101  0.00  0.00    -0.037 A 
ATOM      7  C   UNL     1       0.514  -6.956   1.047  0.00  0.00    +0.004 A 
ATOM      8  C   UNL     1      -0.477  -5.995   1.168  0.00  0.00    +0.000 A 
ATOM      9  C   UNL     1      -0.143  -4.664   1.346  0.00  0.00    +0.001 A 
ATOM     10  C   UNL     1       1.181  -4.277   1.393  0.00  0.00    +0.011 A 
ATOM     11  C   UNL     1       2.183  -5.242   1.257  0.00  0.00    +0.022 A 
ATOM     12  C   UNL     1       3.604  -4.851   1.236  0.00  0.00    +0.177 C 
ATOM     13  O   UNL     1       4.148  -4.399   2.221  0.00  0.00    -0.291 OA
ENDBRANCH   1   2
BRANCH   1  17
ATOM     14  C   UNL     1       3.699  -0.689  -0.037  0.00  0.00    +0.182 A 
ATOM     15  N   UNL     1       3.849  -2.021  -0.046  0.00  0.00    -0.201 NA
ATOM     16  H   UNL     1       6.796  -1.072  -0.071  0.00  0.00    +0.191 HD
ATOM     17  C   UNL     1       5.130  -2.321  -0.061  0.00  0.00    +0.185 A 
ATOM     18  N   UNL     1       5.830  -1.165  -0.062  0.00  0.00    -0.253 N 
ATOM     19  N   UNL     1       4.886  -0.127  -0.052  0.00  0.00    -0.152 NA
BRANCH  14  23
ATOM     20  C   UNL     1      -0.017   1.379   0.010  0.00  0.00    +0.000 A 
ATOM     21  C   UNL     1       1.169   2.092   0.002  0.00  0.00    +0.001 A 
ATOM     22  C   UNL     1       2.377   1.426  -0.013  0.00  0.00    +0.011 A 
ATOM     23  C   UNL     1       2.402   0.033  -0.021  0.00  0.00    +0.021 A 
ATOM     24  C   UNL     1       1.205  -0.680  -0.013  0.00  0.00    +0.011 A 
ATOM     25  C   UNL     1       0.002  -0.004   0.002  0.00  0.00    +0.001 A 
ENDBRANCH  14  23
ENDBRANCH   1  17
TORSDOF 3
