REMARK  Name = ZINC44876319
REMARK  14 active torsions:
REMARK  status: ('A' for Active; 'I' for Inactive)
REMARK    1  A    between atoms: C_1  and  C_2
REMARK    2  A    between atoms: N_5  and  C_8
REMARK    3  A    between atoms: C_8  and  C_9
REMARK    4  A    between atoms: C_12  and  C_15
REMARK    5  A    between atoms: C_15  and  N_16
REMARK    6  A    between atoms: C_17  and  C_19
REMARK    7  A    between atoms: C_19  and  N_20
REMARK    8  A    between atoms: N_20  and  C_21
REMARK    9  A    between atoms: N_20  and  S_31
REMARK   10  A    between atoms: C_24  and  C_27
REMARK   11  A    between atoms: C_27  and  C_28
REMARK   12  A    between atoms: C_27  and  C_29
REMARK   13  A    between atoms: C_27  and  C_30
REMARK   14  A    between atoms: S_31  and  C_34
REMARK                            x       y       z     vdW  Elec       q    Type
REMARK                         _______ _______ _______ _____ _____    ______ ____
ROOT
ATOM      1  N   UNL     1       2.088  -5.591   7.638  0.00  0.00    -0.310 N 
ATOM      2  C   UNL     1       2.716  -5.276   8.788  0.00  0.00    +0.232 C 
ATOM      3  O   UNL     1       3.118  -6.156   9.520  0.00  0.00    -0.274 OA
ATOM      4  H   UNL     1       1.767  -4.887   7.053  0.00  0.00    +0.149 HD
ENDROOT
BRANCH   1   5
ATOM      5  C   UNL     1       1.892  -6.995   7.270  0.00  0.00    +0.139 C 
BRANCH   5   9
ATOM      6  C   UNL     1      -0.152  -7.218   3.526  0.00  0.00    -0.064 A 
ATOM      7  C   UNL     1       1.229  -7.178   3.558  0.00  0.00    +0.002 A 
ATOM      8  C   UNL     1       1.891  -7.106   4.770  0.00  0.00    +0.005 A 
ATOM      9  C   UNL     1       1.171  -7.073   5.949  0.00  0.00    -0.030 A 
ATOM     10  C   UNL     1      -0.210  -7.112   5.917  0.00  0.00    +0.005 A 
ATOM     11  C   UNL     1      -0.872  -7.180   4.705  0.00  0.00    +0.002 A 
BRANCH   6  12
ATOM     12  C   UNL     1      -0.873  -7.297   2.205  0.00  0.00    -0.043 C 
BRANCH  12  17
ATOM     13  C   UNL     1      -1.344  -2.394  -0.669  0.00  0.00    +0.007 C 
ATOM     14  C   UNL     1      -1.004  -3.831  -0.271  0.00  0.00    -0.018 C 
ATOM     15  C   UNL     1      -2.296  -4.603   0.013  0.00  0.00    -0.016 C 
ATOM     16  C   UNL     1      -1.946  -6.015   0.487  0.00  0.00    -0.078 C 
ATOM     17  N   UNL     1      -1.140  -5.939   1.712  0.00  0.00    +0.382 N 
ATOM     18  C   UNL     1       0.132  -5.264   1.429  0.00  0.00    -0.078 C 
ATOM     19  C   UNL     1      -0.138  -3.822   0.992  0.00  0.00    -0.016 C 
ATOM     20  H   UNL     1      -1.646  -5.421   2.414  0.00  0.00    -0.081 HD
ENDBRANCH  12  17
ENDBRANCH   6  12
ENDBRANCH   5   9
ENDBRANCH   1   5
BRANCH   2  21
ATOM     21  C   UNL     1       2.918  -3.832   9.166  0.00  0.00    +0.226 C 
BRANCH  21  22
ATOM     22  N   UNL     1       3.619  -3.756  10.450  0.00  0.00    -0.199 N 
BRANCH  22  23
ATOM     23  C   UNL     1       5.014  -3.822  10.489  0.00  0.00    +0.051 A 
ATOM     24  C   UNL     1       5.643  -4.820  11.223  0.00  0.00    +0.025 A 
ATOM     25  C   UNL     1       7.022  -4.883  11.259  0.00  0.00    +0.006 A 
ATOM     26  C   UNL     1       7.777  -3.954  10.567  0.00  0.00    -0.042 A 
ATOM     27  C   UNL     1       7.153  -2.959   9.836  0.00  0.00    +0.006 A 
ATOM     28  C   UNL     1       5.775  -2.893   9.790  0.00  0.00    +0.025 A 
BRANCH  26  29
ATOM     29  C   UNL     1       9.281  -4.025  10.609  0.00  0.00    -0.013 C 
ATOM     30  C   UNL     1       9.744  -5.370  10.048  0.00  0.00    +0.015 C 
ATOM     31  C   UNL     1       9.870  -2.891   9.767  0.00  0.00    +0.015 C 
ATOM     32  C   UNL     1       9.758  -3.885  12.057  0.00  0.00    +0.015 C 
ENDBRANCH  26  29
ENDBRANCH  22  23
BRANCH  22  33
ATOM     33  S   UNL     1       2.758  -3.592  11.855  0.00  0.00    +0.043 S 
ATOM     34  O   UNL     1       3.692  -3.077  12.795  0.00  0.00    -0.155 OA
ATOM     35  O   UNL     1       1.609  -2.840  11.490  0.00  0.00    -0.155 OA
ATOM     36  C   UNL     1       2.281  -5.282  12.309  0.00  0.00    +0.218 C 
ENDBRANCH  22  33
ENDBRANCH  21  22
ENDBRANCH   2  21
TORSDOF 9
