REMARK  Name = ZINC39934235
REMARK  13 active torsions:
REMARK  status: ('A' for Active; 'I' for Inactive)
REMARK    1  A    between atoms: C_1  and  C_2
REMARK    2  A    between atoms: C_2  and  N_3
REMARK    3  A    between atoms: N_3  and  C_4
REMARK    4  A    between atoms: N_3  and  S_6
REMARK    5  A    between atoms: C_4  and  C_5
REMARK    6  A    between atoms: S_6  and  C_9
REMARK    7  A    between atoms: C_12  and  C_15
REMARK    8  A    between atoms: C_15  and  C_17
REMARK    9  A    between atoms: C_15  and  N_18
REMARK   10  A    between atoms: N_18  and  C_19
REMARK   11  A    between atoms: C_19  and  C_20
REMARK   12  A    between atoms: N_22  and  C_23
REMARK   13  A    between atoms: N_22  and  C_31
REMARK                            x       y       z     vdW  Elec       q    Type
REMARK                         _______ _______ _______ _____ _____    ______ ____
ROOT
ATOM      1  N   UNL     1      -5.683   4.601   2.480  0.00  0.00    +0.389 N 
ATOM      2  H   UNL     1      -5.115   4.774   1.664  0.00  0.00    -0.084 HD
ATOM      3  H   UNL     1      -6.426   3.961   2.244  0.00  0.00    -0.084 HD
ENDROOT
BRANCH   1   4
ATOM      4  C   UNL     1      -4.851   4.017   3.541  0.00  0.00    -0.043 C 
ATOM      5  C   UNL     1      -5.734   3.641   4.732  0.00  0.00    -0.009 C 
BRANCH   4   9
ATOM      6  C   UNL     1      -2.898   0.520   2.057  0.00  0.00    +0.105 A 
ATOM      7  C   UNL     1      -2.216   1.395   2.882  0.00  0.00    +0.029 A 
ATOM      8  C   UNL     1      -2.848   2.527   3.362  0.00  0.00    +0.004 A 
ATOM      9  C   UNL     1      -4.162   2.784   3.017  0.00  0.00    -0.062 A 
ATOM     10  C   UNL     1      -4.843   1.909   2.192  0.00  0.00    +0.004 A 
ATOM     11  C   UNL     1      -4.210   0.779   1.708  0.00  0.00    +0.029 A 
BRANCH   6  12
ATOM     12  S   UNL     1      -2.092  -0.923   1.446  0.00  0.00    +0.061 S 
ATOM     13  O   UNL     1      -3.116  -1.857   1.131  0.00  0.00    -0.153 OA
ATOM     14  O   UNL     1      -1.043  -1.220   2.357  0.00  0.00    -0.153 OA
BRANCH  12  15
ATOM     15  N   UNL     1      -1.371  -0.511   0.013  0.00  0.00    -0.177 NA
BRANCH  15  17
ATOM     16  C   UNL     1      -0.018   1.526   0.012  0.00  0.00    +0.022 C 
ATOM     17  C   UNL     1       0.003  -0.004   0.003  0.00  0.00    +0.106 C 
ENDBRANCH  15  17
BRANCH  15  18
ATOM     18  C   UNL     1      -2.108  -0.653  -1.246  0.00  0.00    +0.106 C 
ATOM     19  C   UNL     1      -1.771  -2.002  -1.884  0.00  0.00    +0.022 C 
ENDBRANCH  15  18
ENDBRANCH  12  15
ENDBRANCH   6  12
ENDBRANCH   4   9
ENDBRANCH   1   4
BRANCH   1  20
ATOM     20  C   UNL     1      -6.260   5.867   2.952  0.00  0.00    +0.016 C 
BRANCH  20  21
ATOM     21  C   UNL     1      -7.113   6.467   1.864  0.00  0.00    +0.199 C 
ATOM     22  O   UNL     1      -7.157   5.944   0.770  0.00  0.00    -0.278 OA
ATOM     23  N   UNL     1      -7.827   7.584   2.106  0.00  0.00    -0.295 N 
BRANCH  23  24
ATOM     24  C   UNL     1      -8.742   8.104   1.086  0.00  0.00    +0.099 C 
ATOM     25  C   UNL     1      -9.790   7.035   0.735  0.00  0.00    +0.046 C 
ATOM     26  C   UNL     1     -10.551   7.444  -0.550  0.00  0.00    +0.168 C 
ATOM     27  S   UNL     1      -9.311   8.465  -1.446  0.00  0.00    -0.029 S 
ATOM     28  O   UNL     1      -9.805   9.791  -1.569  0.00  0.00    -0.174 OA
ATOM     29  O   UNL     1      -8.890   7.765  -2.609  0.00  0.00    -0.174 OA
ATOM     30  C   UNL     1      -7.947   8.445  -0.207  0.00  0.00    +0.188 C 
ENDBRANCH  23  24
BRANCH  23  31
ATOM     31  C   UNL     1      -7.690   8.278   3.388  0.00  0.00    +0.076 C 
ATOM     32  C   UNL     1      -9.039   8.279   4.136  0.00  0.00    +0.022 C 
ATOM     33  C   UNL     1      -9.090   9.665   4.825  0.00  0.00    +0.002 C 
ATOM     34  C   UNL     1      -8.452  10.597   3.765  0.00  0.00    +0.002 C 
ATOM     35  C   UNL     1      -7.316   9.752   3.153  0.00  0.00    +0.022 C 
ENDBRANCH  23  31
ENDBRANCH  20  21
ENDBRANCH   1  20
TORSDOF 10
