REMARK  Name = ZINC40314518
REMARK  12 active torsions:
REMARK  status: ('A' for Active; 'I' for Inactive)
REMARK    1  A    between atoms: C_1  and  O_2
REMARK    2  A    between atoms: O_2  and  C_3
REMARK    3  A    between atoms: C_6  and  O_9
REMARK    4  A    between atoms: O_9  and  C_10
REMARK    5  A    between atoms: C_10  and  C_11
REMARK    6  A    between atoms: C_11  and  C_13
REMARK    7  A    between atoms: C_11  and  O_36
REMARK    8  A    between atoms: C_13  and  N_14
REMARK    9  A    between atoms: N_14  and  C_15
REMARK   10  A    between atoms: N_14  and  C_28
REMARK   11  A    between atoms: C_15  and  C_16
REMARK   12  A    between atoms: C_19  and  C_21
REMARK                            x       y       z     vdW  Elec       q    Type
REMARK                         _______ _______ _______ _____ _____    ______ ____
ROOT
ATOM      1  N   UNL     1       3.589  -6.319   6.831  0.00  0.00    +0.389 N 
ATOM      2  H   UNL     1       3.440  -6.499   7.812  0.00  0.00    -0.081 HD
ENDROOT
BRANCH   1   3
ATOM      3  C   UNL     1       4.750  -5.434   6.667  0.00  0.00    -0.045 C 
ATOM      4  C   UNL     1       5.323  -5.586   5.248  0.00  0.00    +0.009 C 
ATOM      5  C   UNL     1       6.715  -4.914   5.166  0.00  0.00    +0.164 C 
ATOM      6  S   UNL     1       7.332  -5.053   6.892  0.00  0.00    -0.033 S 
ATOM      7  O   UNL     1       7.508  -3.748   7.427  0.00  0.00    -0.174 OA
ATOM      8  O   UNL     1       8.415  -5.972   6.924  0.00  0.00    -0.174 OA
ATOM      9  C   UNL     1       5.861  -5.832   7.681  0.00  0.00    +0.151 C 
ENDBRANCH   1   3
BRANCH   1  10
ATOM     10  C   UNL     1       2.398  -5.673   6.264  0.00  0.00    -0.043 C 
BRANCH  10  11
ATOM     11  C   UNL     1       1.978  -4.504   7.157  0.00  0.00    +0.135 C 
BRANCH  11  12
ATOM     12  O   UNL     1       2.939  -3.452   7.047  0.00  0.00    -0.390 OA
ATOM     13  H   UNL     1       2.985  -3.052   6.168  0.00  0.00    +0.210 HD
ENDBRANCH  11  12
BRANCH  11  14
ATOM     14  C   UNL     1       0.607  -3.990   6.713  0.00  0.00    +0.258 C 
BRANCH  14  15
ATOM     15  O   UNL     1       0.163  -2.977   7.617  0.00  0.00    -0.489 OA
BRANCH  15  19
ATOM     16  C   UNL     1      -3.511  -1.258   6.848  0.00  0.00    +0.120 A 
ATOM     17  C   UNL     1      -2.768  -0.846   7.944  0.00  0.00    +0.049 A 
ATOM     18  C   UNL     1      -1.539  -1.421   8.202  0.00  0.00    +0.049 A 
ATOM     19  C   UNL     1      -1.048  -2.411   7.364  0.00  0.00    +0.121 A 
ATOM     20  C   UNL     1      -1.791  -2.824   6.268  0.00  0.00    +0.049 A 
ATOM     21  C   UNL     1      -3.022  -2.252   6.013  0.00  0.00    +0.049 A 
BRANCH  16  23
ATOM     22  C   UNL     1      -5.163   0.325   7.495  0.00  0.00    +0.277 C 
ATOM     23  O   UNL     1      -4.721  -0.692   6.595  0.00  0.00    -0.495 OA
ENDBRANCH  16  23
ENDBRANCH  15  19
ENDBRANCH  14  15
ENDBRANCH  11  14
ENDBRANCH  10  11
ENDBRANCH   1  10
BRANCH   1  24
ATOM     24  C   UNL     1       3.838  -7.588   6.132  0.00  0.00    -0.003 C 
BRANCH  24  25
ATOM     25  C   UNL     1       4.973  -8.317   6.804  0.00  0.00    +0.089 A 
ATOM     26  C   UNL     1       4.867  -9.100   7.895  0.00  0.00    +0.043 A 
ATOM     27  C   UNL     1       6.160  -9.581   8.185  0.00  0.00    +0.050 A 
ATOM     28  C   UNL     1       6.992  -9.058   7.245  0.00  0.00    +0.135 A 
ATOM     29  O   UNL     1       6.257  -8.298   6.411  0.00  0.00    -0.462 OA
BRANCH  28  30
ATOM     30  C   UNL     1       8.449  -9.289   7.152  0.00  0.00    +0.019 A 
ATOM     31  C   UNL     1       9.076 -10.172   8.033  0.00  0.00    +0.011 A 
ATOM     32  C   UNL     1      10.437 -10.383   7.941  0.00  0.00    +0.002 A 
ATOM     33  C   UNL     1      11.179  -9.723   6.978  0.00  0.00    +0.020 A 
ATOM     34  C   UNL     1      10.564  -8.845   6.102  0.00  0.00    +0.042 A 
ATOM     35  C   UNL     1       9.202  -8.630   6.179  0.00  0.00    +0.031 A 
ATOM     36 CL   UNL     1      11.504  -8.021   4.898  0.00  0.00    -0.084 Cl
ENDBRANCH  28  30
ENDBRANCH  24  25
ENDBRANCH   1  24
TORSDOF 11
