REMARK  Name = ZINC63399610
REMARK  9 active torsions:
REMARK  status: ('A' for Active; 'I' for Inactive)
REMARK    1  A    between atoms: C_1  and  C_2
REMARK    2  A    between atoms: C_6  and  N_9
REMARK    3  A    between atoms: C_7  and  C_8
REMARK    4  A    between atoms: C_10  and  C_12
REMARK    5  A    between atoms: C_12  and  N_13
REMARK    6  A    between atoms: C_19  and  C_21
REMARK    7  A    between atoms: C_21  and  C_22
REMARK    8  A    between atoms: C_22  and  C_23
REMARK    9  A    between atoms: C_23  and  C_24
REMARK                            x       y       z     vdW  Elec       q    Type
REMARK                         _______ _______ _______ _____ _____    ______ ____
ROOT
ATOM      1  N   UNL     1      -0.208  -6.339   3.410  0.00  0.00    -0.291 NA
ATOM      2  C   UNL     1       1.038  -6.828   2.805  0.00  0.00    +0.104 C 
ATOM      3  C   UNL     1       0.852  -8.285   2.368  0.00  0.00    +0.123 C 
ATOM      4  N   UNL     1       0.374  -9.062   3.522  0.00  0.00    -0.299 N 
ATOM      5  C   UNL     1      -0.791  -8.559   4.265  0.00  0.00    +0.123 C 
ATOM      6  C   UNL     1      -0.540  -7.091   4.627  0.00  0.00    +0.104 C 
ATOM      7  C   UNL     1       0.988 -10.205   3.889  0.00  0.00    +0.216 C 
ATOM      8  O   UNL     1       1.947 -10.605   3.264  0.00  0.00    -0.276 OA
ENDROOT
BRANCH   1   9
ATOM      9  C   UNL     1      -0.129  -4.898   3.686  0.00  0.00    +0.180 C 
BRANCH   9  11
ATOM     10  N   UNL     1       0.052  -2.797   2.393  0.00  0.00    -0.284 N 
ATOM     11  C   UNL     1      -0.031  -4.143   2.385  0.00  0.00    +0.231 C 
ATOM     12  O   UNL     1      -0.028  -4.745   1.333  0.00  0.00    -0.274 OA
ATOM     13  H   UNL     1       0.130  -2.321   3.234  0.00  0.00    +0.155 HD
BRANCH  10  19
ATOM     14  C   UNL     1       1.206   1.236  -0.172  0.00  0.00    +0.044 C 
ATOM     15  C   UNL     1       0.577  -0.131  -0.084  0.00  0.00    -0.046 A 
ATOM     16  C   UNL     1      -0.027  -0.686  -1.198  0.00  0.00    +0.004 A 
ATOM     17  C   UNL     1      -0.605  -1.940  -1.122  0.00  0.00    +0.002 A 
ATOM     18  C   UNL     1      -0.580  -2.642   0.067  0.00  0.00    +0.023 A 
ATOM     19  C   UNL     1       0.026  -2.088   1.187  0.00  0.00    +0.037 A 
ATOM     20  C   UNL     1       0.610  -0.831   1.106  0.00  0.00    -0.026 A 
ATOM     21  C   UNL     1       1.274  -0.228   2.317  0.00  0.00    +0.046 C 
ENDBRANCH  10  19
ENDBRANCH   9  11
ENDBRANCH   1   9
BRANCH   7  22
ATOM     22  C   UNL     1       0.481 -10.985   5.074  0.00  0.00    +0.096 C 
BRANCH  22  23
ATOM     23  C   UNL     1       1.347 -12.230   5.273  0.00  0.00    +0.014 C 
BRANCH  23  24
ATOM     24  C   UNL     1       0.833 -13.022   6.477  0.00  0.00    +0.033 C 
BRANCH  24  25
ATOM     25  C   UNL     1       1.686 -14.248   6.673  0.00  0.00    -0.042 C 
ATOM     26  C   UNL     1       2.745 -14.378   7.505  0.00  0.00    -0.001 A 
ATOM     27  C   UNL     1       3.396 -13.450   8.438  0.00  0.00    +0.010 A 
ATOM     28  C   UNL     1       4.463 -13.878   9.150  0.00  0.00    +0.001 A 
ATOM     29  C   UNL     1       4.963 -15.181   9.019  0.00  0.00    +0.002 A 
ATOM     30  C   UNL     1       4.420 -16.089   8.182  0.00  0.00    +0.026 A 
ATOM     31  C   UNL     1       3.292 -15.748   7.385  0.00  0.00    +0.043 A 
ATOM     32  N   UNL     1       2.598 -16.439   6.513  0.00  0.00    -0.380 N 
ATOM     33  C   UNL     1       1.528 -15.586   5.986  0.00  0.00    +0.144 C 
ATOM     34  H   UNL     1       2.763 -17.361   6.262  0.00  0.00    +0.160 HD
ENDBRANCH  24  25
ENDBRANCH  23  24
ENDBRANCH  22  23
ENDBRANCH   7  22
TORSDOF 7
