REMARK  Name = ZINC13955454
REMARK  9 active torsions:
REMARK  status: ('A' for Active; 'I' for Inactive)
REMARK    1  A    between atoms: C_1  and  C_2
REMARK    2  A    between atoms: C_5  and  C_9
REMARK    3  A    between atoms: C_6  and  O_8
REMARK    4  A    between atoms: N_10  and  N_11
REMARK    5  A    between atoms: C_12  and  C_14
REMARK    6  A    between atoms: C_14  and  O_15
REMARK    7  A    between atoms: O_15  and  C_16
REMARK    8  A    between atoms: C_20  and  C_23
REMARK    9  A    between atoms: C_21  and  C_22
REMARK                            x       y       z     vdW  Elec       q    Type
REMARK                         _______ _______ _______ _____ _____    ______ ____
ROOT
ATOM      1  N   UNL     1       0.228   2.087  -2.606  0.00  0.00    -0.204 N 
ATOM      2  C   UNL     1      -0.082   2.560  -1.383  0.00  0.00    +0.270 C 
ATOM      3  O   UNL     1      -1.200   2.972  -1.157  0.00  0.00    -0.270 OA
ATOM      4  H   UNL     1       1.122   1.757  -2.786  0.00  0.00    +0.177 HD
ENDROOT
BRANCH   1   6
ATOM      5  C   UNL     1      -0.478   1.517  -4.761  0.00  0.00    +0.142 C 
ATOM      6  N   UNL     1      -0.742   2.070  -3.617  0.00  0.00    -0.188 NA
BRANCH   5  11
ATOM      7  C   UNL     1       4.239  -1.722  -5.364  0.00  0.00    +0.044 C 
ATOM      8  C   UNL     1       3.004  -0.873  -5.209  0.00  0.00    -0.047 A 
ATOM      9  C   UNL     1       2.422  -0.726  -3.961  0.00  0.00    +0.004 A 
ATOM     10  C   UNL     1       1.292   0.049  -3.808  0.00  0.00    +0.013 A 
ATOM     11  C   UNL     1       0.731   0.688  -4.917  0.00  0.00    +0.036 A 
ATOM     12  C   UNL     1       1.319   0.531  -6.179  0.00  0.00    +0.126 A 
ATOM     13  C   UNL     1       2.458  -0.247  -6.313  0.00  0.00    +0.049 A 
BRANCH  12  14
ATOM     14  O   UNL     1       0.779   1.142  -7.264  0.00  0.00    -0.506 OA
ATOM     15  H   UNL     1       1.071   2.056  -7.387  0.00  0.00    +0.292 HD
ENDBRANCH  12  14
ENDBRANCH   5  11
ENDBRANCH   1   6
BRANCH   2  16
ATOM     16  C   UNL     1       0.961   2.578  -0.295  0.00  0.00    +0.326 C 
BRANCH  16  17
ATOM     17  O   UNL     1       0.395   3.120   0.899  0.00  0.00    -0.482 OA
BRANCH  17  18
ATOM     18  C   UNL     1       1.210   3.207   1.984  0.00  0.00    +0.124 A 
ATOM     19  C   UNL     1       2.526   2.779   1.900  0.00  0.00    +0.046 A 
ATOM     20  C   UNL     1       3.352   2.868   3.004  0.00  0.00    +0.004 A 
ATOM     21  C   UNL     1       2.867   3.384   4.192  0.00  0.00    +0.004 A 
ATOM     22  C   UNL     1       1.555   3.812   4.278  0.00  0.00    -0.044 A 
ATOM     23  C   UNL     1       0.727   3.730   3.175  0.00  0.00    -0.006 A 
ATOM     24  C   UNL     1      -0.701   4.202   3.268  0.00  0.00    +0.048 C 
ATOM     25  C   UNL     1       1.030   4.373   5.574  0.00  0.00    +0.044 C 
ENDBRANCH  17  18
ENDBRANCH  16  17
ENDBRANCH   2  16
TORSDOF 6
