REMARK  Name = ZINC65575493
REMARK  7 active torsions:
REMARK  status: ('A' for Active; 'I' for Inactive)
REMARK    1  A    between atoms: C_1  and  C_2
REMARK    2  A    between atoms: C_2  and  C_4
REMARK    3  A    between atoms: C_2  and  N_11
REMARK    4  A    between atoms: C_12  and  C_14
REMARK    5  A    between atoms: C_14  and  C_16
REMARK    6  A    between atoms: C_14  and  N_17
REMARK    7  A    between atoms: C_18  and  C_23
REMARK                            x       y       z     vdW  Elec       q    Type
REMARK                         _______ _______ _______ _____ _____    ______ ____
ROOT
ATOM      1  N   UNL     1       0.688  -0.476  -1.203  0.00  0.00    -0.307 N 
ATOM      2  C   UNL     1       0.006  -0.608  -2.358  0.00  0.00    +0.236 C 
ATOM      3  O   UNL     1      -1.175  -0.336  -2.400  0.00  0.00    -0.274 OA
ATOM      4  H   UNL     1       1.632  -0.695  -1.170  0.00  0.00    +0.149 HD
ENDROOT
BRANCH   1   6
ATOM      5  C   UNL     1      -0.019   1.526   0.010  0.00  0.00    +0.033 C 
ATOM      6  C   UNL     1       0.002  -0.004   0.002  0.00  0.00    +0.101 C 
BRANCH   6   7
ATOM      7  C   UNL     1       0.731  -0.503   1.223  0.00  0.00    -0.014 A 
ATOM      8  C   UNL     1       2.077  -0.808   1.148  0.00  0.00    +0.006 A 
ATOM      9  C   UNL     1       2.746  -1.266   2.268  0.00  0.00    +0.000 A 
ATOM     10  C   UNL     1       2.069  -1.419   3.463  0.00  0.00    +0.001 A 
ATOM     11  C   UNL     1       0.723  -1.114   3.539  0.00  0.00    +0.015 A 
ATOM     12  C   UNL     1       0.054  -0.651   2.420  0.00  0.00    +0.023 A 
ATOM     13 BR   UNL     1      -1.786  -0.228   2.525  0.00  0.00    -0.050 Br
ENDBRANCH   6   7
ENDBRANCH   1   6
BRANCH   2  14
ATOM     14  C   UNL     1       0.712  -1.094  -3.598  0.00  0.00    +0.174 C 
ATOM     15  C   UNL     1       1.849  -0.133  -3.948  0.00  0.00    +0.041 C 
BRANCH  14  16
ATOM     16  N   UNL     1      -0.240  -1.150  -4.711  0.00  0.00    -0.289 N 
ATOM     17  C   UNL     1      -0.601  -2.260  -5.442  0.00  0.00    +0.172 A 
ATOM     18  N   UNL     1      -1.477  -1.861  -6.339  0.00  0.00    -0.128 NA
ATOM     19  N   UNL     1      -1.683  -0.599  -6.219  0.00  0.00    -0.121 NA
ATOM     20  C   UNL     1      -0.959  -0.113  -5.237  0.00  0.00    +0.203 A 
ATOM     21  S   UNL     1      -0.917   1.565  -4.700  0.00  0.00    -0.009 SA
BRANCH  17  22
ATOM     22  C   UNL     1      -0.102  -3.632  -5.256  0.00  0.00    +0.056 A 
ATOM     23  C   UNL     1      -0.605  -4.809  -5.749  0.00  0.00    +0.019 A 
ATOM     24  C   UNL     1       0.040  -5.985  -5.437  0.00  0.00    +0.008 A 
ATOM     25  C   UNL     1       1.149  -5.945  -4.654  0.00  0.00    +0.046 A 
ATOM     26  S   UNL     1       1.320  -4.197  -4.335  0.00  0.00    -0.094 S 
ENDBRANCH  17  22
ENDBRANCH  14  16
ENDBRANCH   2  14
TORSDOF 5
