REMARK  Name = ZINC40142801
REMARK  5 active torsions:
REMARK  status: ('A' for Active; 'I' for Inactive)
REMARK    1  A    between atoms: C_3  and  C_16
REMARK    2  A    between atoms: C_5  and  N_7
REMARK    3  A    between atoms: N_7  and  S_8
REMARK    4  A    between atoms: S_8  and  C_11
REMARK    5  A    between atoms: N_18  and  C_19
REMARK                            x       y       z     vdW  Elec       q    Type
REMARK                         _______ _______ _______ _____ _____    ______ ____
ROOT
ATOM      1  C   UNL     1      -0.017   1.378   0.010  0.00  0.00    +0.003 A 
ATOM      2  C   UNL     1       1.166   2.089   0.002  0.00  0.00    +0.013 A 
ATOM      3  C   UNL     1       2.387   1.412  -0.014  0.00  0.00    +0.039 A 
ATOM      4  C   UNL     1       2.406   0.018  -0.021  0.00  0.00    +0.039 A 
ATOM      5  C   UNL     1       1.213  -0.687  -0.013  0.00  0.00    +0.075 A 
ATOM      6  C   UNL     1       0.002  -0.004   0.002  0.00  0.00    +0.027 A 
ENDROOT
BRANCH   3   7
ATOM      7  C   UNL     1       3.656   2.172  -0.023  0.00  0.00    +0.245 C 
ATOM      8  O   UNL     1       4.718   1.581  -0.036  0.00  0.00    -0.270 OA
ATOM      9  N   UNL     1       3.635   3.519  -0.016  0.00  0.00    -0.306 N 
ATOM     10  H   UNL     1       2.787   3.991  -0.005  0.00  0.00    +0.150 HD
BRANCH   9  11
ATOM     11  C   UNL     1       4.892   4.272  -0.025  0.00  0.00    +0.036 C 
ATOM     12  C   UNL     1       5.687   3.921  -1.284  0.00  0.00    +0.029 C 
ATOM     13  C   UNL     1       7.000   4.707  -1.293  0.00  0.00    -0.008 C 
ATOM     14  C   UNL     1       6.697   6.207  -1.282  0.00  0.00    +0.007 C 
ATOM     15  C   UNL     1       5.901   6.557  -0.023  0.00  0.00    -0.008 C 
ATOM     16  C   UNL     1       4.588   5.771  -0.014  0.00  0.00    +0.029 C 
ATOM     17  C   UNL     1       6.722   6.194   1.216  0.00  0.00    +0.007 C 
ATOM     18  C   UNL     1       7.025   4.694   1.205  0.00  0.00    -0.008 C 
ATOM     19  C   UNL     1       7.820   4.344  -0.054  0.00  0.00    +0.007 C 
ATOM     20  C   UNL     1       5.712   3.909   1.215  0.00  0.00    +0.029 C 
ENDBRANCH   9  11
ENDBRANCH   3   7
BRANCH   5  21
ATOM     21  N   UNL     1       1.226  -2.084  -0.021  0.00  0.00    -0.097 NA
BRANCH  21  22
ATOM     22  S   UNL     1      -0.200  -2.926  -0.012  0.00  0.00    +0.098 S 
ATOM     23  O   UNL     1      -0.817  -2.666   1.241  0.00  0.00    -0.148 OA
ATOM     24  O   UNL     1      -0.842  -2.651  -1.249  0.00  0.00    -0.148 OA
BRANCH  22  25
ATOM     25  C   UNL     1       0.208  -4.641  -0.026  0.00  0.00    +0.148 A 
ATOM     26  C   UNL     1       0.410  -5.478   1.020  0.00  0.00    +0.037 A 
ATOM     27  C   UNL     1       0.723  -6.801   0.769  0.00  0.00    +0.010 A 
ATOM     28  C   UNL     1       0.818  -7.221  -0.516  0.00  0.00    +0.047 A 
ATOM     29  S   UNL     1       0.453  -5.727  -1.421  0.00  0.00    -0.077 S 
ENDBRANCH  22  25
ENDBRANCH  21  22
ENDBRANCH   5  21
TORSDOF 5
