REMARK  Name = ZINC63270110
REMARK  10 active torsions:
REMARK  status: ('A' for Active; 'I' for Inactive)
REMARK    1  A    between atoms: C_1  and  O_2
REMARK    2  A    between atoms: O_2  and  C_3
REMARK    3  A    between atoms: C_9  and  C_12
REMARK    4  A    between atoms: C_12  and  C_13
REMARK    5  A    between atoms: C_13  and  N_14
REMARK    6  A    between atoms: C_17  and  C_22
REMARK    7  A    between atoms: C_20  and  O_21
REMARK    8  A    between atoms: C_22  and  C_23
REMARK    9  A    between atoms: C_23  and  C_24
REMARK   10  A    between atoms: N_26  and  C_27
REMARK                            x       y       z     vdW  Elec       q    Type
REMARK                         _______ _______ _______ _____ _____    ______ ____
ROOT
ATOM      1  N   UNL     1       1.793  -6.755  -0.031  0.00  0.00    -0.224 N 
ATOM      2  C   UNL     1       1.929  -8.041   0.356  0.00  0.00    +0.248 C 
ATOM      3  O   UNL     1       2.418  -8.454   1.385  0.00  0.00    -0.273 OA
ATOM      4  C   UNL     1       1.335  -8.856  -0.776  0.00  0.00    +0.197 C 
ATOM      5  N   UNL     1       0.898  -7.843  -1.750  0.00  0.00    -0.224 NA
ATOM      6  C   UNL     1       1.184  -6.680  -1.258  0.00  0.00    +0.285 C 
ENDROOT
BRANCH   6   7
ATOM      7  O   UNL     1       0.916  -5.516  -1.888  0.00  0.00    -0.481 OA
ATOM      8  H   UNL     1       0.483  -5.624  -2.746  0.00  0.00    +0.295 HD
ENDBRANCH   6   7
BRANCH   1   9
ATOM      9  C   UNL     1       2.230  -5.598   0.754  0.00  0.00    +0.122 C 
BRANCH   9  10
ATOM     10  C   UNL     1       1.092  -5.144   1.671  0.00  0.00    +0.052 C 
BRANCH  10  17
ATOM     11  C   UNL     1       0.626  -0.619   1.042  0.00  0.00    +0.121 A 
ATOM     12  C   UNL     1       1.202   0.173   2.051  0.00  0.00    +0.047 A 
ATOM     13  C   UNL     1       1.839  -0.358   3.116  0.00  0.00    +0.029 A 
ATOM     14  C   UNL     1       1.947  -1.815   3.248  0.00  0.00    +0.043 A 
ATOM     15  N   UNL     1       2.500  -2.573   4.161  0.00  0.00    -0.380 N 
ATOM     16  C   UNL     1       2.308  -3.978   3.782  0.00  0.00    +0.144 C 
ATOM     17  C   UNL     1       1.541  -3.954   2.479  0.00  0.00    -0.040 C 
ATOM     18  C   UNL     1       1.340  -2.650   2.185  0.00  0.00    +0.002 A 
ATOM     19  C   UNL     1       0.667  -1.972   1.072  0.00  0.00    +0.055 A 
ATOM     20  H   UNL     1       2.961  -2.259   4.955  0.00  0.00    +0.160 HD
BRANCH  11  22
ATOM     21  C   UNL     1      -0.017   1.425   0.010  0.00  0.00    +0.277 C 
ATOM     22  O   UNL     1       0.002  -0.004   0.002  0.00  0.00    -0.495 OA
ENDBRANCH  11  22
ENDBRANCH  10  17
ENDBRANCH   9  10
ENDBRANCH   1   9
BRANCH   4  23
ATOM     23  C   UNL     1       2.395  -9.774  -1.391  0.00  0.00    +0.045 C 
BRANCH  23  24
ATOM     24  C   UNL     1       1.743 -10.672  -2.443  0.00  0.00    +0.098 C 
BRANCH  24  25
ATOM     25  C   UNL     1       2.787 -11.576  -3.048  0.00  0.00    +0.213 C 
ATOM     26  O   UNL     1       3.939 -11.507  -2.674  0.00  0.00    -0.276 OA
ATOM     27  N   UNL     1       2.441 -12.459  -4.005  0.00  0.00    -0.312 N 
ATOM     28  H   UNL     1       1.520 -12.514  -4.304  0.00  0.00    +0.149 HD
BRANCH  27  29
ATOM     29  C   UNL     1       3.455 -13.338  -4.593  0.00  0.00    +0.073 C 
ATOM     30  C   UNL     1       4.212 -12.562  -5.691  0.00  0.00    +0.022 C 
ATOM     31  C   UNL     1       5.535 -13.238  -5.928  0.00  0.00    +0.002 C 
ATOM     32  C   UNL     1       5.478 -14.254  -7.086  0.00  0.00    +0.000 C 
ATOM     33  C   UNL     1       4.192 -15.102  -7.073  0.00  0.00    +0.000 C 
ATOM     34  C   UNL     1       3.809 -15.548  -5.688  0.00  0.00    +0.002 C 
ATOM     35  C   UNL     1       2.803 -14.533  -5.107  0.00  0.00    +0.022 C 
ENDBRANCH  27  29
ENDBRANCH  24  25
ENDBRANCH  23  24
ENDBRANCH   4  23
TORSDOF 9
