REMARK  Name = ZINC34793510
REMARK  9 active torsions:
REMARK  status: ('A' for Active; 'I' for Inactive)
REMARK    1  A    between atoms: C_1  and  C_2
REMARK    2  A    between atoms: C_2  and  N_3
REMARK    3  A    between atoms: C_6  and  C_11
REMARK    4  A    between atoms: N_21  and  C_23
REMARK    5  A    between atoms: C_23  and  C_24
REMARK    6  A    between atoms: C_24  and  C_25
REMARK    7  A    between atoms: C_30  and  N_33
REMARK    8  A    between atoms: N_33  and  C_34
REMARK    9  A    between atoms: N_33  and  C_35
REMARK                            x       y       z     vdW  Elec       q    Type
REMARK                         _______ _______ _______ _____ _____    ______ ____
ROOT
ATOM      1  N   UNL     1       0.711  -0.489   1.189  0.00  0.00    -0.257 N 
ATOM      2  C   UNL     1       2.060  -0.680   1.102  0.00  0.00    +0.042 C 
ATOM      3  C   UNL     1       2.772  -1.125   2.157  0.00  0.00    +0.058 C 
ATOM      4  C   UNL     1       2.024  -1.405   3.445  0.00  0.00    +0.143 C 
ATOM      5  N   UNL     1       0.571  -1.168   3.436  0.00  0.00    -0.288 N 
ATOM      6  C   UNL     1       0.000  -0.716   2.302  0.00  0.00    +0.307 C 
ATOM      7  O   UNL     1      -1.198  -0.513   2.286  0.00  0.00    -0.252 OA
ATOM      8  C   UNL     1       4.136  -1.239   1.815  0.00  0.00    +0.247 C 
ATOM      9  O   UNL     1       5.006  -1.618   2.577  0.00  0.00    -0.270 OA
ATOM     10  N   UNL     1       4.348  -0.875   0.538  0.00  0.00    -0.292 N 
ATOM     11  C   UNL     1       3.047  -0.488  -0.028  0.00  0.00    +0.159 C 
ATOM     12  H   UNL     1       0.037  -1.329   4.230  0.00  0.00    +0.151 HD
ENDROOT
BRANCH   4  13
ATOM     13  C   UNL     1       2.256  -2.848   3.812  0.00  0.00    -0.004 A 
ATOM     14  C   UNL     1       1.343  -3.814   3.432  0.00  0.00    +0.008 A 
ATOM     15  C   UNL     1       1.555  -5.137   3.768  0.00  0.00    +0.020 A 
ATOM     16  C   UNL     1       2.682  -5.497   4.486  0.00  0.00    +0.042 A 
ATOM     17  C   UNL     1       3.597  -4.532   4.866  0.00  0.00    +0.040 A 
ATOM     18  C   UNL     1       3.386  -3.207   4.525  0.00  0.00    +0.048 A 
ATOM     19 CL   UNL     1       4.537  -1.996   4.996  0.00  0.00    -0.083 Cl
ATOM     20 CL   UNL     1       2.948  -7.159   4.909  0.00  0.00    -0.083 Cl
ENDBRANCH   4  13
BRANCH   1  22
ATOM     21  C   UNL     1      -0.019   1.526   0.010  0.00  0.00    +0.025 C 
ATOM     22  C   UNL     1       0.002  -0.004   0.002  0.00  0.00    +0.111 C 
ENDBRANCH   1  22
BRANCH  10  23
ATOM     23  C   UNL     1       5.636  -0.866  -0.160  0.00  0.00    +0.117 C 
BRANCH  23  24
ATOM     24  C   UNL     1       5.865  -2.224  -0.828  0.00  0.00    +0.115 C 
BRANCH  24  25
ATOM     25  C   UNL     1       7.189  -2.214  -1.546  0.00  0.00    +0.217 C 
ATOM     26  O   UNL     1       7.883  -1.220  -1.525  0.00  0.00    -0.276 OA
ATOM     27  N   UNL     1       7.604  -3.311  -2.210  0.00  0.00    -0.302 N 
ATOM     28  C   UNL     1       6.772  -4.522  -2.249  0.00  0.00    +0.106 C 
ATOM     29  C   UNL     1       6.566  -4.932  -3.711  0.00  0.00    +0.004 C 
ATOM     30  C   UNL     1       7.929  -5.084  -4.390  0.00  0.00    -0.066 C 
ATOM     31  C   UNL     1       8.667  -3.743  -4.364  0.00  0.00    +0.004 C 
ATOM     32  C   UNL     1       8.893  -3.317  -2.915  0.00  0.00    +0.106 C 
BRANCH  30  33
ATOM     33  N   UNL     1       7.737  -5.510  -5.783  0.00  0.00    +0.378 N 
ATOM     34  C   UNL     1       9.045  -5.656  -6.435  0.00  0.00    -0.096 C 
ATOM     35  C   UNL     1       7.031  -6.798  -5.808  0.00  0.00    -0.096 C 
ATOM     36  H   UNL     1       7.192  -4.818  -6.274  0.00  0.00    -0.082 HD
ENDBRANCH  30  33
ENDBRANCH  24  25
ENDBRANCH  23  24
ENDBRANCH  10  23
TORSDOF 6
