REMARK  Name = ZINC22473315
REMARK  11 active torsions:
REMARK  status: ('A' for Active; 'I' for Inactive)
REMARK    1  A    between atoms: C_1  and  O_2
REMARK    2  A    between atoms: O_2  and  C_3
REMARK    3  A    between atoms: C_6  and  C_12
REMARK    4  A    between atoms: C_8  and  N_9
REMARK    5  A    between atoms: N_14  and  C_15
REMARK    6  A    between atoms: N_14  and  C_30
REMARK    7  A    between atoms: C_15  and  C_16
REMARK    8  A    between atoms: C_16  and  C_17
REMARK    9  A    between atoms: C_17  and  N_18
REMARK   10  A    between atoms: C_21  and  O_22
REMARK   11  A    between atoms: C_30  and  C_31
REMARK                            x       y       z     vdW  Elec       q    Type
REMARK                         _______ _______ _______ _____ _____    ______ ____
ROOT
ATOM      1  C   UNL     1      -2.848   3.930   0.543  0.00  0.00    +0.247 C 
ATOM      2  O   UNL     1      -1.745   3.439   0.685  0.00  0.00    -0.270 OA
ATOM      3  N   UNL     1      -3.875   3.169   0.117  0.00  0.00    -0.293 N 
ENDROOT
BRANCH   1   7
ATOM      4  C   UNL     1      -3.465   8.046   1.391  0.00  0.00    +0.150 A 
ATOM      5  C   UNL     1      -4.246   7.411   0.432  0.00  0.00    +0.049 A 
ATOM      6  C   UNL     1      -4.053   6.075   0.159  0.00  0.00    +0.017 A 
ATOM      7  C   UNL     1      -3.062   5.361   0.838  0.00  0.00    +0.039 A 
ATOM      8  C   UNL     1      -2.280   6.003   1.801  0.00  0.00    +0.049 A 
ATOM      9  C   UNL     1      -2.483   7.337   2.073  0.00  0.00    +0.168 A 
BRANCH   9  10
ATOM     10  N   UNL     1      -1.654   8.018   3.093  0.00  0.00    +0.060 N 
ATOM     11  O   UNL     1      -0.793   7.398   3.691  0.00  0.00    -0.126 OA
ATOM     12  O   UNL     1      -1.833   9.198   3.334  0.00  0.00    -0.126 OA
ENDBRANCH   9  10
BRANCH   4  14
ATOM     13  C   UNL     1      -4.688  10.028   0.925  0.00  0.00    +0.277 C 
ATOM     14  O   UNL     1      -3.662   9.361   1.662  0.00  0.00    -0.493 OA
ENDBRANCH   4  14
ENDBRANCH   1   7
BRANCH   3  15
ATOM     15  C   UNL     1      -5.168   3.787  -0.188  0.00  0.00    +0.110 C 
BRANCH  15  16
ATOM     16  C   UNL     1      -5.278   4.020  -1.696  0.00  0.00    +0.040 C 
BRANCH  16  17
ATOM     17  C   UNL     1      -6.629   4.665  -2.015  0.00  0.00    +0.114 C 
BRANCH  17  18
ATOM     18  N   UNL     1      -6.734   4.888  -3.459  0.00  0.00    -0.384 N 
ATOM     19  C   UNL     1      -7.870   5.463  -3.985  0.00  0.00    +0.053 A 
ATOM     20  C   UNL     1      -8.914   5.833  -3.178  0.00  0.00    +0.113 A 
ATOM     21  C   UNL     1     -10.056   6.415  -3.743  0.00  0.00    +0.286 A 
ATOM     22  O   UNL     1     -10.165   6.624  -5.065  0.00  0.00    -0.425 OA
ATOM     23  C   UNL     1      -9.178   6.285  -5.922  0.00  0.00    +0.141 A 
ATOM     24  C   UNL     1      -7.998   5.703  -5.433  0.00  0.00    +0.041 A 
ATOM     25  C   UNL     1      -6.972   5.357  -6.313  0.00  0.00    +0.013 A 
ATOM     26  C   UNL     1      -7.124   5.596  -7.662  0.00  0.00    +0.001 A 
ATOM     27  C   UNL     1      -8.287   6.176  -8.144  0.00  0.00    +0.004 A 
ATOM     28  C   UNL     1      -9.313   6.512  -7.285  0.00  0.00    +0.047 A 
ATOM     29  H   UNL     1      -5.907   4.597  -4.122  0.00  0.00    +0.160 HD
BRANCH  21  30
ATOM     30  O   UNL     1     -10.977   6.740  -3.014  0.00  0.00    -0.480 OA
ATOM     31  H   UNL     1     -11.882   7.198  -3.441  0.00  0.00    +0.295 HD
ENDBRANCH  21  30
ENDBRANCH  17  18
ENDBRANCH  16  17
ENDBRANCH  15  16
ENDBRANCH   3  15
BRANCH   3  32
ATOM     32  C   UNL     1      -3.699   1.723  -0.041  0.00  0.00    +0.143 C 
BRANCH  32  33
ATOM     33  C   UNL     1      -3.914   1.043   1.287  0.00  0.00    -0.030 A 
ATOM     34  C   UNL     1      -2.835   0.774   2.109  0.00  0.00    +0.005 A 
ATOM     35  C   UNL     1      -3.033   0.155   3.329  0.00  0.00    +0.000 A 
ATOM     36  C   UNL     1      -4.309  -0.206   3.722  0.00  0.00    +0.000 A 
ATOM     37  C   UNL     1      -5.386   0.057   2.897  0.00  0.00    +0.000 A 
ATOM     38  C   UNL     1      -5.189   0.682   1.680  0.00  0.00    +0.005 A 
ENDBRANCH  32  33
ENDBRANCH   3  32
TORSDOF 10
