REMARK  Name = ZINC38615699
REMARK  8 active torsions:
REMARK  status: ('A' for Active; 'I' for Inactive)
REMARK    1  A    between atoms: C_1  and  O_2
REMARK    2  A    between atoms: O_2  and  C_3
REMARK    3  A    between atoms: C_8  and  C_9
REMARK    4  A    between atoms: N_11  and  C_12
REMARK    5  A    between atoms: C_20  and  C_21
REMARK    6  A    between atoms: C_21  and  C_23
REMARK    7  A    between atoms: C_26  and  O_30
REMARK    8  A    between atoms: O_30  and  C_31
REMARK                            x       y       z     vdW  Elec       q    Type
REMARK                         _______ _______ _______ _____ _____    ______ ____
ROOT
ATOM      1  C   UNL     1       1.099  -4.909   0.035  0.00  0.00    +0.091 A 
ATOM      2  C   UNL     1       1.270  -6.330  -0.289  0.00  0.00    +0.042 A 
ATOM      3  C   UNL     1       0.409  -7.331  -0.742  0.00  0.00    +0.013 A 
ATOM      4  C   UNL     1       0.889  -8.593  -0.954  0.00  0.00    +0.001 A 
ATOM      5  C   UNL     1       2.226  -8.885  -0.721  0.00  0.00    +0.004 A 
ATOM      6  C   UNL     1       3.091  -7.910  -0.273  0.00  0.00    +0.047 A 
ATOM      7  C   UNL     1       2.625  -6.619  -0.051  0.00  0.00    +0.138 A 
ATOM      8  O   UNL     1       3.224  -5.489   0.376  0.00  0.00    -0.450 OA
ATOM      9  C   UNL     1       2.346  -4.463   0.430  0.00  0.00    +0.197 A 
ENDROOT
BRANCH   1  12
ATOM     10  C   UNL     1      -1.255  -4.742   0.240  0.00  0.00    +0.252 C 
ATOM     11  O   UNL     1      -1.311  -5.935   0.470  0.00  0.00    -0.270 OA
ATOM     12  N   UNL     1      -0.070  -4.166  -0.044  0.00  0.00    -0.278 N 
ATOM     13  H   UNL     1      -0.035  -3.232  -0.303  0.00  0.00    +0.155 HD
BRANCH  10  19
ATOM     14  C   UNL     1      -3.717  -4.522   0.566  0.00  0.00    +0.132 A 
ATOM     15  C   UNL     1      -4.865  -3.743   0.599  0.00  0.00    +0.046 A 
ATOM     16  C   UNL     1      -4.791  -2.390   0.336  0.00  0.00    +0.004 A 
ATOM     17  C   UNL     1      -3.574  -1.799   0.039  0.00  0.00    +0.001 A 
ATOM     18  C   UNL     1      -2.424  -2.557   0.002  0.00  0.00    +0.017 A 
ATOM     19  C   UNL     1      -2.483  -3.926   0.272  0.00  0.00    +0.079 A 
BRANCH  14  21
ATOM     20  C   UNL     1      -5.080  -6.388   1.117  0.00  0.00    +0.277 C 
ATOM     21  O   UNL     1      -3.788  -5.851   0.825  0.00  0.00    -0.494 OA
ENDBRANCH  14  21
ENDBRANCH  10  19
ENDBRANCH   1  12
BRANCH   9  22
ATOM     22  C   UNL     1       2.654  -3.140   0.831  0.00  0.00    +0.230 C 
ATOM     23  O   UNL     1       1.765  -2.314   0.942  0.00  0.00    -0.283 OA
BRANCH  22  24
ATOM     24  C   UNL     1       4.053  -2.761   1.115  0.00  0.00    +0.027 A 
ATOM     25  C   UNL     1       5.057  -3.733   1.109  0.00  0.00    +0.015 A 
ATOM     26  C   UNL     1       6.361  -3.376   1.374  0.00  0.00    +0.047 A 
ATOM     27  C   UNL     1       6.679  -2.051   1.647  0.00  0.00    +0.134 A 
ATOM     28  C   UNL     1       5.683  -1.080   1.654  0.00  0.00    +0.060 A 
ATOM     29  C   UNL     1       4.377  -1.429   1.384  0.00  0.00    +0.030 A 
ATOM     30 BR   UNL     1       6.122   0.721   2.026  0.00  0.00    -0.046 Br
BRANCH  27  31
ATOM     31  O   UNL     1       7.965  -1.703   1.908  0.00  0.00    -0.494 OA
ATOM     32  C   UNL     1       8.937  -2.750   1.885  0.00  0.00    +0.277 C 
ENDBRANCH  27  31
ENDBRANCH  22  24
ENDBRANCH   9  22
TORSDOF 6
