REMARK  Name = ZINC15959308
REMARK  6 active torsions:
REMARK  status: ('A' for Active; 'I' for Inactive)
REMARK    1  A    between atoms: C_1  and  C_2
REMARK    2  A    between atoms: C_2  and  C_3
REMARK    3  A    between atoms: C_3  and  C_5
REMARK    4  A    between atoms: C_3  and  C_6
REMARK    5  A    between atoms: N_14  and  C_17
REMARK    6  A    between atoms: C_17  and  C_18
REMARK                            x       y       z     vdW  Elec       q    Type
REMARK                         _______ _______ _______ _____ _____    ______ ____
ROOT
ATOM      1  C   UNL     1      -1.416  -2.058  -0.121  0.00  0.00    +0.070 C 
ATOM      2  C   UNL     1      -2.856  -2.611  -0.150  0.00  0.00    +0.107 C 
ATOM      3  C   UNL     1      -2.815  -3.777  -1.177  0.00  0.00    +0.122 C 
ATOM      4  C   UNL     1      -3.717  -3.293  -2.290  0.00  0.00    +0.229 C 
ATOM      5  O   UNL     1      -3.974  -3.909  -3.301  0.00  0.00    -0.275 OA
ATOM      6  N   UNL     1      -4.188  -2.078  -1.984  0.00  0.00    -0.237 N 
ATOM      7  C   UNL     1      -3.769  -1.592  -0.793  0.00  0.00    +0.227 C 
ATOM      8  O   UNL     1      -4.069  -0.519  -0.314  0.00  0.00    -0.275 OA
ATOM      9  C   UNL     1      -1.359  -3.818  -1.656  0.00  0.00    +0.136 C 
ATOM     10  N   UNL     1      -0.824  -2.455  -1.427  0.00  0.00    -0.295 NA
ATOM     11  C   UNL     1      -0.571  -4.870  -0.929  0.00  0.00    +0.003 A 
ATOM     12  C   UNL     1      -0.275  -5.085   0.398  0.00  0.00    +0.008 A 
ATOM     13  C   UNL     1       0.497  -6.173   0.769  0.00  0.00    +0.000 A 
ATOM     14  C   UNL     1       0.969  -7.042  -0.198  0.00  0.00    +0.002 A 
ATOM     15  C   UNL     1       0.676  -6.830  -1.529  0.00  0.00    +0.023 A 
ATOM     16  C   UNL     1      -0.100  -5.737  -1.910  0.00  0.00    +0.039 A 
ATOM     17  N   UNL     1      -0.524  -5.316  -3.172  0.00  0.00    -0.283 N 
ATOM     18  C   UNL     1      -1.268  -4.194  -3.109  0.00  0.00    +0.243 C 
ATOM     19  O   UNL     1      -1.768  -3.604  -4.043  0.00  0.00    -0.273 OA
ATOM     20  H   UNL     1      -1.104  -1.820  -2.159  0.00  0.00    +0.124 HD
ATOM     21  H   UNL     1      -0.308  -5.776  -3.998  0.00  0.00    +0.155 HD
ENDROOT
BRANCH   1  22
ATOM     22  C   UNL     1      -1.433  -0.534   0.013  0.00  0.00    +0.003 C 
ATOM     23  C   UNL     1      -2.110  -0.145   1.329  0.00  0.00    +0.009 C 
BRANCH  22  25
ATOM     24  C   UNL     1      -0.019   1.526   0.010  0.00  0.00    +0.004 C 
ATOM     25  C   UNL     1       0.002  -0.004   0.002  0.00  0.00    +0.001 C 
ENDBRANCH  22  25
ENDBRANCH   1  22
BRANCH   6  26
ATOM     26  C   UNL     1      -5.091  -1.334  -2.865  0.00  0.00    +0.151 C 
BRANCH  26  27
ATOM     27  C   UNL     1      -6.519  -1.674  -2.523  0.00  0.00    -0.030 A 
ATOM     28  C   UNL     1      -7.146  -2.735  -3.151  0.00  0.00    +0.005 A 
ATOM     29  C   UNL     1      -8.456  -3.047  -2.838  0.00  0.00    +0.000 A 
ATOM     30  C   UNL     1      -9.139  -2.299  -1.897  0.00  0.00    +0.000 A 
ATOM     31  C   UNL     1      -8.512  -1.239  -1.269  0.00  0.00    +0.000 A 
ATOM     32  C   UNL     1      -7.200  -0.929  -1.579  0.00  0.00    +0.005 A 
ENDBRANCH  26  27
ENDBRANCH   6  26
TORSDOF 4
