REMARK  Name = ZINC35089606
REMARK  11 active torsions:
REMARK  status: ('A' for Active; 'I' for Inactive)
REMARK    1  A    between atoms: C_1  and  C_2
REMARK    2  A    between atoms: C_2  and  C_4
REMARK    3  A    between atoms: C_2  and  N_25
REMARK    4  A    between atoms: N_14  and  C_15
REMARK    5  A    between atoms: N_25  and  C_26
REMARK    6  A    between atoms: C_26  and  C_27
REMARK    7  A    between atoms: C_27  and  N_28
REMARK    8  A    between atoms: N_28  and  C_29
REMARK    9  A    between atoms: N_28  and  C_30
REMARK   10  A    between atoms: C_31  and  C_33
REMARK   11  A    between atoms: C_34  and  C_35
REMARK                            x       y       z     vdW  Elec       q    Type
REMARK                         _______ _______ _______ _____ _____    ______ ____
ROOT
ATOM      1  C   UNL     1      -1.435  -0.595   0.316  0.00  0.00    +0.138 A 
ATOM      2  N   UNL     1      -2.339   0.215   0.778  0.00  0.00    -0.231 NA
ATOM      3  C   UNL     1      -3.619  -0.188   0.978  0.00  0.00    +0.078 A 
ATOM      4  C   UNL     1      -4.591   0.682   1.475  0.00  0.00    +0.028 A 
ATOM      5  C   UNL     1      -5.878   0.231   1.662  0.00  0.00    +0.002 A 
ATOM      6  C   UNL     1      -6.223  -1.080   1.364  0.00  0.00    +0.001 A 
ATOM      7  C   UNL     1      -5.282  -1.958   0.873  0.00  0.00    +0.015 A 
ATOM      8  C   UNL     1      -3.973  -1.521   0.675  0.00  0.00    +0.065 A 
ATOM      9  C   UNL     1      -2.927  -2.413   0.153  0.00  0.00    +0.266 A 
ATOM     10  O   UNL     1      -3.167  -3.572  -0.128  0.00  0.00    -0.267 OA
ATOM     11  N   UNL     1      -1.688  -1.892  -0.008  0.00  0.00    -0.263 N 
ENDROOT
BRANCH  11  12
ATOM     12  C   UNL     1      -0.656  -2.696  -0.507  0.00  0.00    +0.052 A 
ATOM     13  C   UNL     1      -0.126  -2.435  -1.776  0.00  0.00    +0.027 A 
ATOM     14  C   UNL     1       0.875  -3.200  -2.286  0.00  0.00    +0.010 A 
ATOM     15  C   UNL     1       1.391  -4.270  -1.535  0.00  0.00    -0.018 A 
ATOM     16  C   UNL     1       2.427  -5.077  -2.036  0.00  0.00    +0.008 A 
ATOM     17  C   UNL     1       2.905  -6.105  -1.283  0.00  0.00    +0.001 A 
ATOM     18  C   UNL     1       2.382  -6.372  -0.019  0.00  0.00    +0.001 A 
ATOM     19  C   UNL     1       1.380  -5.612   0.499  0.00  0.00    +0.008 A 
ATOM     20  C   UNL     1       0.861  -4.541  -0.249  0.00  0.00    -0.016 A 
ATOM     21  C   UNL     1      -0.170  -3.733   0.258  0.00  0.00    +0.034 A 
ENDBRANCH  11  12
BRANCH   1  23
ATOM     22  C   UNL     1      -0.059   1.461   0.138  0.00  0.00    +0.036 C 
ATOM     23  C   UNL     1      -0.036  -0.069   0.122  0.00  0.00    +0.140 C 
BRANCH  23  24
ATOM     24  N   UNL     1       0.823  -0.555   1.204  0.00  0.00    -0.290 N 
ATOM     25  C   UNL     1       1.968  -1.204   0.916  0.00  0.00    +0.240 C 
ATOM     26  O   UNL     1       2.290  -1.385  -0.244  0.00  0.00    -0.271 OA
BRANCH  25  27
ATOM     27  C   UNL     1       2.827  -1.690   1.998  0.00  0.00    +0.068 C 
ATOM     28  C   UNL     1       3.973  -2.339   1.709  0.00  0.00    +0.013 C 
BRANCH  28  29
ATOM     29  C   UNL     1       4.836  -2.828   2.797  0.00  0.00    -0.025 A 
ATOM     30  C   UNL     1       4.467  -2.627   4.131  0.00  0.00    +0.008 A 
ATOM     31  C   UNL     1       5.281  -3.088   5.144  0.00  0.00    +0.001 A 
ATOM     32  C   UNL     1       6.460  -3.748   4.844  0.00  0.00    +0.000 A 
ATOM     33  C   UNL     1       6.831  -3.951   3.526  0.00  0.00    +0.001 A 
ATOM     34  C   UNL     1       6.025  -3.501   2.502  0.00  0.00    +0.008 A 
ENDBRANCH  28  29
ENDBRANCH  25  27
BRANCH  24  35
ATOM     35  C   UNL     1       0.436  -0.337   2.600  0.00  0.00    +0.090 C 
BRANCH  35  36
ATOM     36  C   UNL     1      -0.282  -1.580   3.131  0.00  0.00    -0.060 C 
BRANCH  36  37
ATOM     37  N   UNL     1      -0.779  -1.316   4.488  0.00  0.00    +0.377 N 
ATOM     38  C   UNL     1      -1.570  -2.463   4.951  0.00  0.00    -0.097 C 
ATOM     39  C   UNL     1       0.358  -1.108   5.394  0.00  0.00    -0.097 C 
ATOM     40  H   UNL     1      -1.358  -0.489   4.479  0.00  0.00    -0.083 HD
ENDBRANCH  36  37
ENDBRANCH  35  36
ENDBRANCH  24  35
ENDBRANCH  23  24
ENDBRANCH   1  23
TORSDOF 8
