REMARK  Name = ZINC12139213
REMARK  8 active torsions:
REMARK  status: ('A' for Active; 'I' for Inactive)
REMARK    1  A    between atoms: C_5  and  N_7
REMARK    2  A    between atoms: C_12  and  C_13
REMARK    3  A    between atoms: C_12  and  N_71
REMARK    4  A    between atoms: C_13  and  C_15
REMARK    5  A    between atoms: C_13  and  O_33
REMARK    6  A    between atoms: C_15  and  O_16
REMARK    7  A    between atoms: O_16  and  C_17
REMARK    8  A    between atoms: C_20  and  C_23
REMARK                            x       y       z     vdW  Elec       q    Type
REMARK                         _______ _______ _______ _____ _____    ______ ____
ROOT
ATOM      1  C   UNL     1      -0.716   1.596   1.268  0.00  0.00    +0.135 C 
ENDROOT
BRANCH   1   2
ATOM      2  O   UNL     1      -0.606   3.019   1.339  0.00  0.00    -0.390 OA
ATOM      3  H   UNL     1       0.305   3.342   1.375  0.00  0.00    +0.210 HD
ENDBRANCH   1   2
BRANCH   1   4
ATOM      4  C   UNL     1      -0.064   0.971   2.503  0.00  0.00    -0.044 C 
BRANCH   4  10
ATOM      5  N   UNL     1      -1.921   1.167   6.293  0.00  0.00    -0.331 N 
ATOM      6  C   UNL     1      -2.764   1.347   5.102  0.00  0.00    +0.086 C 
ATOM      7  C   UNL     1      -2.046   0.771   3.880  0.00  0.00    -0.060 C 
ATOM      8  C   UNL     1       0.091   1.265   4.902  0.00  0.00    -0.060 C 
ATOM      9  C   UNL     1      -0.627   1.841   6.125  0.00  0.00    +0.086 C 
ATOM     10  N   UNL     1      -0.757   1.472   3.709  0.00  0.00    +0.383 N 
ATOM     11  H   UNL     1      -0.936   2.477   3.598  0.00  0.00    -0.082 HD
BRANCH   5  16
ATOM     12  C   UNL     1      -4.428   1.496   8.962  0.00  0.00    +0.002 A 
ATOM     13  C   UNL     1      -3.873   2.511   9.720  0.00  0.00    +0.003 A 
ATOM     14  C   UNL     1      -2.671   3.082   9.343  0.00  0.00    +0.040 A 
ATOM     15  C   UNL     1      -2.020   2.639   8.206  0.00  0.00    +0.144 A 
ATOM     16  C   UNL     1      -2.576   1.618   7.443  0.00  0.00    +0.065 A 
ATOM     17  C   UNL     1      -3.785   1.051   7.823  0.00  0.00    +0.026 A 
ATOM     18  F   UNL     1      -0.846   3.197   7.838  0.00  0.00    -0.204 F 
ENDBRANCH   5  16
ENDBRANCH   4  10
ENDBRANCH   1   4
BRANCH   1  19
ATOM     19  C   UNL     1      -0.008   1.092   0.008  0.00  0.00    +0.258 C 
BRANCH  19  20
ATOM     20  O   UNL     1      -0.689   1.582  -1.149  0.00  0.00    -0.489 OA
BRANCH  20  21
ATOM     21  C   UNL     1      -0.184   1.224  -2.359  0.00  0.00    +0.121 A 
ATOM     22  C   UNL     1       0.946   0.422  -2.431  0.00  0.00    +0.046 A 
ATOM     23  C   UNL     1       1.453   0.056  -3.663  0.00  0.00    +0.008 A 
ATOM     24  C   UNL     1       0.842   0.495  -4.822  0.00  0.00    -0.041 A 
ATOM     25  C   UNL     1      -0.281   1.299  -4.753  0.00  0.00    +0.008 A 
ATOM     26  C   UNL     1      -0.795   1.664  -3.524  0.00  0.00    +0.046 A 
BRANCH  24  27
ATOM     27  C   UNL     1       1.401   0.098  -6.164  0.00  0.00    -0.003 C 
ATOM     28  C   UNL     1       1.796   1.354  -6.944  0.00  0.00    +0.015 C 
ATOM     29  C   UNL     1       2.363   0.951  -8.307  0.00  0.00    -0.010 C 
ATOM     30  C   UNL     1       3.596   0.068  -8.104  0.00  0.00    +0.007 C 
ATOM     31  C   UNL     1       3.201  -1.188  -7.325  0.00  0.00    -0.010 C 
ATOM     32  C   UNL     1       2.634  -0.785  -5.962  0.00  0.00    +0.015 C 
ATOM     33  C   UNL     1       2.142  -1.964  -8.109  0.00  0.00    +0.007 C 
ATOM     34  C   UNL     1       0.909  -1.080  -8.312  0.00  0.00    -0.010 C 
ATOM     35  C   UNL     1       1.303   0.175  -9.091  0.00  0.00    +0.007 C 
ATOM     36  C   UNL     1       0.341  -0.677  -6.949  0.00  0.00    +0.015 C 
ENDBRANCH  24  27
ENDBRANCH  20  21
ENDBRANCH  19  20
ENDBRANCH   1  19
TORSDOF 8
