REMARK  Name = ZINC23143673
REMARK  5 active torsions:
REMARK  status: ('A' for Active; 'I' for Inactive)
REMARK    1  A    between atoms: C_8  and  C_10
REMARK    2  A    between atoms: C_16  and  C_18
REMARK    3  A    between atoms: C_18  and  C_19
REMARK    4  A    between atoms: C_19  and  N_20
REMARK    5  A    between atoms: C_21  and  C_23
REMARK                            x       y       z     vdW  Elec       q    Type
REMARK                         _______ _______ _______ _____ _____    ______ ____
ROOT
ATOM      1  C   UNL     1       3.078  -3.972  -0.050  0.00  0.00    +0.048 C 
ATOM      2  C   UNL     1       3.922  -4.274   1.191  0.00  0.00    +0.029 C 
ATOM      3  C   UNL     1       4.306  -5.756   1.194  0.00  0.00    +0.108 C 
ATOM      4  N   UNL     1       4.969  -6.075  -0.079  0.00  0.00    -0.301 N 
ATOM      5  C   UNL     1       4.283  -5.743  -1.335  0.00  0.00    +0.108 C 
ATOM      6  C   UNL     1       3.898  -4.260  -1.309  0.00  0.00    +0.029 C 
ATOM      7  C   UNL     1       6.182  -6.662  -0.093  0.00  0.00    +0.217 C 
ATOM      8  O   UNL     1       6.738  -6.931   0.951  0.00  0.00    -0.276 OA
ENDROOT
BRANCH   1  16
ATOM      9  C   UNL     1      -0.016   1.357   0.009  0.00  0.00    +0.002 A 
ATOM     10  C   UNL     1       1.156   2.100   0.002  0.00  0.00    +0.001 A 
ATOM     11  C   UNL     1       2.375   1.449  -0.013  0.00  0.00    +0.017 A 
ATOM     12  C   UNL     1       2.404   0.076  -0.021  0.00  0.00    +0.039 A 
ATOM     13  C   UNL     1       1.226  -0.705  -0.013  0.00  0.00    +0.078 A 
ATOM     14  C   UNL     1       0.002  -0.004   0.002  0.00  0.00    +0.029 A 
ATOM     15  N   UNL     1       1.464  -2.033  -0.023  0.00  0.00    -0.244 NA
ATOM     16  C   UNL     1       2.669  -2.521  -0.038  0.00  0.00    +0.083 A 
ATOM     17  S   UNL     1       3.669  -1.167  -0.040  0.00  0.00    -0.072 S 
ENDBRANCH   1  16
BRANCH   7  18
ATOM     18  C   UNL     1       6.848  -6.982  -1.406  0.00  0.00    +0.114 C 
BRANCH  18  19
ATOM     19  C   UNL     1       8.205  -7.638  -1.143  0.00  0.00    +0.113 C 
BRANCH  19  20
ATOM     20  N   UNL     1       8.853  -7.950  -2.420  0.00  0.00    -0.314 N 
ATOM     21  C   UNL     1      10.066  -8.536  -2.434  0.00  0.00    +0.219 C 
ATOM     22  O   UNL     1      10.622  -8.806  -1.390  0.00  0.00    -0.275 OA
ATOM     23  H   UNL     1       8.408  -7.735  -3.254  0.00  0.00    +0.149 HD
BRANCH  21  24
ATOM     24  C   UNL     1      10.733  -8.857  -3.747  0.00  0.00    +0.048 C 
ATOM     25  C   UNL     1       9.849  -9.817  -4.546  0.00  0.00    +0.019 C 
ATOM     26  C   UNL     1      10.525 -10.143  -5.880  0.00  0.00    -0.009 C 
ATOM     27  C   UNL     1      11.882 -10.799  -5.616  0.00  0.00    +0.007 C 
ATOM     28  C   UNL     1      12.766  -9.839  -4.817  0.00  0.00    -0.009 C 
ATOM     29  C   UNL     1      12.090  -9.513  -3.484  0.00  0.00    +0.019 C 
ATOM     30  C   UNL     1      12.969  -8.549  -5.614  0.00  0.00    +0.007 C 
ATOM     31  C   UNL     1      11.612  -7.893  -5.878  0.00  0.00    -0.009 C 
ATOM     32  C   UNL     1      10.728  -8.853  -6.677  0.00  0.00    +0.007 C 
ATOM     33  C   UNL     1      10.936  -7.567  -4.545  0.00  0.00    +0.019 C 
ENDBRANCH  21  24
ENDBRANCH  19  20
ENDBRANCH  18  19
ENDBRANCH   7  18
TORSDOF 5
