REMARK  Name = ZINC15794589
REMARK  6 active torsions:
REMARK  status: ('A' for Active; 'I' for Inactive)
REMARK    1  A    between atoms: C_5  and  C_7
REMARK    2  A    between atoms: N_9  and  N_10
REMARK    3  A    between atoms: C_11  and  C_13
REMARK    4  A    between atoms: C_13  and  C_14
REMARK    5  A    between atoms: C_14  and  N_15
REMARK    6  A    between atoms: N_18  and  C_19
REMARK                            x       y       z     vdW  Elec       q    Type
REMARK                         _______ _______ _______ _____ _____    ______ ____
ROOT
ATOM      1  C   UNL     1       4.840   0.818  -0.040  0.00  0.00    +0.115 C 
ENDROOT
BRANCH   1   2
ATOM      2  N   UNL     1       6.098   1.567  -0.048  0.00  0.00    -0.299 N 
ATOM      3  C   UNL     1       7.274   0.909  -0.062  0.00  0.00    +0.300 C 
ATOM      4  O   UNL     1       7.291  -0.306  -0.069  0.00  0.00    -0.253 OA
ATOM      5  N   UNL     1       8.432   1.599  -0.070  0.00  0.00    -0.294 N 
ATOM      6  H   UNL     1       6.085   2.537  -0.042  0.00  0.00    +0.150 HD
ATOM      7  H   UNL     1       8.419   2.569  -0.065  0.00  0.00    +0.151 HD
BRANCH   5   8
ATOM      8  C   UNL     1       9.711   0.884  -0.086  0.00  0.00    +0.037 C 
ATOM      9  C   UNL     1       9.816  -0.001   1.158  0.00  0.00    +0.029 C 
ATOM     10  C   UNL     1      11.151  -0.748   1.141  0.00  0.00    -0.008 C 
ATOM     11  C   UNL     1      12.300   0.262   1.135  0.00  0.00    +0.007 C 
ATOM     12  C   UNL     1      12.195   1.147  -0.108  0.00  0.00    -0.008 C 
ATOM     13  C   UNL     1      10.860   1.894  -0.091  0.00  0.00    +0.029 C 
ATOM     14  C   UNL     1      12.276   0.275  -1.363  0.00  0.00    +0.007 C 
ATOM     15  C   UNL     1      11.127  -0.735  -1.357  0.00  0.00    -0.008 C 
ATOM     16  C   UNL     1      11.232  -1.620  -0.114  0.00  0.00    +0.007 C 
ATOM     17  C   UNL     1       9.792   0.012  -1.341  0.00  0.00    +0.029 C 
ENDBRANCH   5   8
ENDBRANCH   1   2
BRANCH   1  18
ATOM     18  C   UNL     1       3.663   1.796  -0.023  0.00  0.00    +0.116 C 
BRANCH  18  20
ATOM     19  N   UNL     1       1.193   1.683  -0.000  0.00  0.00    -0.234 N 
ATOM     20  C   UNL     1       2.369   1.025  -0.015  0.00  0.00    +0.231 C 
ATOM     21  O   UNL     1       2.385  -0.188  -0.022  0.00  0.00    -0.274 OA
ATOM     22  H   UNL     1       1.179   2.653   0.005  0.00  0.00    +0.173 HD
BRANCH  19  25
ATOM     23  C   UNL     1      -1.187   1.624   0.017  0.00  0.00    +0.263 C 
ATOM     24  O   UNL     1      -1.204   2.839   0.023  0.00  0.00    -0.269 OA
ATOM     25  N   UNL     1      -0.011   0.966   0.007  0.00  0.00    -0.230 N 
ATOM     26  H   UNL     1       0.002  -0.004   0.002  0.00  0.00    +0.173 HD
BRANCH  23  31
ATOM     27  C   UNL     1      -3.629  -1.228   0.012  0.00  0.00    +0.001 A 
ATOM     28  C   UNL     1      -4.837  -0.551   0.022  0.00  0.00    +0.003 A 
ATOM     29  C   UNL     1      -4.862   0.831   0.030  0.00  0.00    +0.039 A 
ATOM     30  C   UNL     1      -3.678   1.547   0.028  0.00  0.00    +0.136 A 
ATOM     31  C   UNL     1      -2.456   0.868   0.018  0.00  0.00    +0.073 A 
ATOM     32  C   UNL     1      -2.441  -0.528   0.005  0.00  0.00    +0.016 A 
ATOM     33  F   UNL     1      -3.703   2.898   0.035  0.00  0.00    -0.205 F 
ENDBRANCH  23  31
ENDBRANCH  19  25
ENDBRANCH  18  20
ENDBRANCH   1  18
TORSDOF 6
