REMARK  Name = ZINC40317738
REMARK  12 active torsions:
REMARK  status: ('A' for Active; 'I' for Inactive)
REMARK    1  A    between atoms: C_1  and  C_2
REMARK    2  A    between atoms: C_4  and  C_36
REMARK    3  A    between atoms: C_6  and  O_8
REMARK    4  A    between atoms: O_8  and  C_9
REMARK    5  A    between atoms: C_9  and  C_10
REMARK    6  A    between atoms: C_10  and  C_12
REMARK    7  A    between atoms: C_10  and  O_35
REMARK    8  A    between atoms: C_12  and  N_13
REMARK    9  A    between atoms: N_13  and  C_14
REMARK   10  A    between atoms: N_13  and  C_27
REMARK   11  A    between atoms: C_14  and  C_15
REMARK   12  A    between atoms: C_18  and  C_20
REMARK                            x       y       z     vdW  Elec       q    Type
REMARK                         _______ _______ _______ _____ _____    ______ ____
ROOT
ATOM      1  N   UNL     1      -0.463  -2.985   7.203  0.00  0.00    +0.389 N 
ATOM      2  H   UNL     1      -1.361  -3.444   7.247  0.00  0.00    -0.081 HD
ENDROOT
BRANCH   1   3
ATOM      3  C   UNL     1       0.606  -3.987   7.309  0.00  0.00    -0.045 C 
ATOM      4  C   UNL     1       0.198  -5.076   8.315  0.00  0.00    +0.009 C 
ATOM      5  C   UNL     1       1.424  -5.949   8.674  0.00  0.00    +0.164 C 
ATOM      6  S   UNL     1       2.830  -4.786   8.438  0.00  0.00    -0.033 S 
ATOM      7  O   UNL     1       3.664  -5.274   7.397  0.00  0.00    -0.174 OA
ATOM      8  O   UNL     1       3.397  -4.484   9.706  0.00  0.00    -0.174 OA
ATOM      9  C   UNL     1       1.908  -3.313   7.827  0.00  0.00    +0.151 C 
ENDBRANCH   1   3
BRANCH   1  10
ATOM     10  C   UNL     1      -0.341  -2.272   5.924  0.00  0.00    -0.043 C 
BRANCH  10  11
ATOM     11  C   UNL     1      -0.746  -3.203   4.780  0.00  0.00    +0.135 C 
BRANCH  11  12
ATOM     12  O   UNL     1       0.220  -4.248   4.651  0.00  0.00    -0.390 OA
ATOM     13  H   UNL     1       1.127  -3.933   4.533  0.00  0.00    +0.210 HD
ENDBRANCH  11  12
BRANCH  11  14
ATOM     14  C   UNL     1      -0.814  -2.408   3.474  0.00  0.00    +0.258 C 
BRANCH  14  15
ATOM     15  O   UNL     1      -1.304  -3.249   2.429  0.00  0.00    -0.489 OA
BRANCH  15  21
ATOM     16  C   UNL     1      -0.830   0.642  -0.479  0.00  0.00    +0.044 C 
ATOM     17  C   UNL     1      -1.205  -0.801  -0.261  0.00  0.00    -0.047 A 
ATOM     18  C   UNL     1      -1.673  -1.561  -1.317  0.00  0.00    +0.007 A 
ATOM     19  C   UNL     1      -2.018  -2.885  -1.120  0.00  0.00    -0.047 A 
ATOM     20  C   UNL     1      -1.895  -3.453   0.133  0.00  0.00    +0.049 A 
ATOM     21  C   UNL     1      -1.425  -2.693   1.195  0.00  0.00    +0.121 A 
ATOM     22  C   UNL     1      -1.075  -1.366   0.994  0.00  0.00    +0.049 A 
ATOM     23  C   UNL     1      -2.528  -3.710  -2.273  0.00  0.00    +0.044 C 
ENDBRANCH  15  21
ENDBRANCH  14  15
ENDBRANCH  11  14
ENDBRANCH  10  11
ENDBRANCH   1  10
BRANCH   1  24
ATOM     24  C   UNL     1      -0.348  -2.027   8.310  0.00  0.00    -0.003 C 
BRANCH  24  25
ATOM     25  C   UNL     1      -0.603  -2.735   9.616  0.00  0.00    +0.089 A 
ATOM     26  C   UNL     1       0.338  -3.094  10.511  0.00  0.00    +0.043 A 
ATOM     27  C   UNL     1      -0.329  -3.726  11.580  0.00  0.00    +0.050 A 
ATOM     28  C   UNL     1      -1.653  -3.718  11.274  0.00  0.00    +0.135 A 
ATOM     29  O   UNL     1      -1.805  -3.109  10.082  0.00  0.00    -0.462 OA
BRANCH  28  30
ATOM     30  C   UNL     1      -2.739  -4.276  12.107  0.00  0.00    +0.019 A 
ATOM     31  C   UNL     1      -2.445  -4.875  13.334  0.00  0.00    +0.011 A 
ATOM     32  C   UNL     1      -3.462  -5.394  14.107  0.00  0.00    +0.002 A 
ATOM     33  C   UNL     1      -4.773  -5.323  13.670  0.00  0.00    +0.020 A 
ATOM     34  C   UNL     1      -5.072  -4.731  12.455  0.00  0.00    +0.042 A 
ATOM     35  C   UNL     1      -4.064  -4.202  11.674  0.00  0.00    +0.031 A 
ATOM     36 CL   UNL     1      -6.720  -4.648  11.915  0.00  0.00    -0.084 Cl
ENDBRANCH  28  30
ENDBRANCH  24  25
ENDBRANCH   1  24
TORSDOF 10
