REMARK  Name = ZINC64055089
REMARK  11 active torsions:
REMARK  status: ('A' for Active; 'I' for Inactive)
REMARK    1  A    between atoms: C_1  and  C_2
REMARK    2  A    between atoms: C_2  and  C_3
REMARK    3  A    between atoms: C_3  and  N_4
REMARK    4  A    between atoms: N_4  and  C_5
REMARK    5  A    between atoms: C_5  and  C_6
REMARK    6  A    between atoms: C_9  and  C_11
REMARK    7  A    between atoms: C_11  and  S_12
REMARK    8  A    between atoms: S_12  and  C_13
REMARK    9  A    between atoms: C_17  and  C_26
REMARK   10  A    between atoms: N_18  and  C_19
REMARK   11  A    between atoms: C_19  and  C_20
REMARK                            x       y       z     vdW  Elec       q    Type
REMARK                         _______ _______ _______ _____ _____    ______ ____
ROOT
ATOM      1  C   UNL     1      -1.464  -2.016  -5.324  0.00  0.00    +0.237 C 
ATOM      2  N   UNL     1      -0.322  -1.087  -5.311  0.00  0.00    -0.237 N 
ATOM      3  N   UNL     1      -0.861   0.205  -5.285  0.00  0.00    -0.169 NA
ATOM      4  C   UNL     1      -2.168   0.174  -5.281  0.00  0.00    +0.147 C 
ATOM      5  N   UNL     1      -2.648  -1.142  -5.305  0.00  0.00    -0.283 N 
ATOM      6  H   UNL     1       0.619  -1.323  -5.317  0.00  0.00    +0.171 HD
ENDROOT
BRANCH   4   7
ATOM      7  C   UNL     1      -2.986   1.313  -5.257  0.00  0.00    +0.022 C 
ATOM      8  C   UNL     1      -2.575   2.647  -5.239  0.00  0.00    +0.006 A 
ATOM      9  C   UNL     1      -1.300   3.251  -5.240  0.00  0.00    +0.010 A 
ATOM     10  C   UNL     1      -1.197   4.605  -5.220  0.00  0.00    +0.001 A 
ATOM     11  C   UNL     1      -2.327   5.425  -5.199  0.00  0.00    +0.002 A 
ATOM     12  C   UNL     1      -3.582   4.912  -5.196  0.00  0.00    +0.026 A 
ATOM     13  C   UNL     1      -3.770   3.506  -5.216  0.00  0.00    +0.043 A 
ATOM     14  N   UNL     1      -4.866   2.772  -5.219  0.00  0.00    -0.380 N 
ATOM     15  C   UNL     1      -4.498   1.353  -5.251  0.00  0.00    +0.152 C 
ATOM     16  H   UNL     1      -5.772   3.117  -5.206  0.00  0.00    +0.160 HD
ENDBRANCH   4   7
BRANCH   1  17
ATOM     17  S   UNL     1      -1.435  -3.077  -3.852  0.00  0.00    -0.109 S 
BRANCH  17  18
ATOM     18  C   UNL     1      -1.438  -1.906  -2.467  0.00  0.00    +0.168 C 
BRANCH  18  20
ATOM     19  N   UNL     1      -1.413  -1.998   0.005  0.00  0.00    -0.301 N 
ATOM     20  C   UNL     1      -1.415  -2.666  -1.166  0.00  0.00    +0.226 C 
ATOM     21  O   UNL     1      -1.399  -3.879  -1.173  0.00  0.00    -0.275 OA
BRANCH  19  22
ATOM     22  C   UNL     1      -1.433  -0.534   0.013  0.00  0.00    +0.107 C 
BRANCH  22  24
ATOM     23  C   UNL     1      -0.019   1.526   0.010  0.00  0.00    +0.005 C 
ATOM     24  C   UNL     1       0.002  -0.004   0.002  0.00  0.00    +0.016 C 
ENDBRANCH  22  24
ENDBRANCH  19  22
BRANCH  19  25
ATOM     25  C   UNL     1      -1.391  -2.738   1.269  0.00  0.00    +0.111 C 
BRANCH  25  26
ATOM     26  C   UNL     1      -2.826  -3.015   1.723  0.00  0.00    +0.006 C 
ATOM     27  C   UNL     1      -3.287  -2.377   3.035  0.00  0.00    +0.005 C 
ATOM     28  C   UNL     1      -3.018  -3.882   2.969  0.00  0.00    +0.005 C 
ENDBRANCH  25  26
ENDBRANCH  19  25
ENDBRANCH  18  20
ENDBRANCH  17  18
ENDBRANCH   1  17
BRANCH   5  29
ATOM     29  C   UNL     1      -4.050  -1.565  -5.310  0.00  0.00    +0.140 C 
BRANCH  29  30
ATOM     30  C   UNL     1      -4.535  -1.740  -3.869  0.00  0.00    +0.136 C 
ATOM     31  C   UNL     1      -6.008  -2.222  -3.853  0.00  0.00    +0.035 C 
ATOM     32  C   UNL     1      -6.071  -2.926  -2.470  0.00  0.00    +0.031 C 
ATOM     33  C   UNL     1      -4.651  -3.518  -2.338  0.00  0.00    +0.160 C 
ATOM     34  O   UNL     1      -3.790  -2.779  -3.215  0.00  0.00    -0.375 OA
ENDBRANCH  29  30
ENDBRANCH   5  29
TORSDOF 10
