REMARK  Name = ZINC13764326
REMARK  3 active torsions:
REMARK  status: ('A' for Active; 'I' for Inactive)
REMARK    1  A    between atoms: C_4  and  C_7
REMARK    2  A    between atoms: N_8  and  N_9
REMARK    3  A    between atoms: N_16  and  C_17
REMARK                            x       y       z     vdW  Elec       q    Type
REMARK                         _______ _______ _______ _____ _____    ______ ____
ROOT
ATOM      1  N   UNL     1       5.878   3.521   0.725  0.00  0.00    -0.206 N 
ATOM      2  C   UNL     1       4.696   4.111   0.360  0.00  0.00    +0.223 A 
ATOM      3  N   UNL     1       3.596   3.387   0.334  0.00  0.00    -0.214 NA
ATOM      4  C   UNL     1       2.424   3.929  -0.018  0.00  0.00    +0.084 A 
ATOM      5  C   UNL     1       2.353   5.276  -0.336  0.00  0.00    +0.050 A 
ATOM      6  C   UNL     1       3.527   6.040  -0.311  0.00  0.00    +0.264 A 
ATOM      7  O   UNL     1       3.504   7.227  -0.594  0.00  0.00    -0.267 OA
ATOM      8  N   UNL     1       4.685   5.435   0.033  0.00  0.00    -0.248 N 
ATOM      9  C   UNL     1       1.036   5.905  -0.699  0.00  0.00    +0.007 C 
ATOM     10  C   UNL     1       0.298   6.308   0.581  0.00  0.00    +0.012 C 
ATOM     11  C   UNL     1      -1.040   6.955   0.217  0.00  0.00    +0.001 C 
ATOM     12  C   UNL     1      -0.789   8.200  -0.636  0.00  0.00    +0.000 C 
ATOM     13  C   UNL     1      -0.049   7.801  -1.914  0.00  0.00    +0.001 C 
ATOM     14  C   UNL     1       1.288   7.154  -1.549  0.00  0.00    +0.012 C 
ATOM     15  C   UNL     1       0.175   4.920  -1.490  0.00  0.00    +0.047 C 
ATOM     16  C   UNL     1       0.089   3.598  -0.776  0.00  0.00    -0.037 A 
ATOM     17  C   UNL     1       1.194   3.107  -0.080  0.00  0.00    +0.004 A 
ATOM     18  C   UNL     1       1.134   1.859   0.531  0.00  0.00    +0.010 A 
ATOM     19  C   UNL     1      -0.029   1.118   0.463  0.00  0.00    +0.001 A 
ATOM     20  C   UNL     1      -1.128   1.614  -0.215  0.00  0.00    +0.000 A 
ATOM     21  C   UNL     1      -1.071   2.853  -0.828  0.00  0.00    +0.004 A 
ATOM     22  H   UNL     1       6.692   4.048   0.761  0.00  0.00    +0.177 HD
ENDROOT
BRANCH   8  23
ATOM     23  C   UNL     1       5.877   6.170   0.052  0.00  0.00    +0.053 A 
ATOM     24  C   UNL     1       6.271   6.826   1.211  0.00  0.00    +0.026 A 
ATOM     25  C   UNL     1       7.450   7.544   1.229  0.00  0.00    +0.002 A 
ATOM     26  C   UNL     1       8.233   7.620   0.091  0.00  0.00    +0.000 A 
ATOM     27  C   UNL     1       7.840   6.973  -1.066  0.00  0.00    +0.002 A 
ATOM     28  C   UNL     1       6.665   6.248  -1.089  0.00  0.00    +0.026 A 
ENDBRANCH   8  23
BRANCH   1  30
ATOM     29  C   UNL     1       7.031   1.599   1.390  0.00  0.00    +0.138 C 
ATOM     30  N   UNL     1       5.911   2.158   1.045  0.00  0.00    -0.188 NA
BRANCH  29  34
ATOM     31  C   UNL     1       7.131  -2.532   2.359  0.00  0.00    +0.000 A 
ATOM     32  C   UNL     1       8.294  -1.784   2.413  0.00  0.00    +0.001 A 
ATOM     33  C   UNL     1       8.269  -0.441   2.099  0.00  0.00    +0.009 A 
ATOM     34  C   UNL     1       7.066   0.164   1.727  0.00  0.00    -0.005 A 
ATOM     35  C   UNL     1       5.894  -0.597   1.681  0.00  0.00    +0.009 A 
ATOM     36  C   UNL     1       5.936  -1.940   1.991  0.00  0.00    +0.001 A 
ENDBRANCH  29  34
ENDBRANCH   1  30
TORSDOF 3
