REMARK  Name = ZINC32964361
REMARK  7 active torsions:
REMARK  status: ('A' for Active; 'I' for Inactive)
REMARK    1  A    between atoms: C_1  and  C_2
REMARK    2  A    between atoms: C_2  and  C_3
REMARK    3  A    between atoms: C_3  and  C_5
REMARK    4  A    between atoms: C_3  and  C_11
REMARK    5  A    between atoms: C_17  and  C_18
REMARK    6  A    between atoms: N_22  and  C_23
REMARK    7  A    between atoms: C_26  and  N_29
REMARK                            x       y       z     vdW  Elec       q    Type
REMARK                         _______ _______ _______ _____ _____    ______ ____
ROOT
ATOM      1  C   UNL     1       0.126  -1.970   0.539  0.00  0.00    +0.107 C 
ATOM      2  N   UNL     1       0.773  -3.100   0.554  0.00  0.00    -0.169 NA
ATOM      3  N   UNL     1       0.496  -4.095  -0.359  0.00  0.00    -0.152 N 
ATOM      4  C   UNL     1       1.072  -5.384  -0.376  0.00  0.00    +0.153 C 
ATOM      5  N   UNL     1       1.609  -5.944   0.677  0.00  0.00    -0.283 NA
ATOM      6  C   UNL     1       1.007  -6.041  -1.709  0.00  0.00    +0.082 C 
ATOM      7  C   UNL     1       2.002  -6.901  -2.147  0.00  0.00    +0.042 C 
ATOM      8  C   UNL     1      -0.176  -5.729  -2.543  0.00  0.00    +0.273 C 
ATOM      9  O   UNL     1      -0.565  -6.508  -3.399  0.00  0.00    -0.268 OA
ATOM     10  N   UNL     1      -0.813  -4.560  -2.329  0.00  0.00    -0.152 NA
ATOM     11  C   UNL     1      -0.450  -3.809  -1.320  0.00  0.00    +0.181 C 
ATOM     12  S   UNL     1      -1.000  -2.196  -0.831  0.00  0.00    -0.037 S 
ATOM     13  H   UNL     1       1.688  -5.446   1.505  0.00  0.00    +0.188 HD
ENDROOT
BRANCH   7  14
ATOM     14  C   UNL     1       3.267  -6.885  -1.530  0.00  0.00    +0.047 A 
ATOM     15  C   UNL     1       3.714  -5.963  -0.594  0.00  0.00    +0.027 A 
ATOM     16  C   UNL     1       5.018  -6.325  -0.253  0.00  0.00    +0.020 A 
ATOM     17  C   UNL     1       5.346  -7.433  -0.965  0.00  0.00    +0.092 A 
ATOM     18  N   UNL     1       4.290  -7.789  -1.741  0.00  0.00    -0.316 N 
BRANCH  18  19
ATOM     19  C   UNL     1       4.247  -8.886  -2.611  0.00  0.00    +0.047 A 
ATOM     20  C   UNL     1       3.198  -9.793  -2.535  0.00  0.00    +0.028 A 
ATOM     21  C   UNL     1       3.158 -10.873  -3.394  0.00  0.00    +0.035 A 
ATOM     22  C   UNL     1       4.162 -11.053  -4.329  0.00  0.00    +0.126 A 
ATOM     23  C   UNL     1       5.207 -10.151  -4.406  0.00  0.00    +0.035 A 
ATOM     24  C   UNL     1       5.250  -9.066  -3.554  0.00  0.00    +0.028 A 
BRANCH  22  25
ATOM     25  N   UNL     1       4.116 -12.213  -5.247  0.00  0.00    +0.056 N 
ATOM     26  O   UNL     1       3.156 -12.948  -5.246  0.00  0.00    -0.126 OA
ATOM     27  O   UNL     1       5.039 -12.425  -5.999  0.00  0.00    -0.126 OA
ENDBRANCH  22  25
ENDBRANCH  18  19
ENDBRANCH   7  14
BRANCH   1  28
ATOM     28  C   UNL     1       0.281  -0.779   1.449  0.00  0.00    +0.076 C 
BRANCH  28  29
ATOM     29  C   UNL     1       1.671  -0.770   2.031  0.00  0.00    -0.038 A 
ATOM     30  C   UNL     1       2.116  -1.847   2.774  0.00  0.00    +0.004 A 
ATOM     31  C   UNL     1       3.391  -1.839   3.308  0.00  0.00    +0.000 A 
ATOM     32  C   UNL     1       4.221  -0.753   3.099  0.00  0.00    +0.000 A 
ATOM     33  C   UNL     1       3.776   0.324   2.355  0.00  0.00    +0.000 A 
ATOM     34  C   UNL     1       2.503   0.313   1.817  0.00  0.00    +0.004 A 
ENDBRANCH  28  29
BRANCH  28  36
ATOM     35  C   UNL     1      -0.668   0.402   3.435  0.00  0.00    +0.005 C 
ATOM     36  C   UNL     1      -0.745  -0.864   2.581  0.00  0.00    +0.011 C 
ENDBRANCH  28  36
ENDBRANCH   1  28
TORSDOF 6
