REMARK  Name = ZINC39992495
REMARK  10 active torsions:
REMARK  status: ('A' for Active; 'I' for Inactive)
REMARK    1  A    between atoms: C_1  and  O_2
REMARK    2  A    between atoms: O_2  and  C_3
REMARK    3  A    between atoms: C_3  and  C_4
REMARK    4  A    between atoms: C_4  and  C_5
REMARK    5  A    between atoms: C_5  and  N_6
REMARK    6  A    between atoms: C_7  and  C_9
REMARK    7  A    between atoms: C_11  and  N_20
REMARK    8  A    between atoms: C_21  and  C_23
REMARK    9  A    between atoms: C_23  and  C_34
REMARK   10  A    between atoms: C_24  and  C_25
REMARK                            x       y       z     vdW  Elec       q    Type
REMARK                         _______ _______ _______ _____ _____    ______ ____
ROOT
ATOM      1  C   UNL     1       1.790  -6.419  -3.044  0.00  0.00    +0.132 C 
ATOM      2  C   UNL     1       2.514  -6.862  -1.750  0.00  0.00    +0.152 C 
ATOM      3  S   UNL     1       4.174  -7.215  -2.466  0.00  0.00    -0.106 S 
ATOM      4  C   UNL     1       3.680  -7.459  -4.156  0.00  0.00    -0.013 C 
ATOM      5  C   UNL     1       2.440  -7.007  -4.271  0.00  0.00    -0.046 C 
ATOM      6  C   UNL     1       1.700  -7.082  -5.605  0.00  0.00    +0.032 C 
ATOM      7  C   UNL     1       2.715  -7.263  -6.733  0.00  0.00    +0.005 C 
ATOM      8  C   UNL     1       3.628  -8.451  -6.413  0.00  0.00    +0.005 C 
ATOM      9  C   UNL     1       4.527  -8.067  -5.239  0.00  0.00    +0.042 C 
ENDROOT
BRANCH   1  11
ATOM     10  N   UNL     1       1.272  -4.165  -2.169  0.00  0.00    -0.315 N 
ATOM     11  C   UNL     1       1.828  -4.916  -3.140  0.00  0.00    +0.223 C 
ATOM     12  O   UNL     1       2.359  -4.382  -4.090  0.00  0.00    -0.275 OA
ATOM     13  H   UNL     1       0.847  -4.592  -1.409  0.00  0.00    +0.149 HD
BRANCH  10  14
ATOM     14  C   UNL     1       1.309  -2.703  -2.261  0.00  0.00    +0.106 C 
BRANCH  14  15
ATOM     15  C   UNL     1       0.613  -2.097  -1.041  0.00  0.00    +0.047 C 
BRANCH  15  16
ATOM     16  C   UNL     1       0.652  -0.570  -1.138  0.00  0.00    +0.161 C 
BRANCH  16  18
ATOM     17  C   UNL     1      -0.017   1.425   0.010  0.00  0.00    +0.193 C 
ATOM     18  O   UNL     1       0.002  -0.004   0.002  0.00  0.00    -0.383 OA
ENDBRANCH  16  18
ENDBRANCH  15  16
ENDBRANCH  14  15
ENDBRANCH  10  14
ENDBRANCH   1  11
BRANCH   2  19
ATOM     19  N   UNL     1       2.570  -5.777  -0.768  0.00  0.00    -0.298 N 
ATOM     20  C   UNL     1       2.279  -6.023   0.525  0.00  0.00    +0.255 C 
ATOM     21  O   UNL     1       1.970  -7.146   0.876  0.00  0.00    -0.269 OA
ATOM     22  H   UNL     1       2.817  -4.882  -1.047  0.00  0.00    +0.150 HD
BRANCH  20  23
ATOM     23  C   UNL     1       2.336  -4.932   1.514  0.00  0.00    +0.114 C 
ATOM     24  C   UNL     1       2.037  -5.185   2.843  0.00  0.00    +0.030 C 
BRANCH  24  25
ATOM     25  C   UNL     1       2.091  -4.148   3.782  0.00  0.00    -0.018 C 
ATOM     26  C   UNL     1       1.828  -4.233   5.145  0.00  0.00    +0.003 A 
ATOM     27  C   UNL     1       1.447  -5.303   5.984  0.00  0.00    +0.010 A 
ATOM     28  C   UNL     1       1.253  -5.096   7.308  0.00  0.00    +0.001 A 
ATOM     29  C   UNL     1       1.416  -3.838   7.903  0.00  0.00    +0.002 A 
ATOM     30  C   UNL     1       1.779  -2.750   7.186  0.00  0.00    +0.026 A 
ATOM     31  C   UNL     1       2.009  -2.891   5.741  0.00  0.00    +0.043 A 
ATOM     32  N   UNL     1       2.359  -2.026   4.827  0.00  0.00    -0.380 N 
ATOM     33  C   UNL     1       2.454  -2.701   3.529  0.00  0.00    +0.149 C 
ATOM     34  H   UNL     1       2.533  -1.084   4.982  0.00  0.00    +0.160 HD
ENDBRANCH  24  25
BRANCH  23  35
ATOM     35  C   UNL     1       2.701  -3.610   1.101  0.00  0.00    +0.104 C 
ATOM     36  N   UNL     1       2.990  -2.561   0.773  0.00  0.00    -0.191 NA
ENDBRANCH  23  35
ENDBRANCH  20  23
ENDBRANCH   2  19
TORSDOF 9
