REMARK  Name = ZINC40035045
REMARK  11 active torsions:
REMARK  status: ('A' for Active; 'I' for Inactive)
REMARK    1  A    between atoms: C_1  and  C_2
REMARK    2  A    between atoms: C_2  and  C_3
REMARK    3  A    between atoms: C_3  and  C_38
REMARK    4  A    between atoms: N_15  and  C_30
REMARK    5  A    between atoms: N_18  and  N_19
REMARK    6  A    between atoms: C_20  and  C_21
REMARK    7  A    between atoms: C_24  and  C_27
REMARK    8  A    between atoms: C_27  and  C_28
REMARK    9  A    between atoms: C_27  and  C_29
REMARK   10  A    between atoms: C_33  and  O_36
REMARK   11  A    between atoms: O_36  and  C_37
REMARK                            x       y       z     vdW  Elec       q    Type
REMARK                         _______ _______ _______ _____ _____    ______ ____
ROOT
ATOM      1  C   UNL     1       0.912   0.075   0.437  0.00  0.00    +0.004 C 
ATOM      2  C   UNL     1       0.279  -1.312   0.351  0.00  0.00    +0.047 C 
ATOM      3  C   UNL     1       1.201  -2.271  -0.351  0.00  0.00    -0.037 A 
ATOM      4  C   UNL     1       0.691  -3.257  -1.172  0.00  0.00    +0.004 A 
ATOM      5  C   UNL     1       1.545  -4.137  -1.811  0.00  0.00    +0.000 A 
ATOM      6  C   UNL     1       2.914  -4.039  -1.633  0.00  0.00    +0.001 A 
ATOM      7  C   UNL     1       3.437  -3.056  -0.817  0.00  0.00    +0.010 A 
ATOM      8  C   UNL     1       2.581  -2.167  -0.173  0.00  0.00    +0.004 A 
ATOM      9  C   UNL     1       3.112  -1.097   0.701  0.00  0.00    +0.084 A 
ATOM     10  C   UNL     1       2.301  -0.012   1.001  0.00  0.00    +0.050 A 
ATOM     11  C   UNL     1       2.803   0.995   1.835  0.00  0.00    +0.264 A 
ATOM     12  O   UNL     1       2.118   1.964   2.124  0.00  0.00    -0.267 OA
ATOM     13  N   UNL     1       4.059   0.872   2.315  0.00  0.00    -0.248 N 
ATOM     14  C   UNL     1       4.817  -0.213   1.984  0.00  0.00    +0.223 A 
ATOM     15  N   UNL     1       4.351  -1.164   1.200  0.00  0.00    -0.214 NA
ATOM     16  N   UNL     1       6.092  -0.316   2.478  0.00  0.00    -0.206 N 
ATOM     17  C   UNL     1       0.055   0.964   1.341  0.00  0.00    +0.016 C 
ATOM     18  H   UNL     1       6.420   0.338   3.115  0.00  0.00    +0.177 HD
ENDROOT
BRANCH  13  19
ATOM     19  C   UNL     1       4.587   1.862   3.155  0.00  0.00    +0.053 A 
ATOM     20  C   UNL     1       4.412   1.773   4.529  0.00  0.00    +0.030 A 
ATOM     21  C   UNL     1       4.932   2.749   5.356  0.00  0.00    +0.047 A 
ATOM     22  C   UNL     1       5.629   3.819   4.813  0.00  0.00    +0.120 A 
ATOM     23  C   UNL     1       5.803   3.909   3.440  0.00  0.00    +0.047 A 
ATOM     24  C   UNL     1       5.289   2.931   2.613  0.00  0.00    +0.030 A 
BRANCH  22  25
ATOM     25  O   UNL     1       6.141   4.780   5.628  0.00  0.00    -0.495 OA
ATOM     26  C   UNL     1       6.846   5.853   5.002  0.00  0.00    +0.277 C 
ENDBRANCH  22  25
ENDBRANCH  13  19
BRANCH   1  28
ATOM     27  C   UNL     1       1.580   2.091  -0.879  0.00  0.00    +0.005 C 
ATOM     28  C   UNL     1       0.973   0.689  -0.963  0.00  0.00    +0.008 C 
ENDBRANCH   1  28
BRANCH  16  29
ATOM     29  N   UNL     1       6.921  -1.366   2.063  0.00  0.00    -0.188 NA
ATOM     30  C   UNL     1       8.128  -1.463   2.530  0.00  0.00    +0.138 C 
BRANCH  30  31
ATOM     31  C   UNL     1       9.001  -2.568   2.093  0.00  0.00    -0.005 A 
ATOM     32  C   UNL     1       8.535  -3.509   1.171  0.00  0.00    +0.010 A 
ATOM     33  C   UNL     1       9.357  -4.540   0.767  0.00  0.00    +0.004 A 
ATOM     34  C   UNL     1      10.641  -4.644   1.272  0.00  0.00    -0.045 A 
ATOM     35  C   UNL     1      11.110  -3.716   2.185  0.00  0.00    +0.004 A 
ATOM     36  C   UNL     1      10.301  -2.676   2.594  0.00  0.00    +0.010 A 
BRANCH  34  37
ATOM     37  C   UNL     1      11.533  -5.773   0.825  0.00  0.00    +0.013 C 
ATOM     38  C   UNL     1      12.788  -5.201   0.163  0.00  0.00    +0.012 C 
ATOM     39  C   UNL     1      11.935  -6.615   2.038  0.00  0.00    +0.012 C 
ENDBRANCH  34  37
ENDBRANCH  30  31
ENDBRANCH  16  29
TORSDOF 6
