REMARK  Name = ZINC39912478
REMARK  7 active torsions:
REMARK  status: ('A' for Active; 'I' for Inactive)
REMARK    1  A    between atoms: C_1  and  C_2
REMARK    2  A    between atoms: C_4  and  C_35
REMARK    3  A    between atoms: C_5  and  O_34
REMARK    4  A    between atoms: C_6  and  C_8
REMARK    5  A    between atoms: N_16  and  C_26
REMARK    6  A    between atoms: C_17  and  C_19
REMARK    7  A    between atoms: C_26  and  C_27
REMARK                            x       y       z     vdW  Elec       q    Type
REMARK                         _______ _______ _______ _____ _____    ______ ____
ROOT
ATOM      1  C   UNL     1       0.243  -3.074   2.678  0.00  0.00    +0.102 A 
ATOM      2  C   UNL     1       0.232  -2.380   3.893  0.00  0.00    +0.035 A 
ATOM      3  C   UNL     1       0.178  -3.347   4.878  0.00  0.00    +0.126 A 
ATOM      4  N   UNL     1       0.159  -4.549   4.230  0.00  0.00    -0.272 N 
ATOM      5  H   UNL     1       0.122  -5.416   4.665  0.00  0.00    +0.189 HD
ATOM      6  N   UNL     1       0.192  -4.362   2.959  0.00  0.00    -0.173 NA
ATOM      7  C   UNL     1       0.164  -2.680   6.185  0.00  0.00    +0.266 C 
ATOM      8  O   UNL     1       0.120  -3.254   7.257  0.00  0.00    -0.268 OA
ATOM      9  N   UNL     1       0.207  -1.345   6.031  0.00  0.00    -0.281 N 
ATOM     10  C   UNL     1       0.253  -1.049   4.593  0.00  0.00    +0.142 C 
ENDROOT
BRANCH   1  16
ATOM     11  C   UNL     1      -1.384   0.312  -0.610  0.00  0.00    +0.044 C 
ATOM     12  C   UNL     1      -0.484  -0.846  -0.262  0.00  0.00    -0.049 A 
ATOM     13  C   UNL     1       0.390  -1.348  -1.209  0.00  0.00    +0.010 A 
ATOM     14  C   UNL     1       1.219  -2.409  -0.900  0.00  0.00    -0.008 A 
ATOM     15  C   UNL     1       1.177  -2.977   0.364  0.00  0.00    +0.129 A 
ATOM     16  C   UNL     1       0.295  -2.472   1.323  0.00  0.00    +0.044 A 
ATOM     17  C   UNL     1      -0.532  -1.398   1.002  0.00  0.00    +0.017 A 
ATOM     18  C   UNL     1       2.169  -2.951  -1.937  0.00  0.00    +0.047 C 
BRANCH  15  19
ATOM     19  O   UNL     1       1.991  -4.022   0.669  0.00  0.00    -0.506 OA
ATOM     20  H   UNL     1       2.848  -3.759   1.032  0.00  0.00    +0.292 HD
ENDBRANCH  15  19
ENDBRANCH   1  16
BRANCH  10  21
ATOM     21  C   UNL     1       1.520  -0.306   4.256  0.00  0.00    -0.022 A 
ATOM     22  C   UNL     1       2.740  -0.785   4.698  0.00  0.00    +0.007 A 
ATOM     23  C   UNL     1       3.902  -0.104   4.389  0.00  0.00    +0.015 A 
ATOM     24  C   UNL     1       3.845   1.057   3.639  0.00  0.00    +0.018 A 
ATOM     25  C   UNL     1       2.625   1.535   3.197  0.00  0.00    +0.015 A 
ATOM     26  C   UNL     1       1.464   0.851   3.502  0.00  0.00    +0.007 A 
ATOM     27 BR   UNL     1       5.436   1.989   3.216  0.00  0.00    -0.050 Br
ENDBRANCH  10  21
BRANCH   9  28
ATOM     28  C   UNL     1       0.209  -0.355   7.111  0.00  0.00    +0.144 C 
BRANCH  28  29
ATOM     29  C   UNL     1       1.630  -0.058   7.517  0.00  0.00    -0.030 A 
ATOM     30  C   UNL     1       2.236  -0.807   8.508  0.00  0.00    +0.008 A 
ATOM     31  C   UNL     1       3.539  -0.536   8.881  0.00  0.00    +0.038 A 
ATOM     32  C   UNL     1       4.237   0.488   8.262  0.00  0.00    +0.123 A 
ATOM     33  C   UNL     1       3.628   1.238   7.270  0.00  0.00    +0.038 A 
ATOM     34  C   UNL     1       2.327   0.961   6.895  0.00  0.00    +0.008 A 
ATOM     35  F   UNL     1       5.510   0.755   8.626  0.00  0.00    -0.205 F 
ENDBRANCH  28  29
ENDBRANCH   9  28
TORSDOF 5
