REMARK  Name = ZINC14531901
REMARK  9 active torsions:
REMARK  status: ('A' for Active; 'I' for Inactive)
REMARK    1  A    between atoms: C_1  and  C_2
REMARK    2  A    between atoms: C_5  and  C_9
REMARK    3  A    between atoms: C_7  and  C_8
REMARK    4  A    between atoms: C_9  and  N_70
REMARK    5  A    between atoms: N_17  and  C_29
REMARK    6  A    between atoms: N_20  and  C_21
REMARK    7  A    between atoms: C_21  and  C_22
REMARK    8  A    between atoms: C_22  and  C_23
REMARK    9  A    between atoms: C_29  and  C_30
REMARK                            x       y       z     vdW  Elec       q    Type
REMARK                         _______ _______ _______ _____ _____    ______ ____
ROOT
ATOM      1  C   UNL     1      -0.736   1.659   1.249  0.00  0.00    -0.076 C 
ATOM      2  C   UNL     1      -0.012   1.151  -0.001  0.00  0.00    +0.017 C 
ATOM      3  C   UNL     1      -0.763   1.617  -1.244  0.00  0.00    +0.112 C 
ATOM      4  C   UNL     1      -0.905   3.135  -1.244  0.00  0.00    +0.017 C 
ATOM      5  C   UNL     1      -1.601   3.579   0.046  0.00  0.00    -0.076 C 
ATOM      6  C   UNL     1      -0.056   1.151  -2.495  0.00  0.00    +0.247 C 
ATOM      7  O   UNL     1       1.068   1.435  -2.851  0.00  0.00    -0.273 OA
ATOM      8  N   UNL     1      -0.938   0.355  -3.133  0.00  0.00    -0.220 N 
ATOM      9  C   UNL     1      -2.091   0.258  -2.459  0.00  0.00    +0.312 C 
ATOM     10  O   UNL     1      -3.039  -0.404  -2.834  0.00  0.00    -0.252 OA
ATOM     11  N   UNL     1      -2.082   0.976  -1.320  0.00  0.00    -0.271 N 
ATOM     12  N   UNL     1      -0.792   3.136   1.202  0.00  0.00    +0.382 N 
ATOM     13  H   UNL     1       0.162   3.502   1.100  0.00  0.00    -0.081 HD
ENDROOT
BRANCH  12  14
ATOM     14  C   UNL     1      -1.374   3.659   2.455  0.00  0.00    -0.043 C 
BRANCH  14  19
ATOM     15  C   UNL     1       1.174   1.071   6.950  0.00  0.00    +0.044 C 
ATOM     16  C   UNL     1       0.509   1.746   5.778  0.00  0.00    -0.048 A 
ATOM     17  C   UNL     1      -0.639   1.206   5.229  0.00  0.00    +0.004 A 
ATOM     18  C   UNL     1      -1.252   1.828   4.158  0.00  0.00    +0.002 A 
ATOM     19  C   UNL     1      -0.710   2.984   3.627  0.00  0.00    -0.064 A 
ATOM     20  C   UNL     1       0.439   3.524   4.175  0.00  0.00    +0.005 A 
ATOM     21  C   UNL     1       1.048   2.905   5.251  0.00  0.00    -0.047 A 
ATOM     22  C   UNL     1       2.300   3.493   5.849  0.00  0.00    +0.044 C 
ENDBRANCH  14  19
ENDBRANCH  12  14
BRANCH  11  23
ATOM     23  C   UNL     1      -3.172   1.093  -0.348  0.00  0.00    +0.115 C 
BRANCH  23  24
ATOM     24  C   UNL     1      -4.347   1.836  -0.987  0.00  0.00    +0.054 C 
BRANCH  24  25
ATOM     25  C   UNL     1      -5.419   2.064   0.047  0.00  0.00    -0.046 A 
ATOM     26  C   UNL     1      -6.418   1.125   0.226  0.00  0.00    +0.004 A 
ATOM     27  C   UNL     1      -7.398   1.331   1.179  0.00  0.00    +0.000 A 
ATOM     28  C   UNL     1      -7.387   2.482   1.944  0.00  0.00    +0.000 A 
ATOM     29  C   UNL     1      -6.392   3.425   1.761  0.00  0.00    +0.000 A 
ATOM     30  C   UNL     1      -5.408   3.215   0.812  0.00  0.00    +0.004 A 
ENDBRANCH  24  25
ENDBRANCH  23  24
ENDBRANCH  11  23
BRANCH   8  31
ATOM     31  C   UNL     1      -0.668  -0.321  -4.405  0.00  0.00    +0.154 C 
BRANCH  31  32
ATOM     32  C   UNL     1      -0.070  -1.677  -4.136  0.00  0.00    -0.011 A 
ATOM     33  C   UNL     1      -0.886  -2.788  -3.989  0.00  0.00    +0.008 A 
ATOM     34  C   UNL     1      -0.292  -4.016  -3.742  0.00  0.00    +0.020 A 
ATOM     35  C   UNL     1       1.085  -4.092  -3.652  0.00  0.00    +0.111 A 
ATOM     36  N   UNL     1       1.831  -3.014  -3.797  0.00  0.00    -0.263 NA
ATOM     37  C   UNL     1       1.300  -1.831  -4.038  0.00  0.00    +0.116 A 
ENDBRANCH  31  32
ENDBRANCH   8  31
TORSDOF 7
