REMARK  Name = ZINC35476919
REMARK  8 active torsions:
REMARK  status: ('A' for Active; 'I' for Inactive)
REMARK    1  A    between atoms: C_1  and  C_2
REMARK    2  A    between atoms: C_2  and  C_3
REMARK    3  A    between atoms: C_5  and  C_17
REMARK    4  A    between atoms: C_6  and  N_8
REMARK    5  A    between atoms: C_9  and  C_11
REMARK    6  A    between atoms: C_17  and  C_19
REMARK    7  A    between atoms: C_17  and  N_28
REMARK    8  A    between atoms: C_31  and  C_35
REMARK                            x       y       z     vdW  Elec       q    Type
REMARK                         _______ _______ _______ _____ _____    ______ ____
ROOT
ATOM      1  C   UNL     1       3.909  -1.511  -2.897  0.00  0.00    +0.135 C 
ENDROOT
BRANCH   1   2
ATOM      2  N   UNL     1       4.732  -0.749  -1.955  0.00  0.00    -0.320 N 
ATOM      3  C   UNL     1       6.015  -0.353  -2.316  0.00  0.00    +0.097 A 
ATOM      4  C   UNL     1       6.509  -0.680  -3.575  0.00  0.00    +0.045 A 
ATOM      5  C   UNL     1       7.787  -0.280  -3.921  0.00  0.00    -0.046 A 
ATOM      6  C   UNL     1       8.531   0.436  -2.992  0.00  0.00    +0.021 A 
ATOM      7  C   UNL     1       7.979   0.725  -1.761  0.00  0.00    +0.084 A 
ATOM      8  N   UNL     1       6.754   0.335  -1.460  0.00  0.00    -0.350 N 
ATOM      9  C   UNL     1       8.359  -0.614  -5.274  0.00  0.00    +0.044 C 
ATOM     10  H   UNL     1       4.382  -0.520  -1.080  0.00  0.00    +0.148 HD
ATOM     11  H   UNL     1       6.388   0.555  -0.589  0.00  0.00    +0.166 HD
ENDBRANCH   1   2
BRANCH   1  12
ATOM     12  C   UNL     1       4.243  -2.976  -2.785  0.00  0.00    -0.019 A 
ATOM     13  C   UNL     1       4.468  -3.540  -1.543  0.00  0.00    +0.009 A 
ATOM     14  C   UNL     1       4.774  -4.883  -1.435  0.00  0.00    +0.050 A 
ATOM     15  C   UNL     1       4.858  -5.669  -2.573  0.00  0.00    +0.166 A 
ATOM     16  C   UNL     1       4.631  -5.101  -3.825  0.00  0.00    +0.167 A 
ATOM     17  C   UNL     1       4.319  -3.755  -3.924  0.00  0.00    +0.055 A 
ATOM     18  O   UNL     1       4.771  -6.071  -4.775  0.00  0.00    -0.453 OA
ATOM     19  C   UNL     1       5.484  -7.143  -4.129  0.00  0.00    +0.466 C 
ATOM     20  O   UNL     1       5.139  -6.994  -2.739  0.00  0.00    -0.453 OA
ENDBRANCH   1  12
BRANCH   1  23
ATOM     21  C   UNL     1       0.736  -0.812  -1.029  0.00  0.00    -0.008 A 
ATOM     22  C   UNL     1       2.054  -0.994  -1.286  0.00  0.00    +0.019 A 
ATOM     23  C   UNL     1       2.452  -1.302  -2.573  0.00  0.00    +0.006 A 
ATOM     24  C   UNL     1       1.502  -1.413  -3.545  0.00  0.00    +0.077 A 
ATOM     25  S   UNL     1       0.003  -1.085  -2.634  0.00  0.00    -0.078 S 
BRANCH  24  26
ATOM     26  N   UNL     1       1.661  -1.713  -4.899  0.00  0.00    -0.276 N 
ATOM     27  C   UNL     1       0.583  -1.777  -5.706  0.00  0.00    +0.249 C 
ATOM     28  O   UNL     1      -0.527  -1.575  -5.254  0.00  0.00    -0.270 OA
ATOM     29  H   UNL     1       2.547  -1.874  -5.260  0.00  0.00    +0.156 HD
BRANCH  27  30
ATOM     30  C   UNL     1       0.751  -2.094  -7.140  0.00  0.00    +0.037 A 
ATOM     31  C   UNL     1       2.024  -2.333  -7.661  0.00  0.00    +0.013 A 
ATOM     32  C   UNL     1       2.174  -2.628  -9.000  0.00  0.00    +0.001 A 
ATOM     33  C   UNL     1       1.066  -2.688  -9.826  0.00  0.00    +0.000 A 
ATOM     34  C   UNL     1      -0.199  -2.452  -9.316  0.00  0.00    +0.001 A 
ATOM     35  C   UNL     1      -0.363  -2.161  -7.978  0.00  0.00    +0.013 A 
ENDBRANCH  27  30
ENDBRANCH  24  26
BRANCH  21  37
ATOM     36  C   UNL     1      -0.036   1.047   0.419  0.00  0.00    +0.009 C 
ATOM     37  C   UNL     1       0.062  -0.473   0.276  0.00  0.00    +0.039 C 
ENDBRANCH  21  37
ENDBRANCH   1  23
TORSDOF 6
