REMARK  Name = ZINC39895840
REMARK  8 active torsions:
REMARK  status: ('A' for Active; 'I' for Inactive)
REMARK    1  A    between atoms: C_1  and  C_2
REMARK    2  A    between atoms: C_2  and  C_3
REMARK    3  A    between atoms: C_6  and  N_9
REMARK    4  A    between atoms: C_12  and  C_23
REMARK    5  A    between atoms: C_16  and  C_17
REMARK    6  A    between atoms: C_16  and  C_19
REMARK    7  A    between atoms: N_21  and  C_22
REMARK    8  A    between atoms: C_23  and  C_24
REMARK                            x       y       z     vdW  Elec       q    Type
REMARK                         _______ _______ _______ _____ _____    ______ ____
ROOT
ATOM      1  N   UNL     1      -5.248  -2.269  -0.004  0.00  0.00    -0.232 N 
ATOM      2  C   UNL     1      -5.755  -2.750   1.119  0.00  0.00    +0.238 C 
ATOM      3  O   UNL     1      -5.140  -2.733   2.163  0.00  0.00    -0.274 OA
ATOM      4  C   UNL     1      -7.159  -3.326   1.016  0.00  0.00    +0.143 C 
ATOM      5  S   UNL     1      -7.495  -3.049  -0.772  0.00  0.00    -0.095 S 
ATOM      6  C   UNL     1      -5.938  -2.279  -1.192  0.00  0.00    +0.098 C 
ATOM      7  C   UNL     1      -5.520  -1.801  -2.434  0.00  0.00    +0.141 C 
ENDROOT
BRANCH   1  11
ATOM      8  C   UNL     1      -1.410  -0.645   0.067  0.00  0.00    -0.048 A 
ATOM      9  C   UNL     1      -1.579  -2.017   0.103  0.00  0.00    +0.005 A 
ATOM     10  C   UNL     1      -2.850  -2.558   0.080  0.00  0.00    +0.024 A 
ATOM     11  C   UNL     1      -3.958  -1.723   0.021  0.00  0.00    +0.042 A 
ATOM     12  C   UNL     1      -3.784  -0.346  -0.015  0.00  0.00    +0.024 A 
ATOM     13  C   UNL     1      -2.511   0.189   0.014  0.00  0.00    +0.005 A 
BRANCH   8  15
ATOM     14  C   UNL     1       0.406   0.178   1.542  0.00  0.00    +0.009 C 
ATOM     15  C   UNL     1      -0.022  -0.058   0.092  0.00  0.00    +0.032 C 
ENDBRANCH   8  15
ENDBRANCH   1  11
BRANCH   7  16
ATOM     16  C   UNL     1      -4.131  -1.387  -2.629  0.00  0.00    +0.257 C 
ATOM     17  O   UNL     1      -3.848  -0.204  -2.670  0.00  0.00    -0.269 OA
ATOM     18  N   UNL     1      -3.164  -2.316  -2.764  0.00  0.00    -0.314 N 
ATOM     19  C   UNL     1      -1.772  -1.902  -2.959  0.00  0.00    +0.128 C 
ATOM     20  H   UNL     1      -3.389  -3.259  -2.731  0.00  0.00    +0.149 HD
ENDBRANCH   7  16
BRANCH   7  21
ATOM     21  C   UNL     1      -6.452  -1.716  -3.519  0.00  0.00    +0.107 C 
ATOM     22  N   UNL     1      -7.190  -1.649  -4.379  0.00  0.00    -0.191 NA
ENDBRANCH   7  21
BRANCH   4  23
ATOM     23  C   UNL     1      -7.174  -4.816   1.360  0.00  0.00    +0.059 C 
BRANCH  23  24
ATOM     24  C   UNL     1      -8.595  -5.316   1.366  0.00  0.00    -0.043 A 
ATOM     25  C   UNL     1      -9.339  -5.271   2.530  0.00  0.00    +0.023 A 
ATOM     26  C   UNL     1     -10.644  -5.730   2.536  0.00  0.00    +0.043 A 
ATOM     27  C   UNL     1     -11.205  -6.234   1.376  0.00  0.00    +0.040 A 
ATOM     28  C   UNL     1     -10.460  -6.279   0.211  0.00  0.00    +0.043 A 
ATOM     29  C   UNL     1      -9.157  -5.815   0.205  0.00  0.00    +0.023 A 
ATOM     30 CL   UNL     1     -11.163  -6.912  -1.244  0.00  0.00    -0.083 Cl
ATOM     31 CL   UNL     1     -11.578  -5.674   3.998  0.00  0.00    -0.083 Cl
ENDBRANCH  23  24
ENDBRANCH   4  23
TORSDOF 6
