REMARK  Name = ZINC63514617
REMARK  6 active torsions:
REMARK  status: ('A' for Active; 'I' for Inactive)
REMARK    1  A    between atoms: C_1  and  C_2
REMARK    2  A    between atoms: C_4  and  C_13
REMARK    3  A    between atoms: C_13  and  C_14
REMARK    4  A    between atoms: C_14  and  N_15
REMARK    5  A    between atoms: C_16  and  C_18
REMARK    6  A    between atoms: C_23  and  N_24
REMARK                            x       y       z     vdW  Elec       q    Type
REMARK                         _______ _______ _______ _____ _____    ______ ____
ROOT
ATOM      1  C   UNL     1       1.381  -1.014  -7.380  0.00  0.00    +0.068 A 
ATOM      2  C   UNL     1       0.255  -0.249  -7.687  0.00  0.00    +0.016 A 
ATOM      3  C   UNL     1      -0.096  -0.024  -9.005  0.00  0.00    +0.013 A 
ATOM      4  C   UNL     1       0.672  -0.561 -10.034  0.00  0.00    +0.035 A 
ATOM      5  C   UNL     1       1.808  -1.334  -9.731  0.00  0.00    +0.064 A 
ATOM      6  C   UNL     1       2.161  -1.553  -8.404  0.00  0.00    +0.150 A 
ATOM      7  C   UNL     1       2.626  -1.906 -10.821  0.00  0.00    +0.197 C 
ATOM      8  O   UNL     1       3.607  -2.574 -10.559  0.00  0.00    -0.287 OA
ATOM      9  C   UNL     1       2.250  -1.666 -12.230  0.00  0.00    +0.033 A 
ATOM     10  C   UNL     1       3.014  -2.203 -13.262  0.00  0.00    +0.012 A 
ATOM     11  C   UNL     1       2.654  -1.973 -14.579  0.00  0.00    +0.001 A 
ATOM     12  C   UNL     1       1.538  -1.214 -14.877  0.00  0.00    +0.001 A 
ATOM     13  C   UNL     1       0.767  -0.672 -13.864  0.00  0.00    +0.012 A 
ATOM     14  C   UNL     1       1.114  -0.894 -12.534  0.00  0.00    +0.033 A 
ATOM     15  C   UNL     1       0.296  -0.321 -11.445  0.00  0.00    +0.195 C 
ATOM     16  O   UNL     1      -0.685   0.346 -11.708  0.00  0.00    -0.287 OA
ENDROOT
BRANCH   1  18
ATOM     17  N   UNL     1       0.998  -0.730  -4.977  0.00  0.00    -0.311 N 
ATOM     18  C   UNL     1       1.751  -1.250  -5.967  0.00  0.00    +0.246 C 
ATOM     19  O   UNL     1       2.733  -1.912  -5.698  0.00  0.00    -0.270 OA
ATOM     20  H   UNL     1       0.213  -0.201  -5.192  0.00  0.00    +0.149 HD
BRANCH  17  21
ATOM     21  C   UNL     1       1.364  -0.963  -3.578  0.00  0.00    +0.109 C 
BRANCH  21  22
ATOM     22  C   UNL     1       0.352  -0.269  -2.664  0.00  0.00    +0.052 C 
BRANCH  22  25
ATOM     23  C   UNL     1      -0.019   1.526   0.010  0.00  0.00    +0.035 C 
ATOM     24  C   UNL     1       0.002  -0.004   0.002  0.00  0.00    +0.103 C 
ATOM     25  C   UNL     1       0.729  -0.509  -1.224  0.00  0.00    -0.037 C 
ATOM     26  C   UNL     1       1.785  -1.220  -0.768  0.00  0.00    +0.002 A 
ATOM     27  C   UNL     1       2.858  -1.954  -1.449  0.00  0.00    +0.048 A 
ATOM     28  C   UNL     1       3.798  -2.583  -0.705  0.00  0.00    +0.124 A 
ATOM     29  C   UNL     1       3.771  -2.550   0.698  0.00  0.00    +0.040 A 
ATOM     30  C   UNL     1       2.817  -1.897   1.393  0.00  0.00    +0.029 A 
ATOM     31  C   UNL     1       1.780  -1.201   0.712  0.00  0.00    +0.043 A 
ATOM     32  N   UNL     1       0.758  -0.506   1.155  0.00  0.00    -0.378 N 
ATOM     33  F   UNL     1       4.787  -3.260  -1.329  0.00  0.00    -0.205 F 
ATOM     34  H   UNL     1       0.540  -0.349   2.087  0.00  0.00    +0.160 HD
ENDBRANCH  22  25
ENDBRANCH  21  22
ENDBRANCH  17  21
ENDBRANCH   1  18
BRANCH   6  35
ATOM     35  N   UNL     1       3.359  -2.360  -8.078  0.00  0.00    +0.058 N 
ATOM     36  O   UNL     1       3.261  -3.557  -7.936  0.00  0.00    -0.126 OA
ATOM     37  O   UNL     1       4.434  -1.822  -7.954  0.00  0.00    -0.126 OA
ENDBRANCH   6  35
TORSDOF 5
