REMARK  Name = ZINC13645840
REMARK  4 active torsions:
REMARK  status: ('A' for Active; 'I' for Inactive)
REMARK    1  A    between atoms: C_1  and  C_2
REMARK    2  A    between atoms: C_6  and  C_7
REMARK    3  A    between atoms: C_17  and  N_24
REMARK    4  A    between atoms: C_20  and  O_23
REMARK                            x       y       z     vdW  Elec       q    Type
REMARK                         _______ _______ _______ _____ _____    ______ ____
ROOT
ATOM      1  C   UNL     1       0.236  -0.645   2.015  0.00  0.00    +0.112 C 
ATOM      2  C   UNL     1      -1.186  -0.613   2.546  0.00  0.00    +0.029 C 
ATOM      3  C   UNL     1      -2.277  -0.101   1.597  0.00  0.00    +0.033 C 
ATOM      4  C   UNL     1      -3.502  -0.870   2.093  0.00  0.00    -0.030 C 
ATOM      5  C   UNL     1      -3.123  -2.000   2.679  0.00  0.00    -0.023 C 
ATOM      6  C   UNL     1      -1.632  -2.103   2.627  0.00  0.00    +0.051 C 
ATOM      7  C   UNL     1      -0.834  -2.759   3.686  0.00  0.00    +0.014 A 
ATOM      8  C   UNL     1      -1.352  -3.745   4.500  0.00  0.00    +0.132 A 
ATOM      9  C   UNL     1      -0.564  -4.339   5.467  0.00  0.00    +0.037 A 
ATOM     10  C   UNL     1       0.753  -3.946   5.624  0.00  0.00    +0.049 A 
ATOM     11  C   UNL     1       1.282  -2.954   4.817  0.00  0.00    +0.138 A 
ATOM     12  C   UNL     1       0.491  -2.345   3.844  0.00  0.00    +0.076 A 
ATOM     13  N   UNL     1       1.040  -1.315   3.060  0.00  0.00    -0.333 N 
ATOM     14  H   UNL     1       1.958  -1.039   3.205  0.00  0.00    +0.147 HD
ENDROOT
BRANCH   1  20
ATOM     15  C   UNL     1       0.066   0.489  -0.835  0.00  0.00    +0.044 C 
ATOM     16  C   UNL     1       0.224  -0.982  -0.548  0.00  0.00    -0.038 A 
ATOM     17  C   UNL     1       0.306  -1.894  -1.583  0.00  0.00    +0.011 A 
ATOM     18  C   UNL     1       0.449  -3.210  -1.291  0.00  0.00    +0.046 A 
ATOM     19  S   UNL     1       0.470  -3.190   0.494  0.00  0.00    -0.099 S 
ATOM     20  C   UNL     1       0.294  -1.429   0.729  0.00  0.00    +0.013 A 
ENDBRANCH   1  20
BRANCH   8  21
ATOM     21  N   UNL     1      -2.760  -4.170   4.336  0.00  0.00    +0.057 N 
ATOM     22  O   UNL     1      -3.505  -4.174   5.288  0.00  0.00    -0.126 OA
ATOM     23  O   UNL     1      -3.166  -4.513   3.249  0.00  0.00    -0.126 OA
ENDBRANCH   8  21
BRANCH  11  24
ATOM     24  O   UNL     1       2.577  -2.572   4.974  0.00  0.00    -0.505 OA
ATOM     25  H   UNL     1       3.204  -3.072   4.434  0.00  0.00    +0.292 HD
ENDBRANCH  11  24
TORSDOF 3
