REMARK  Name = ZINC39533421
REMARK  9 active torsions:
REMARK  status: ('A' for Active; 'I' for Inactive)
REMARK    1  A    between atoms: C_1  and  C_2
REMARK    2  A    between atoms: C_2  and  C_3
REMARK    3  A    between atoms: C_2  and  C_4
REMARK    4  A    between atoms: C_4  and  C_5
REMARK    5  A    between atoms: C_8  and  C_11
REMARK    6  A    between atoms: C_11  and  C_13
REMARK    7  A    between atoms: C_11  and  N_16
REMARK    8  A    between atoms: C_13  and  N_14
REMARK    9  A    between atoms: C_20  and  O_23
REMARK                            x       y       z     vdW  Elec       q    Type
REMARK                         _______ _______ _______ _____ _____    ______ ____
ROOT
ATOM      1  C   UNL     1      -2.213   0.937   5.993  0.00  0.00    +0.101 C 
ENDROOT
BRANCH   1   2
ATOM      2  N   UNL     1      -3.627   0.541   5.938  0.00  0.00    -0.295 NA
ATOM      3  C   UNL     1      -4.244   0.966   4.673  0.00  0.00    +0.066 C 
ATOM      4  C   UNL     1      -5.695   0.484   4.630  0.00  0.00    -0.063 C 
ATOM      5  N   UNL     1      -6.433   1.048   5.769  0.00  0.00    +0.398 N 
ATOM      6  C   UNL     1      -5.819   0.595   7.024  0.00  0.00    +0.073 C 
ATOM      7  C   UNL     1      -4.369   1.078   7.087  0.00  0.00    +0.096 C 
ATOM      8  H   UNL     1      -6.401   2.056   5.723  0.00  0.00    -0.082 HD
ATOM      9  H   UNL     1      -7.393   0.740   5.733  0.00  0.00    -0.082 HD
BRANCH   6  10
ATOM     10  O   UNL     1      -6.548   1.131   8.131  0.00  0.00    -0.409 OA
ATOM     11  H   UNL     1      -7.478   0.866   8.155  0.00  0.00    +0.207 HD
ENDBRANCH   6  10
ENDBRANCH   1   2
BRANCH   1  15
ATOM     12  C   UNL     1      -0.099  -0.874   2.752  0.00  0.00    -0.047 A 
ATOM     13  C   UNL     1       0.180   0.430   3.117  0.00  0.00    +0.004 A 
ATOM     14  C   UNL     1      -0.504   1.016   4.165  0.00  0.00    +0.005 A 
ATOM     15  C   UNL     1      -1.468   0.298   4.849  0.00  0.00    -0.029 A 
ATOM     16  C   UNL     1      -1.748  -1.005   4.483  0.00  0.00    +0.005 A 
ATOM     17  C   UNL     1      -1.067  -1.590   3.432  0.00  0.00    +0.004 A 
BRANCH  12  18
ATOM     18  C   UNL     1       0.646  -1.513   1.609  0.00  0.00    +0.038 C 
BRANCH  18  20
ATOM     19  C   UNL     1      -0.096   0.250   0.001  0.00  0.00    +0.007 C 
ATOM     20  C   UNL     1      -0.103  -1.250   0.301  0.00  0.00    -0.013 C 
ATOM     21  C   UNL     1       0.585  -2.002  -0.841  0.00  0.00    +0.007 C 
ENDBRANCH  18  20
ENDBRANCH  12  18
ENDBRANCH   1  15
BRANCH   1  22
ATOM     22  C   UNL     1      -1.605   0.474   7.318  0.00  0.00    +0.115 C 
BRANCH  22  23
ATOM     23  N   UNL     1      -0.215   0.942   7.409  0.00  0.00    -0.259 NA
ATOM     24  I   UNL     1       0.701   0.201   9.087  0.00  0.00    +0.018 I 
ATOM     25  H   UNL     1      -0.171   1.950   7.388  0.00  0.00    +0.134 HD
ENDBRANCH  22  23
ENDBRANCH   1  22
TORSDOF 7
