REMARK  Name = ZINC35885950
REMARK  10 active torsions:
REMARK  status: ('A' for Active; 'I' for Inactive)
REMARK    1  A    between atoms: C_1  and  C_2
REMARK    2  A    between atoms: C_2  and  C_3
REMARK    3  A    between atoms: C_2  and  C_4
REMARK    4  A    between atoms: C_4  and  C_5
REMARK    5  A    between atoms: C_9  and  C_24
REMARK    6  A    between atoms: C_11  and  C_14
REMARK    7  A    between atoms: C_18  and  C_20
REMARK    8  A    between atoms: C_24  and  N_25
REMARK    9  A    between atoms: C_28  and  C_31
REMARK   10  A    between atoms: C_31  and  C_32
REMARK                            x       y       z     vdW  Elec       q    Type
REMARK                         _______ _______ _______ _____ _____    ______ ____
ROOT
ATOM      1  C   UNL     1      -1.203  -2.322   0.180  0.00  0.00    +0.216 C 
ATOM      2  O   UNL     1      -0.182  -2.946  -0.020  0.00  0.00    -0.276 OA
ATOM      3  N   UNL     1      -2.396  -2.946   0.128  0.00  0.00    -0.301 N 
ATOM      4  C   UNL     1      -2.641  -4.380  -0.151  0.00  0.00    +0.110 C 
ATOM      5  C   UNL     1      -3.909  -4.357  -1.041  0.00  0.00    -0.001 C 
ATOM      6  C   UNL     1      -4.743  -3.212  -0.421  0.00  0.00    +0.039 C 
ATOM      7  C   UNL     1      -3.724  -2.343   0.344  0.00  0.00    +0.116 C 
ENDROOT
BRANCH   6   8
ATOM      8  C   UNL     1      -5.416  -2.409  -1.504  0.00  0.00    -0.042 A 
ATOM      9  C   UNL     1      -4.655  -1.773  -2.467  0.00  0.00    +0.004 A 
ATOM     10  C   UNL     1      -5.272  -1.036  -3.461  0.00  0.00    +0.001 A 
ATOM     11  C   UNL     1      -6.651  -0.936  -3.491  0.00  0.00    +0.012 A 
ATOM     12  C   UNL     1      -7.412  -1.572  -2.529  0.00  0.00    +0.055 A 
ATOM     13  C   UNL     1      -6.795  -2.312  -1.538  0.00  0.00    +0.016 A 
BRANCH  12  14
ATOM     14  C   UNL     1      -8.914  -1.462  -2.562  0.00  0.00    +0.417 C 
ATOM     15  F   UNL     1      -9.300  -0.671  -3.649  0.00  0.00    -0.166 F 
ATOM     16  F   UNL     1      -9.473  -2.738  -2.692  0.00  0.00    -0.166 F 
ATOM     17  F   UNL     1      -9.365  -0.874  -1.375  0.00  0.00    -0.166 F 
ENDBRANCH  12  14
ENDBRANCH   6   8
BRANCH   1  18
ATOM     18  C   UNL     1      -1.136  -0.848   0.485  0.00  0.00    +0.099 C 
BRANCH  18  20
ATOM     19  C   UNL     1       0.385   1.126   0.670  0.00  0.00    +0.008 C 
ATOM     20  C   UNL     1       0.324  -0.392   0.483  0.00  0.00    -0.008 C 
ATOM     21  C   UNL     1       1.074  -1.076   1.628  0.00  0.00    +0.008 C 
ENDBRANCH  18  20
ENDBRANCH   1  18
BRANCH   5  22
ATOM     22  C   UNL     1      -4.659  -5.688  -0.951  0.00  0.00    -0.073 C 
BRANCH  22  23
ATOM     23  N   UNL     1      -3.819  -6.761  -1.501  0.00  0.00    +0.380 N 
ATOM     24  C   UNL     1      -4.474  -8.055  -1.278  0.00  0.00    -0.079 C 
ATOM     25  C   UNL     1      -3.567  -9.182  -1.777  0.00  0.00    -0.015 C 
ATOM     26  C   UNL     1      -3.301  -8.993  -3.273  0.00  0.00    -0.010 C 
ATOM     27  C   UNL     1      -2.687  -7.609  -3.501  0.00  0.00    -0.015 C 
ATOM     28  C   UNL     1      -3.627  -6.540  -2.939  0.00  0.00    -0.079 C 
ATOM     29  H   UNL     1      -2.922  -6.755  -1.038  0.00  0.00    -0.082 HD
BRANCH  26  30
ATOM     30  C   UNL     1      -2.331 -10.071  -3.761  0.00  0.00    +0.038 C 
BRANCH  30  31
ATOM     31  C   UNL     1      -2.167  -9.959  -5.255  0.00  0.00    -0.047 A 
ATOM     32  C   UNL     1      -3.012 -10.658  -6.097  0.00  0.00    +0.003 A 
ATOM     33  C   UNL     1      -2.861 -10.556  -7.468  0.00  0.00    +0.000 A 
ATOM     34  C   UNL     1      -1.866  -9.755  -7.995  0.00  0.00    +0.000 A 
ATOM     35  C   UNL     1      -1.021  -9.056  -7.153  0.00  0.00    +0.000 A 
ATOM     36  C   UNL     1      -1.175  -9.154  -5.783  0.00  0.00    +0.003 A 
ENDBRANCH  30  31
ENDBRANCH  26  30
ENDBRANCH  22  23
ENDBRANCH   5  22
TORSDOF 8
