REMARK  Name = ZINC44876612
REMARK  8 active torsions:
REMARK  status: ('A' for Active; 'I' for Inactive)
REMARK    1  A    between atoms: C_1  and  C_2
REMARK    2  A    between atoms: N_5  and  C_8
REMARK    3  A    between atoms: C_8  and  C_9
REMARK    4  A    between atoms: C_12  and  C_15
REMARK    5  A    between atoms: C_15  and  N_16
REMARK    6  A    between atoms: C_17  and  C_19
REMARK    7  A    between atoms: C_19  and  O_20
REMARK    8  A    between atoms: O_20  and  C_21
REMARK                            x       y       z     vdW  Elec       q    Type
REMARK                         _______ _______ _______ _____ _____    ______ ____
ROOT
ATOM      1  N   UNL     1       2.010  -4.413   7.195  0.00  0.00    -0.308 N 
ATOM      2  C   UNL     1       2.585  -4.555   8.405  0.00  0.00    +0.251 C 
ATOM      3  O   UNL     1       2.746  -5.662   8.874  0.00  0.00    -0.272 OA
ATOM      4  H   UNL     1       1.881  -3.528   6.820  0.00  0.00    +0.149 HD
ENDROOT
BRANCH   1   5
ATOM      5  C   UNL     1       1.578  -5.596   6.446  0.00  0.00    +0.139 C 
BRANCH   5   9
ATOM      6  C   UNL     1      -0.143  -4.380   2.730  0.00  0.00    -0.064 A 
ATOM      7  C   UNL     1       1.212  -4.640   2.812  0.00  0.00    +0.002 A 
ATOM      8  C   UNL     1       1.769  -5.033   4.014  0.00  0.00    +0.005 A 
ATOM      9  C   UNL     1       0.971  -5.166   5.135  0.00  0.00    -0.030 A 
ATOM     10  C   UNL     1      -0.384  -4.906   5.053  0.00  0.00    +0.005 A 
ATOM     11  C   UNL     1      -0.940  -4.508   3.852  0.00  0.00    +0.002 A 
BRANCH   6  12
ATOM     12  C   UNL     1      -0.750  -3.952   1.419  0.00  0.00    -0.043 C 
BRANCH  12  17
ATOM     13  C   UNL     1      -0.019   1.526   0.010  0.00  0.00    +0.007 C 
ATOM     14  C   UNL     1       0.002  -0.004   0.002  0.00  0.00    -0.018 C 
ATOM     15  C   UNL     1      -1.434  -0.536   0.023  0.00  0.00    -0.016 C 
ATOM     16  C   UNL     1      -1.405  -2.064   0.095  0.00  0.00    -0.078 C 
ATOM     17  N   UNL     1      -0.707  -2.487   1.315  0.00  0.00    +0.382 N 
ATOM     18  C   UNL     1       0.691  -2.042   1.269  0.00  0.00    -0.078 C 
ATOM     19  C   UNL     1       0.743  -0.513   1.242  0.00  0.00    -0.016 C 
ATOM     20  H   UNL     1      -1.162  -2.082   2.119  0.00  0.00    -0.081 HD
ENDBRANCH  12  17
ENDBRANCH   6  12
ENDBRANCH   5   9
ENDBRANCH   1   5
BRANCH   2  21
ATOM     21  C   UNL     1       3.029  -3.338   9.176  0.00  0.00    +0.324 C 
BRANCH  21  22
ATOM     22  O   UNL     1       3.605  -3.746  10.419  0.00  0.00    -0.482 OA
BRANCH  22  23
ATOM     23  C   UNL     1       4.059  -2.763  11.240  0.00  0.00    +0.136 A 
ATOM     24  C   UNL     1       3.942  -1.426  10.846  0.00  0.00    +0.047 A 
ATOM     25  C   UNL     1       4.388  -0.420  11.646  0.00  0.00    +0.012 A 
ATOM     26  C   UNL     1       4.974  -0.723  12.887  0.00  0.00    -0.017 A 
ATOM     27  C   UNL     1       5.445   0.291  13.738  0.00  0.00    +0.008 A 
ATOM     28  C   UNL     1       6.007  -0.038  14.932  0.00  0.00    +0.001 A 
ATOM     29  C   UNL     1       6.125  -1.369  15.327  0.00  0.00    +0.001 A 
ATOM     30  C   UNL     1       5.681  -2.379  14.530  0.00  0.00    +0.010 A 
ATOM     31  C   UNL     1       5.095  -2.077  13.289  0.00  0.00    -0.000 A 
ATOM     32  C   UNL     1       4.619  -3.093  12.441  0.00  0.00    +0.067 A 
ATOM     33 BR   UNL     1       4.761  -4.906  12.959  0.00  0.00    -0.046 Br
ENDBRANCH  22  23
ENDBRANCH  21  22
ENDBRANCH   2  21
TORSDOF 7
