REMARK  Name = ZINC43263439
REMARK  6 active torsions:
REMARK  status: ('A' for Active; 'I' for Inactive)
REMARK    1  A    between atoms: C_1  and  C_2
REMARK    2  A    between atoms: C_2  and  C_3
REMARK    3  A    between atoms: C_3  and  C_5
REMARK    4  A    between atoms: C_3  and  N_19
REMARK    5  A    between atoms: C_5  and  C_7
REMARK    6  A    between atoms: C_5  and  N_13
REMARK                            x       y       z     vdW  Elec       q    Type
REMARK                         _______ _______ _______ _____ _____    ______ ____
ROOT
ATOM      1  C   UNL     1       0.630  -2.023  -1.329  0.00  0.00    +0.129 C 
ENDROOT
BRANCH   1   2
ATOM      2  C   UNL     1       1.175  -2.618  -0.055  0.00  0.00    +0.014 A 
ATOM      3  C   UNL     1       2.220  -3.465   0.112  0.00  0.00    +0.014 A 
ATOM      4  C   UNL     1       2.543  -3.886   1.389  0.00  0.00    +0.023 A 
ATOM      5  C   UNL     1       1.805  -3.439   2.435  0.00  0.00    +0.055 A 
ATOM      6  S   UNL     1       0.615  -2.385   1.624  0.00  0.00    -0.084 S 
ATOM      7 BR   UNL     1       1.992  -3.827   4.276  0.00  0.00    -0.043 Br
ENDBRANCH   1   2
BRANCH   1   8
ATOM      8  N   UNL     1      -0.769  -2.425  -1.496  0.00  0.00    -0.264 N 
ATOM      9  C   UNL     1      -1.672  -2.590  -0.506  0.00  0.00    +0.124 A 
ATOM     10  C   UNL     1      -2.843  -2.961  -1.074  0.00  0.00    +0.055 A 
ATOM     11  C   UNL     1      -2.649  -3.025  -2.458  0.00  0.00    +0.149 A 
ATOM     12  N   UNL     1      -1.407  -2.699  -2.712  0.00  0.00    -0.178 NA
ATOM     13 BR   UNL     1      -4.456  -3.329  -0.159  0.00  0.00    -0.047 Br
ENDBRANCH   1   8
BRANCH   1  14
ATOM     14  C   UNL     1       0.718  -0.497  -1.257  0.00  0.00    -0.045 C 
BRANCH  14  15
ATOM     15  N   UNL     1       2.129  -0.090  -1.209  0.00  0.00    +0.382 N 
ATOM     16  H   UNL     1       2.601  -0.415  -2.039  0.00  0.00    -0.090 HD
ATOM     17  H   UNL     1       2.187   0.916  -1.162  0.00  0.00    -0.090 HD
ATOM     18  H   UNL     1       2.567  -0.491  -0.394  0.00  0.00    -0.090 HD
ENDBRANCH  14  15
BRANCH  14  20
ATOM     19  C   UNL     1      -0.019   1.526   0.010  0.00  0.00    +0.002 C 
ATOM     20  C   UNL     1       0.002  -0.004   0.002  0.00  0.00    -0.017 C 
ENDBRANCH  14  20
ENDBRANCH   1  14
TORSDOF 5
