REMARK  Name = ZINC02532013
REMARK  8 active torsions:
REMARK  status: ('A' for Active; 'I' for Inactive)
REMARK    1  A    between atoms: C_3  and  C_8
REMARK    2  A    between atoms: C_8  and  O_10
REMARK    3  A    between atoms: O_10  and  C_11
REMARK    4  A    between atoms: C_14  and  C_17
REMARK    5  A    between atoms: N_18  and  N_19
REMARK    6  A    between atoms: C_20  and  C_22
REMARK    7  A    between atoms: C_22  and  N_23
REMARK    8  A    between atoms: C_24  and  C_26
REMARK                            x       y       z     vdW  Elec       q    Type
REMARK                         _______ _______ _______ _____ _____    ______ ____
ROOT
ATOM      1  C   UNL     1       3.138   5.132  -0.029  0.00  0.00    +0.138 C 
ATOM      2  N   UNL     1       2.903   3.858   0.049  0.00  0.00    -0.188 NA
ENDROOT
BRANCH   1   6
ATOM      3  C   UNL     1       7.136   6.558  -0.037  0.00  0.00    +0.132 A 
ATOM      4  C   UNL     1       6.080   7.457  -0.118  0.00  0.00    +0.047 A 
ATOM      5  C   UNL     1       4.781   6.999  -0.116  0.00  0.00    +0.013 A 
ATOM      6  C   UNL     1       4.526   5.627  -0.032  0.00  0.00    -0.005 A 
ATOM      7  C   UNL     1       5.591   4.727   0.055  0.00  0.00    +0.013 A 
ATOM      8  C   UNL     1       6.888   5.194   0.047  0.00  0.00    +0.047 A 
BRANCH   3   9
ATOM      9  O   UNL     1       8.416   7.014  -0.039  0.00  0.00    -0.422 OA
BRANCH   9  10
ATOM     10  C   UNL     1       8.824   7.696   1.050  0.00  0.00    +0.344 C 
ATOM     11  O   UNL     1       8.095   7.788   2.017  0.00  0.00    -0.245 OA
BRANCH  10  14
ATOM     12  C   UNL     1      11.830   9.629   2.202  0.00  0.00    +0.002 A 
ATOM     13  C   UNL     1      10.583   9.038   2.192  0.00  0.00    +0.015 A 
ATOM     14  C   UNL     1      10.157   8.331   1.066  0.00  0.00    +0.061 A 
ATOM     15  C   UNL     1      11.000   8.222  -0.042  0.00  0.00    +0.035 A 
ATOM     16  C   UNL     1      12.243   8.822  -0.021  0.00  0.00    +0.042 A 
ATOM     17  C   UNL     1      12.658   9.522   1.099  0.00  0.00    +0.020 A 
ATOM     18 CL   UNL     1      13.290   8.694  -1.400  0.00  0.00    -0.084 Cl
ENDBRANCH  10  14
ENDBRANCH   9  10
ENDBRANCH   3   9
ENDBRANCH   1   6
BRANCH   2  19
ATOM     19  N   UNL     1       1.583   3.388   0.052  0.00  0.00    -0.206 N 
ATOM     20  C   UNL     1       1.340   2.065   0.133  0.00  0.00    +0.249 C 
ATOM     21  O   UNL     1       2.263   1.281   0.204  0.00  0.00    -0.272 OA
ATOM     22  H   UNL     1       0.845   4.014  -0.004  0.00  0.00    +0.177 HD
BRANCH  20  23
ATOM     23  C   UNL     1      -0.080   1.558   0.137  0.00  0.00    +0.202 C 
BRANCH  23  24
ATOM     24  N   UNL     1      -0.077   0.097   0.232  0.00  0.00    -0.303 N 
ATOM     25  C   UNL     1      -1.242  -0.580   0.252  0.00  0.00    +0.244 C 
ATOM     26  O   UNL     1      -2.296   0.023   0.190  0.00  0.00    -0.270 OA
ATOM     27  H   UNL     1       0.764  -0.385   0.281  0.00  0.00    +0.150 HD
BRANCH  25  28
ATOM     28  C   UNL     1      -1.239  -2.055   0.348  0.00  0.00    +0.038 A 
ATOM     29  C   UNL     1      -0.031  -2.751   0.413  0.00  0.00    +0.013 A 
ATOM     30  C   UNL     1      -0.034  -4.127   0.509  0.00  0.00    +0.002 A 
ATOM     31  C   UNL     1      -1.232  -4.819   0.529  0.00  0.00    +0.015 A 
ATOM     32  C   UNL     1      -2.434  -4.136   0.459  0.00  0.00    +0.019 A 
ATOM     33  C   UNL     1      -2.444  -2.758   0.369  0.00  0.00    +0.028 A 
ATOM     34 BR   UNL     1      -4.066  -5.092   0.486  0.00  0.00    -0.050 Br
ENDBRANCH  25  28
ENDBRANCH  23  24
ENDBRANCH  20  23
ENDBRANCH   2  19
TORSDOF 8
