REMARK  Name = ZINC17122833
REMARK  19 active torsions:
REMARK  status: ('A' for Active; 'I' for Inactive)
REMARK    1  A    between atoms: C_1  and  C_2
REMARK    2  A    between atoms: C_6  and  C_43
REMARK    3  A    between atoms: C_8  and  O_11
REMARK    4  A    between atoms: O_11  and  P_12
REMARK    5  A    between atoms: P_12  and  C_14
REMARK    6  A    between atoms: P_12  and  O_29
REMARK    7  A    between atoms: C_14  and  C_16
REMARK    8  A    between atoms: C_14  and  C_20
REMARK    9  A    between atoms: C_16  and  N_17
REMARK   10  A    between atoms: C_23  and  N_26
REMARK   11  A    between atoms: N_26  and  C_27
REMARK   12  A    between atoms: N_26  and  C_28
REMARK   13  A    between atoms: O_29  and  C_30
REMARK   14  A    between atoms: C_33  and  C_42
REMARK   15  A    between atoms: C_37  and  C_39
REMARK   16  A    between atoms: C_39  and  C_40
REMARK   17  A    between atoms: C_39  and  C_41
REMARK   18  A    between atoms: C_43  and  C_44
REMARK   19  A    between atoms: C_43  and  C_45
REMARK                            x       y       z     vdW  Elec       q    Type
REMARK                         _______ _______ _______ _____ _____    ______ ____
ROOT
ATOM      1  P   UNL     1       3.850   1.483  -2.028  0.00  0.00    +0.343 P 
ATOM      2  O   UNL     1       3.847   2.832  -1.417  0.00  0.00    -0.258 OA
ENDROOT
BRANCH   1   3
ATOM      3  O   UNL     1       5.283   1.205  -2.707  0.00  0.00    -0.304 OA
BRANCH   3   9
ATOM      4  C   UNL     1       5.234  -2.838  -3.957  0.00  0.00    +0.007 C 
ATOM      5  C   UNL     1       4.569  -1.793  -4.855  0.00  0.00    -0.012 C 
ATOM      6  C   UNL     1       5.511  -1.436  -6.006  0.00  0.00    +0.004 C 
ATOM      7  C   UNL     1       6.814  -0.868  -5.441  0.00  0.00    +0.006 C 
ATOM      8  C   UNL     1       6.510   0.389  -4.623  0.00  0.00    +0.021 C 
ATOM      9  C   UNL     1       5.567   0.032  -3.471  0.00  0.00    +0.132 C 
ATOM     10  C   UNL     1       4.264  -0.537  -4.037  0.00  0.00    +0.035 C 
BRANCH   8  11
ATOM     11  C   UNL     1       7.813   0.957  -4.058  0.00  0.00    -0.012 C 
ATOM     12  C   UNL     1       8.501  -0.104  -3.197  0.00  0.00    +0.007 C 
ATOM     13  C   UNL     1       8.737   1.358  -5.210  0.00  0.00    +0.007 C 
ENDBRANCH   8  11
ENDBRANCH   3   9
ENDBRANCH   1   3
BRANCH   1  14
ATOM     14  C   UNL     1       3.535   0.232  -0.740  0.00  0.00    +0.159 C 
BRANCH  14  15
ATOM     15  C   UNL     1       2.144   0.417  -0.190  0.00  0.00    -0.031 A 
ATOM     16  C   UNL     1       1.255  -0.642  -0.193  0.00  0.00    +0.006 A 
ATOM     17  C   UNL     1      -0.022  -0.475   0.305  0.00  0.00    +0.023 A 
ATOM     18  C   UNL     1      -0.410   0.755   0.820  0.00  0.00    +0.029 A 
ATOM     19  C   UNL     1       0.486   1.817   0.822  0.00  0.00    +0.023 A 
ATOM     20  C   UNL     1       1.760   1.645   0.317  0.00  0.00    +0.006 A 
BRANCH  18  21
ATOM     21  N   UNL     1      -1.699   0.926   1.329  0.00  0.00    -0.336 N 
ATOM     22  C   UNL     1      -2.108   2.226   1.867  0.00  0.00    +0.129 C 
ATOM     23  C   UNL     1      -2.642  -0.194   1.326  0.00  0.00    +0.129 C 
ENDBRANCH  18  21
ENDBRANCH  14  15
BRANCH  14  24
ATOM     24  C   UNL     1       4.555   0.394   0.389  0.00  0.00    +0.231 C 
BRANCH  24  25
ATOM     25  N   UNL     1       5.893   0.068  -0.111  0.00  0.00    +0.024 N 
ATOM     26  O   UNL     1       6.824   0.824   0.101  0.00  0.00    -0.132 OA
ATOM     27  O   UNL     1       6.074  -0.960  -0.740  0.00  0.00    -0.132 OA
ENDBRANCH  24  25
ENDBRANCH  14  24
ENDBRANCH   1  14
BRANCH   1  28
ATOM     28  O   UNL     1       2.699   1.400  -3.150  0.00  0.00    -0.304 OA
BRANCH  28  29
ATOM     29  C   UNL     1       1.421   2.023  -3.002  0.00  0.00    +0.132 C 
ATOM     30  C   UNL     1       0.328   0.953  -3.016  0.00  0.00    +0.035 C 
ATOM     31  C   UNL     1       0.374   0.192  -4.343  0.00  0.00    -0.012 C 
ATOM     32  C   UNL     1       0.146   1.169  -5.498  0.00  0.00    +0.004 C 
ATOM     33  C   UNL     1       1.240   2.239  -5.485  0.00  0.00    +0.006 C 
ATOM     34  C   UNL     1       1.194   2.999  -4.158  0.00  0.00    +0.021 C 
ATOM     35  C   UNL     1      -0.719  -0.878  -4.356  0.00  0.00    +0.007 C 
BRANCH  34  36
ATOM     36  C   UNL     1       2.287   4.069  -4.144  0.00  0.00    -0.012 C 
ATOM     37  C   UNL     1       2.150   4.954  -5.385  0.00  0.00    +0.007 C 
ATOM     38  C   UNL     1       2.145   4.928  -2.886  0.00  0.00    +0.007 C 
ENDBRANCH  34  36
ENDBRANCH  28  29
ENDBRANCH   1  28
TORSDOF 11
