REMARK  Name = ZINC00925227
REMARK  8 active torsions:
REMARK  status: ('A' for Active; 'I' for Inactive)
REMARK    1  A    between atoms: C_1  and  C_2
REMARK    2  A    between atoms: C_5  and  N_9
REMARK    3  A    between atoms: C_6  and  C_8
REMARK    4  A    between atoms: N_9  and  C_10
REMARK    5  A    between atoms: C_10  and  C_11
REMARK    6  A    between atoms: C_14  and  S_16
REMARK    7  A    between atoms: S_16  and  C_17
REMARK    8  A    between atoms: C_17  and  C_18
REMARK                            x       y       z     vdW  Elec       q    Type
REMARK                         _______ _______ _______ _____ _____    ______ ____
ROOT
ATOM      1  S   UNL     1       1.709  -9.779  -0.016  0.00  0.00    -0.056 S 
ENDROOT
BRANCH   1   5
ATOM      2  C   UNL     1       0.052  -6.314  -0.541  0.00  0.00    +0.235 A 
ATOM      3  N   UNL     1      -0.963  -7.115  -0.677  0.00  0.00    -0.110 NA
ATOM      4  N   UNL     1      -0.574  -8.332  -0.528  0.00  0.00    -0.101 NA
ATOM      5  C   UNL     1       0.716  -8.350  -0.290  0.00  0.00    +0.278 A 
ATOM      6  O   UNL     1       1.140  -7.072  -0.299  0.00  0.00    -0.414 OA
BRANCH   2   7
ATOM      7  C   UNL     1       0.020  -4.811  -0.643  0.00  0.00    +0.199 C 
BRANCH   7   8
ATOM      8  N   UNL     1      -0.233  -4.237   0.682  0.00  0.00    -0.335 N 
ATOM      9  H   UNL     1      -0.348  -4.820   1.448  0.00  0.00    +0.147 HD
BRANCH   8  14
ATOM     10  C   UNL     1      -0.536   1.389   1.324  0.00  0.00    +0.044 C 
ATOM     11  C   UNL     1      -0.456  -0.106   1.153  0.00  0.00    -0.050 A 
ATOM     12  C   UNL     1      -0.217  -0.646  -0.098  0.00  0.00    +0.005 A 
ATOM     13  C   UNL     1      -0.142  -2.015  -0.258  0.00  0.00    +0.023 A 
ATOM     14  C   UNL     1      -0.307  -2.851   0.840  0.00  0.00    +0.030 A 
ATOM     15  C   UNL     1      -0.547  -2.306   2.095  0.00  0.00    -0.029 A 
ATOM     16  C   UNL     1      -0.615  -0.935   2.248  0.00  0.00    +0.008 A 
ATOM     17  C   UNL     1      -0.727  -3.209   3.288  0.00  0.00    +0.045 C 
ENDBRANCH   8  14
ENDBRANCH   7   8
ENDBRANCH   2   7
ENDBRANCH   1   5
BRANCH   1  18
ATOM     18  C   UNL     1       0.538 -11.158  -0.145  0.00  0.00    +0.175 C 
BRANCH  18  19
ATOM     19  C   UNL     1       1.268 -12.459   0.072  0.00  0.00    +0.235 C 
ATOM     20  O   UNL     1       2.477 -12.499  -0.025  0.00  0.00    -0.274 OA
ATOM     21  N   UNL     1       0.578 -13.577   0.374  0.00  0.00    -0.237 N 
ATOM     22  C   UNL     1       1.281 -14.744   0.699  0.00  0.00    +0.055 A 
ATOM     23  C   UNL     1       2.457 -15.059   0.036  0.00  0.00    +0.025 A 
ATOM     24  C   UNL     1       3.145 -16.215   0.360  0.00  0.00    +0.002 A 
ATOM     25  C   UNL     1       2.669 -17.061   1.344  0.00  0.00    +0.001 A 
ATOM     26  C   UNL     1       1.496 -16.756   2.013  0.00  0.00    +0.017 A 
ATOM     27  C   UNL     1       0.804 -15.602   1.692  0.00  0.00    +0.035 A 
ATOM     28  S   UNL     1      -0.695 -15.186   2.527  0.00  0.00    -0.086 S 
ATOM     29  C   UNL     1      -1.560 -14.248   1.306  0.00  0.00    +0.035 A 
ATOM     30  C   UNL     1      -0.822 -13.537   0.361  0.00  0.00    +0.055 A 
ATOM     31  C   UNL     1      -1.492 -12.794  -0.598  0.00  0.00    +0.025 A 
ATOM     32  C   UNL     1      -2.874 -12.761  -0.607  0.00  0.00    +0.002 A 
ATOM     33  C   UNL     1      -3.597 -13.467   0.337  0.00  0.00    +0.001 A 
ATOM     34  C   UNL     1      -2.942 -14.215   1.288  0.00  0.00    +0.017 A 
ENDBRANCH  18  19
ENDBRANCH   1  18
TORSDOF 6
