REMARK  Name = ZINC38742211
REMARK  4 active torsions:
REMARK  status: ('A' for Active; 'I' for Inactive)
REMARK    1  A    between atoms: C_1  and  C_2
REMARK    2  A    between atoms: C_4  and  C_8
REMARK    3  A    between atoms: C_16  and  C_18
REMARK    4  A    between atoms: C_19  and  C_20
REMARK                            x       y       z     vdW  Elec       q    Type
REMARK                         _______ _______ _______ _____ _____    ______ ____
ROOT
ATOM      1  C   UNL     1      -0.976  -2.937  -1.266  0.00  0.00    +0.206 C 
ATOM      2  N   UNL     1      -0.342  -2.341  -2.467  0.00  0.00    -0.231 NA
ATOM      3  N   UNL     1       0.385  -3.430  -3.141  0.00  0.00    -0.224 NA
ATOM      4  C   UNL     1      -0.327  -4.639  -2.681  0.00  0.00    +0.240 C 
ATOM      5  N   UNL     1      -0.506  -4.340  -1.222  0.00  0.00    -0.206 N 
ATOM      6  N   UNL     1      -0.118  -5.371  -0.394  0.00  0.00    -0.174 NA
ATOM      7  C   UNL     1       0.625  -6.364  -0.801  0.00  0.00    +0.118 C 
ATOM      8  S   UNL     1       0.792  -6.085  -2.591  0.00  0.00    -0.063 S 
ATOM      9  H   UNL     1      -1.035  -1.936  -3.078  0.00  0.00    +0.143 HD
ATOM     10  H   UNL     1       1.353  -3.450  -2.856  0.00  0.00    +0.144 HD
ENDROOT
BRANCH   1  14
ATOM     11  C   UNL     1      -0.018   1.503   0.010  0.00  0.00    +0.067 C 
ATOM     12  C   UNL     1       0.002  -0.004   0.002  0.00  0.00    +0.058 C 
ATOM     13  C   UNL     1      -1.086  -0.777   0.003  0.00  0.00    +0.029 C 
ATOM     14  C   UNL     1      -0.531  -2.190  -0.007  0.00  0.00    +0.190 C 
ATOM     15  N   UNL     1       0.926  -1.973  -0.013  0.00  0.00    -0.177 NA
ATOM     16  N   UNL     1       1.125  -0.756  -0.013  0.00  0.00    -0.159 NA
ENDBRANCH   1  14
BRANCH   7  17
ATOM     17  C   UNL     1       1.189  -7.457  -0.004  0.00  0.00    +0.037 C 
ATOM     18  C   UNL     1       0.955  -7.514   1.322  0.00  0.00    +0.012 C 
BRANCH  18  19
ATOM     19  C   UNL     1       1.521  -8.612   2.123  0.00  0.00    -0.007 A 
ATOM     20  C   UNL     1       2.307  -9.595   1.512  0.00  0.00    +0.011 A 
ATOM     21  C   UNL     1       2.834 -10.620   2.268  0.00  0.00    +0.020 A 
ATOM     22  C   UNL     1       2.587 -10.679   3.630  0.00  0.00    +0.042 A 
ATOM     23  C   UNL     1       1.809  -9.710   4.243  0.00  0.00    +0.040 A 
ATOM     24  C   UNL     1       1.281  -8.674   3.500  0.00  0.00    +0.049 A 
ATOM     25 CL   UNL     1       0.313  -7.456   4.270  0.00  0.00    -0.083 Cl
ATOM     26 CL   UNL     1       3.254 -11.975   4.574  0.00  0.00    -0.083 Cl
ENDBRANCH  18  19
ENDBRANCH   7  17
TORSDOF 3
