REMARK  Name = ZINC02073732
REMARK  6 active torsions:
REMARK  status: ('A' for Active; 'I' for Inactive)
REMARK    1  A    between atoms: C_1  and  C_2
REMARK    2  A    between atoms: C_3  and  C_14
REMARK    3  A    between atoms: N_5  and  C_7
REMARK    4  A    between atoms: C_26  and  S_29
REMARK    5  A    between atoms: S_29  and  C_30
REMARK    6  A    between atoms: C_30  and  C_31
REMARK                            x       y       z     vdW  Elec       q    Type
REMARK                         _______ _______ _______ _____ _____    ______ ____
ROOT
ATOM      1  C   UNL     1      -0.562   5.915  -1.207  0.00  0.00    +0.299 C 
ATOM      2  N   UNL     1      -0.067   5.245  -0.008  0.00  0.00    -0.305 N 
ATOM      3  C   UNL     1      -0.026   3.848   0.013  0.00  0.00    +0.039 A 
ATOM      4  C   UNL     1       1.175   3.163   0.000  0.00  0.00    +0.024 A 
ATOM      5  C   UNL     1       1.179   1.780   0.000  0.00  0.00    +0.002 A 
ATOM      6  C   UNL     1      -0.013   1.076   0.008  0.00  0.00    +0.001 A 
ATOM      7  C   UNL     1      -1.220   1.746   0.017  0.00  0.00    +0.012 A 
ATOM      8  C   UNL     1      -1.239   3.135   0.032  0.00  0.00    +0.028 A 
ATOM      9  C   UNL     1      -2.508   3.892   0.071  0.00  0.00    +0.156 A 
ATOM     10  C   UNL     1      -2.705   4.971  -0.820  0.00  0.00    +0.248 A 
ATOM     11  N   UNL     1      -3.841   5.644  -0.761  0.00  0.00    -0.184 NA
ATOM     12  C   UNL     1      -4.764   5.286   0.128  0.00  0.00    +0.213 A 
ATOM     13  N   UNL     1      -4.561   4.266   0.952  0.00  0.00    -0.122 NA
ATOM     14  N   UNL     1      -3.468   3.585   0.930  0.00  0.00    -0.141 NA
ATOM     15  O   UNL     1      -1.738   5.293  -1.712  0.00  0.00    -0.449 OA
ATOM     16  H   UNL     1       0.227   5.760   0.759  0.00  0.00    +0.150 HD
ENDROOT
BRANCH   1  19
ATOM     17  C   UNL     1      -1.047   5.851  -4.336  0.00  0.00    +0.068 C 
ATOM     18  C   UNL     1       0.295   5.848  -3.650  0.00  0.00    +0.070 A 
ATOM     19  C   UNL     1       0.508   5.877  -2.268  0.00  0.00    +0.071 A 
ATOM     20  C   UNL     1       1.845   5.870  -2.051  0.00  0.00    +0.141 A 
ATOM     21  N   UNL     1       2.457   5.828  -3.263  0.00  0.00    -0.221 N 
ATOM     22  N   UNL     1       1.460   5.819  -4.246  0.00  0.00    -0.170 NA
ATOM     23 CL   UNL     1       2.633   5.904  -0.505  0.00  0.00    -0.061 Cl
BRANCH  21  24
ATOM     24  C   UNL     1       3.840   5.804  -3.489  0.00  0.00    +0.067 A 
ATOM     25  C   UNL     1       4.695   6.505  -2.649  0.00  0.00    +0.028 A 
ATOM     26  C   UNL     1       6.058   6.475  -2.871  0.00  0.00    +0.002 A 
ATOM     27  C   UNL     1       6.570   5.757  -3.935  0.00  0.00    +0.000 A 
ATOM     28  C   UNL     1       5.721   5.062  -4.777  0.00  0.00    +0.002 A 
ATOM     29  C   UNL     1       4.358   5.083  -4.556  0.00  0.00    +0.028 A 
ENDBRANCH  21  24
ENDBRANCH   1  19
BRANCH  12  30
ATOM     30  S   UNL     1      -6.279   6.181   0.211  0.00  0.00    -0.080 S 
BRANCH  30  31
ATOM     31  C   UNL     1      -7.104   5.278   1.546  0.00  0.00    +0.112 C 
BRANCH  31  32
ATOM     32  C   UNL     1      -8.459   5.885   1.801  0.00  0.00    -0.037 A 
ATOM     33  C   UNL     1      -8.598   6.905   2.724  0.00  0.00    +0.004 A 
ATOM     34  C   UNL     1      -9.841   7.465   2.953  0.00  0.00    +0.000 A 
ATOM     35  C   UNL     1     -10.947   6.998   2.268  0.00  0.00    +0.000 A 
ATOM     36  C   UNL     1     -10.809   5.975   1.348  0.00  0.00    +0.000 A 
ATOM     37  C   UNL     1      -9.565   5.419   1.115  0.00  0.00    +0.004 A 
ENDBRANCH  31  32
ENDBRANCH  30  31
ENDBRANCH  12  30
TORSDOF 5
