REMARK  Name = ZINC41584440
REMARK  17 active torsions:
REMARK  status: ('A' for Active; 'I' for Inactive)
REMARK    1  A    between atoms: C_1  and  C_2
REMARK    2  A    between atoms: C_2  and  C_3
REMARK    3  A    between atoms: C_3  and  N_4
REMARK    4  A    between atoms: N_4  and  C_5
REMARK    5  A    between atoms: N_4  and  C_8
REMARK    6  A    between atoms: C_5  and  C_6
REMARK    7  A    between atoms: C_6  and  C_7
REMARK    8  A    between atoms: C_8  and  C_9
REMARK    9  A    between atoms: C_10  and  O_33
REMARK   10  A    between atoms: C_12  and  C_32
REMARK   11  A    between atoms: C_17  and  C_18
REMARK   12  A    between atoms: C_20  and  O_28
REMARK   13  A    between atoms: C_21  and  O_26
REMARK   14  A    between atoms: C_23  and  O_24
REMARK   15  A    between atoms: O_24  and  C_25
REMARK   16  A    between atoms: O_26  and  C_27
REMARK   17  A    between atoms: O_28  and  C_29
REMARK                            x       y       z     vdW  Elec       q    Type
REMARK                         _______ _______ _______ _____ _____    ______ ____
ROOT
ATOM      1  C   UNL     1       0.082  -2.466   4.125  0.00  0.00    +0.020 A 
ATOM      2  C   UNL     1       0.463  -1.382   4.900  0.00  0.00    +0.122 A 
ATOM      3  C   UNL     1      -0.326  -0.962   5.967  0.00  0.00    +0.050 A 
ATOM      4  C   UNL     1      -1.488  -1.618   6.261  0.00  0.00    -0.033 A 
ATOM      5  C   UNL     1      -1.885  -2.710   5.490  0.00  0.00    +0.071 A 
ATOM      6  C   UNL     1      -1.100  -3.140   4.407  0.00  0.00    +0.145 A 
ATOM      7  O   UNL     1      -1.687  -4.202   3.814  0.00  0.00    -0.451 OA
ATOM      8  C   UNL     1      -2.849  -4.538   4.421  0.00  0.00    +0.176 C 
ATOM      9  C   UNL     1      -3.675  -5.558   4.064  0.00  0.00    +0.062 C 
ATOM     10  C   UNL     1      -3.050  -3.612   5.541  0.00  0.00    +0.232 C 
ATOM     11  O   UNL     1      -3.980  -3.585   6.330  0.00  0.00    -0.283 OA
ATOM     12  C   UNL     1      -2.341  -1.161   7.418  0.00  0.00    +0.045 C 
ENDROOT
BRANCH   9  13
ATOM     13  C   UNL     1      -4.980  -5.705   4.714  0.00  0.00    +0.024 A 
ATOM     14  C   UNL     1      -5.771  -4.576   4.969  0.00  0.00    +0.061 A 
ATOM     15  C   UNL     1      -6.998  -4.721   5.581  0.00  0.00    +0.162 A 
ATOM     16  C   UNL     1      -7.454  -5.989   5.947  0.00  0.00    +0.165 A 
ATOM     17  C   UNL     1      -6.678  -7.110   5.699  0.00  0.00    +0.095 A 
ATOM     18  C   UNL     1      -5.447  -6.980   5.080  0.00  0.00    +0.131 A 
BRANCH  18  19
ATOM     19  O   UNL     1      -4.690  -8.079   4.832  0.00  0.00    -0.494 OA
ATOM     20  C   UNL     1      -5.229  -9.341   5.231  0.00  0.00    +0.277 C 
ENDBRANCH  18  19
BRANCH  16  21
ATOM     21  O   UNL     1      -8.664  -6.124   6.551  0.00  0.00    -0.491 OA
ATOM     22  C   UNL     1      -9.070  -7.449   6.900  0.00  0.00    +0.277 C 
ENDBRANCH  16  21
BRANCH  15  23
ATOM     23  O   UNL     1      -7.767  -3.626   5.828  0.00  0.00    -0.491 OA
ATOM     24  C   UNL     1      -7.239  -2.359   5.428  0.00  0.00    +0.277 C 
ENDBRANCH  15  23
ENDBRANCH   9  13
BRANCH   2  25
ATOM     25  O   UNL     1       1.616  -0.725   4.616  0.00  0.00    -0.506 OA
ATOM     26  H   UNL     1       1.508   0.007   3.994  0.00  0.00    +0.292 HD
ENDBRANCH   2  25
BRANCH   1  27
ATOM     27  C   UNL     1       0.945  -2.909   2.973  0.00  0.00    -0.036 C 
BRANCH  27  28
ATOM     28  N   UNL     1       0.537  -2.199   1.753  0.00  0.00    +0.383 N 
ATOM     29  H   UNL     1      -0.449  -2.342   1.595  0.00  0.00    -0.081 HD
BRANCH  28  30
ATOM     30  C   UNL     1       0.805  -0.763   1.909  0.00  0.00    -0.079 C 
BRANCH  30  32
ATOM     31  C   UNL     1       0.439   1.495   0.905  0.00  0.00    +0.002 C 
ATOM     32  C   UNL     1       0.284  -0.011   0.683  0.00  0.00    -0.022 C 
ENDBRANCH  30  32
ENDBRANCH  28  30
BRANCH  28  33
ATOM     33  C   UNL     1       1.297  -2.717   0.607  0.00  0.00    -0.079 C 
BRANCH  33  34
ATOM     34  C   UNL     1       0.910  -4.176   0.357  0.00  0.00    -0.022 C 
ATOM     35  C   UNL     1       1.598  -4.675  -0.916  0.00  0.00    +0.002 C 
ENDBRANCH  33  34
ENDBRANCH  28  33
ENDBRANCH  27  28
ENDBRANCH   1  27
TORSDOF 11
