REMARK  Name = ZINC08749323
REMARK  9 active torsions:
REMARK  status: ('A' for Active; 'I' for Inactive)
REMARK    1  A    between atoms: C_1  and  C_2
REMARK    2  A    between atoms: C_5  and  C_7
REMARK    3  A    between atoms: C_7  and  C_9
REMARK    4  A    between atoms: C_7  and  N_61
REMARK    5  A    between atoms: C_9  and  N_10
REMARK    6  A    between atoms: C_11  and  C_13
REMARK    7  A    between atoms: C_16  and  C_29
REMARK    8  A    between atoms: N_18  and  C_21
REMARK    9  A    between atoms: C_21  and  C_22
REMARK                            x       y       z     vdW  Elec       q    Type
REMARK                         _______ _______ _______ _____ _____    ______ ____
ROOT
ATOM      1  N   UNL     1      -1.021   3.585   0.097  0.00  0.00    -0.312 N 
ATOM      2  C   UNL     1      -1.225   2.254   0.144  0.00  0.00    +0.251 C 
ATOM      3  O   UNL     1      -2.358   1.813   0.189  0.00  0.00    -0.270 OA
ATOM      4  H   UNL     1      -0.118   3.937   0.062  0.00  0.00    +0.149 HD
ENDROOT
BRANCH   2   5
ATOM      5  C   UNL     1      -0.081   1.337   0.140  0.00  0.00    +0.076 A 
ATOM      6  C   UNL     1      -0.081  -0.025   0.182  0.00  0.00    +0.032 A 
ATOM      7  C   UNL     1       1.138  -0.721   0.164  0.00  0.00    +0.031 A 
ATOM      8  C   UNL     1       1.616  -2.072   0.191  0.00  0.00    +0.068 A 
ATOM      9  N   UNL     1       2.914  -2.063   0.149  0.00  0.00    -0.175 NA
ATOM     10  N   UNL     1       3.370  -0.740   0.094  0.00  0.00    -0.252 N 
ATOM     11  C   UNL     1       2.295   0.070   0.103  0.00  0.00    +0.107 A 
ATOM     12  S   UNL     1       1.660   1.726   0.073  0.00  0.00    -0.064 S 
ATOM     13  C   UNL     1       0.752  -3.304   0.256  0.00  0.00    +0.068 C 
BRANCH  10  14
ATOM     14  C   UNL     1       4.770  -0.313   0.035  0.00  0.00    +0.180 C 
BRANCH  14  15
ATOM     15  C   UNL     1       5.204  -0.211  -1.404  0.00  0.00    -0.026 A 
ATOM     16  C   UNL     1       5.759  -1.307  -2.038  0.00  0.00    +0.008 A 
ATOM     17  C   UNL     1       6.153  -1.216  -3.359  0.00  0.00    +0.038 A 
ATOM     18  C   UNL     1       6.002  -0.023  -4.045  0.00  0.00    +0.123 A 
ATOM     19  C   UNL     1       5.451   1.076  -3.408  0.00  0.00    +0.038 A 
ATOM     20  C   UNL     1       5.053   0.981  -2.088  0.00  0.00    +0.008 A 
ATOM     21  F   UNL     1       6.391   0.069  -5.336  0.00  0.00    -0.205 F 
ENDBRANCH  14  15
ENDBRANCH  10  14
ENDBRANCH   2   5
BRANCH   1  22
ATOM     22  C   UNL     1      -2.164   4.502   0.101  0.00  0.00    +0.097 C 
BRANCH  22  23
ATOM     23  C   UNL     1      -1.661   5.945   0.043  0.00  0.00    +0.017 C 
BRANCH  23  29
ATOM     24  C   UNL     1      -1.334   5.860   2.441  0.00  0.00    -0.049 C 
ATOM     25  C   UNL     1      -0.302   6.061   3.554  0.00  0.00    +0.141 C 
ATOM     26  O   UNL     1       0.190   7.404   3.504  0.00  0.00    -0.383 OA
ATOM     27  C   UNL     1       0.796   7.749   2.256  0.00  0.00    +0.141 C 
ATOM     28  C   UNL     1      -0.225   7.565   1.130  0.00  0.00    -0.049 C 
ATOM     29  N   UNL     1      -0.697   6.164   1.143  0.00  0.00    +0.390 N 
ATOM     30  H   UNL     1       0.107   5.539   1.011  0.00  0.00    -0.081 HD
ENDBRANCH  23  29
BRANCH  23  35
ATOM     31  C   UNL     1      -5.491   8.555   2.033  0.00  0.00    +0.086 C 
ATOM     32  C   UNL     1      -4.494   8.025   1.035  0.00  0.00    +0.102 A 
ATOM     33  C   UNL     1      -4.421   8.368  -0.263  0.00  0.00    +0.044 A 
ATOM     34  C   UNL     1      -3.344   7.641  -0.820  0.00  0.00    +0.043 A 
ATOM     35  C   UNL     1      -2.829   6.890   0.170  0.00  0.00    +0.093 A 
ATOM     36  O   UNL     1      -3.527   7.129   1.292  0.00  0.00    -0.466 OA
ENDBRANCH  23  35
ENDBRANCH  22  23
ENDBRANCH   1  22
TORSDOF 7
