REMARK  Name = ZINC20885789
REMARK  10 active torsions:
REMARK  status: ('A' for Active; 'I' for Inactive)
REMARK    1  A    between atoms: C_1  and  C_2
REMARK    2  A    between atoms: C_2  and  O_3
REMARK    3  A    between atoms: O_3  and  C_4
REMARK    4  A    between atoms: C_6  and  C_12
REMARK    5  A    between atoms: C_9  and  O_10
REMARK    6  A    between atoms: C_17  and  C_22
REMARK    7  A    between atoms: C_25  and  O_30
REMARK    8  A    between atoms: C_26  and  O_28
REMARK    9  A    between atoms: O_28  and  C_29
REMARK   10  A    between atoms: O_30  and  C_31
REMARK                            x       y       z     vdW  Elec       q    Type
REMARK                         _______ _______ _______ _____ _____    ______ ____
ROOT
ATOM      1  C   UNL     1       2.281   0.450   3.587  0.00  0.00    +0.136 C 
ATOM      2  C   UNL     1       1.369   0.902   2.472  0.00  0.00    +0.036 C 
ATOM      3  C   UNL     1       0.038   1.071   2.561  0.00  0.00    +0.017 C 
ATOM      4  C   UNL     1      -0.762   1.545   1.360  0.00  0.00    +0.059 C 
ATOM      5  C   UNL     1      -0.121   1.035   0.071  0.00  0.00    +0.032 C 
ATOM      6  C   UNL     1       1.310   1.583   0.012  0.00  0.00    +0.088 C 
ATOM      7  C   UNL     1       2.037   1.150   1.250  0.00  0.00    +0.163 C 
ATOM      8  O   UNL     1       3.243   1.006   1.202  0.00  0.00    -0.292 OA
ATOM      9  N   UNL     1      -0.692   0.863   3.685  0.00  0.00    -0.316 N 
ATOM     10  C   UNL     1      -0.584  -0.250   4.512  0.00  0.00    +0.052 A 
ATOM     11  C   UNL     1      -1.637  -1.123   4.718  0.00  0.00    +0.025 A 
ATOM     12  C   UNL     1      -1.500  -2.144   5.643  0.00  0.00    +0.002 A 
ATOM     13  C   UNL     1      -0.321  -2.289   6.353  0.00  0.00    +0.002 A 
ATOM     14  C   UNL     1       0.741  -1.430   6.130  0.00  0.00    +0.025 A 
ATOM     15  C   UNL     1       0.613  -0.418   5.192  0.00  0.00    +0.049 A 
ATOM     16  N   UNL     1       1.670   0.442   4.899  0.00  0.00    -0.331 N 
ATOM     17  H   UNL     1      -1.438   1.607   4.002  0.00  0.00    +0.152 HD
ATOM     18  H   UNL     1       2.038   1.121   5.682  0.00  0.00    +0.147 HD
ENDROOT
BRANCH   1  21
ATOM     19  C   UNL     1       4.545  -2.466   2.785  0.00  0.00    +0.163 A 
ATOM     20  C   UNL     1       4.104  -1.184   3.070  0.00  0.00    +0.055 A 
ATOM     21  C   UNL     1       2.758  -0.945   3.277  0.00  0.00    -0.018 A 
ATOM     22  C   UNL     1       1.849  -1.985   3.208  0.00  0.00    +0.029 A 
ATOM     23  C   UNL     1       2.282  -3.267   2.919  0.00  0.00    +0.086 A 
ATOM     24  C   UNL     1       3.631  -3.512   2.709  0.00  0.00    +0.177 A 
ATOM     25 CL   UNL     1       1.138  -4.569   2.826  0.00  0.00    -0.080 Cl
BRANCH  24  26
ATOM     26  O   UNL     1       4.059  -4.773   2.430  0.00  0.00    -0.502 OA
ATOM     27  H   UNL     1       3.335  -5.599   2.370  0.00  0.00    +0.292 HD
ENDBRANCH  24  26
BRANCH  19  28
ATOM     28  O   UNL     1       5.868  -2.702   2.581  0.00  0.00    -0.489 OA
BRANCH  28  30
ATOM     29  C   UNL     1       8.186  -2.038   2.417  0.00  0.00    +0.048 C 
ATOM     30  C   UNL     1       6.749  -1.581   2.675  0.00  0.00    +0.226 C 
ENDBRANCH  28  30
ENDBRANCH  19  28
ENDBRANCH   1  21
BRANCH   5  31
ATOM     31  C   UNL     1      -0.904   1.525  -1.120  0.00  0.00    -0.040 A 
ATOM     32  C   UNL     1      -1.064   2.882  -1.329  0.00  0.00    +0.008 A 
ATOM     33  C   UNL     1      -1.782   3.337  -2.419  0.00  0.00    +0.049 A 
ATOM     34  C   UNL     1      -2.343   2.432  -3.306  0.00  0.00    +0.161 A 
ATOM     35  C   UNL     1      -2.181   1.066  -3.095  0.00  0.00    +0.162 A 
ATOM     36  C   UNL     1      -1.457   0.617  -2.003  0.00  0.00    +0.053 A 
BRANCH  35  37
ATOM     37  O   UNL     1      -2.730   0.173  -3.963  0.00  0.00    -0.491 OA
ATOM     38  C   UNL     1      -2.524  -1.213  -3.684  0.00  0.00    +0.277 C 
ENDBRANCH  35  37
BRANCH  34  39
ATOM     39  O   UNL     1      -3.049   2.877  -4.379  0.00  0.00    -0.491 OA
ATOM     40  C   UNL     1      -3.173   4.293  -4.532  0.00  0.00    +0.277 C 
ENDBRANCH  34  39
ENDBRANCH   5  31
TORSDOF 7
