REMARK  Name = ZINC39325175
REMARK  8 active torsions:
REMARK  status: ('A' for Active; 'I' for Inactive)
REMARK    1  A    between atoms: C_1  and  C_2
REMARK    2  A    between atoms: C_9  and  C_14
REMARK    3  A    between atoms: C_14  and  N_15
REMARK    4  A    between atoms: N_15  and  C_16
REMARK    5  A    between atoms: N_15  and  S_24
REMARK    6  A    between atoms: C_16  and  C_17
REMARK    7  A    between atoms: C_17  and  C_18
REMARK    8  A    between atoms: S_24  and  C_27
REMARK                            x       y       z     vdW  Elec       q    Type
REMARK                         _______ _______ _______ _____ _____    ______ ____
ROOT
ATOM      1  N   UNL     1      -1.019  -6.182   2.953  0.00  0.00    -0.175 NA
ENDROOT
BRANCH   1   2
ATOM      2  S   UNL     1      -0.885  -7.459   1.906  0.00  0.00    +0.063 S 
ATOM      3  O   UNL     1      -1.283  -6.980   0.629  0.00  0.00    -0.153 OA
ATOM      4  O   UNL     1       0.390  -8.042   2.138  0.00  0.00    -0.153 OA
BRANCH   2   5
ATOM      5  C   UNL     1      -2.082  -8.657   2.391  0.00  0.00    +0.133 A 
ATOM      6  C   UNL     1      -3.121  -8.944   1.571  0.00  0.00    +0.031 A 
ATOM      7  C   UNL     1      -4.087  -9.887   1.922  0.00  0.00    +0.004 A 
ATOM      8  C   UNL     1      -4.028 -10.557   3.097  0.00  0.00    +0.031 A 
ATOM      9  C   UNL     1      -2.965 -10.308   4.007  0.00  0.00    +0.102 A 
ATOM     10  C   UNL     1      -1.952  -9.326   3.638  0.00  0.00    +0.126 A 
ATOM     11  N   UNL     1      -1.003  -9.178   4.564  0.00  0.00    -0.189 NA
ATOM     12  S   UNL     1      -1.389 -10.197   5.748  0.00  0.00    +0.117 S 
ATOM     13  N   UNL     1      -2.745 -10.866   5.199  0.00  0.00    -0.191 NA
ENDBRANCH   2   5
ENDBRANCH   1   2
BRANCH   1  14
ATOM     14  C   UNL     1      -1.965  -5.100   2.671  0.00  0.00    +0.126 C 
BRANCH  14  23
ATOM     15  C   UNL     1      -4.270   1.038  -0.160  0.00  0.00    +0.044 C 
ATOM     16  C   UNL     1      -3.323  -0.131  -0.070  0.00  0.00    -0.050 A 
ATOM     17  C   UNL     1      -2.565  -0.483  -1.186  0.00  0.00    +0.005 A 
ATOM     18  C   UNL     1      -1.690  -1.523  -1.180  0.00  0.00    +0.024 A 
ATOM     19  C   UNL     1      -1.514  -2.301  -0.021  0.00  0.00    +0.040 A 
ATOM     20  N   UNL     1      -0.653  -3.319  -0.026  0.00  0.00    -0.284 N 
ATOM     21  C   UNL     1      -0.440  -4.089   1.027  0.00  0.00    +0.225 C 
ATOM     22  O   UNL     1       0.359  -5.005   0.963  0.00  0.00    -0.275 OA
ATOM     23  C   UNL     1      -1.193  -3.829   2.313  0.00  0.00    +0.114 C 
ATOM     24  C   UNL     1      -2.173  -2.672   2.324  0.00  0.00    -0.003 C 
ATOM     25  C   UNL     1      -2.303  -1.952   1.174  0.00  0.00    -0.007 A 
ATOM     26  C   UNL     1      -3.222  -0.816   1.099  0.00  0.00    +0.012 A 
ATOM     27  H   UNL     1      -0.161  -3.503  -0.841  0.00  0.00    +0.155 HD
ENDBRANCH  14  23
ENDBRANCH   1  14
BRANCH   1  28
ATOM     28  C   UNL     1      -0.191  -6.136   4.161  0.00  0.00    +0.114 C 
BRANCH  28  29
ATOM     29  C   UNL     1      -1.083  -6.277   5.396  0.00  0.00    +0.052 C 
BRANCH  29  30
ATOM     30  C   UNL     1      -0.237  -6.182   6.640  0.00  0.00    -0.046 A 
ATOM     31  C   UNL     1       0.316  -7.325   7.188  0.00  0.00    +0.003 A 
ATOM     32  C   UNL     1       1.091  -7.238   8.329  0.00  0.00    +0.000 A 
ATOM     33  C   UNL     1       1.315  -6.009   8.921  0.00  0.00    +0.000 A 
ATOM     34  C   UNL     1       0.762  -4.867   8.373  0.00  0.00    +0.000 A 
ATOM     35  C   UNL     1      -0.010  -4.953   7.230  0.00  0.00    +0.003 A 
ENDBRANCH  29  30
ENDBRANCH  28  29
ENDBRANCH   1  28
TORSDOF 7
