REMARK  Name = ZINC40033243
REMARK  6 active torsions:
REMARK  status: ('A' for Active; 'I' for Inactive)
REMARK    1  A    between atoms: C_1  and  C_2
REMARK    2  A    between atoms: C_2  and  C_35
REMARK    3  A    between atoms: N_14  and  C_29
REMARK    4  A    between atoms: N_17  and  N_18
REMARK    5  A    between atoms: C_19  and  C_20
REMARK    6  A    between atoms: C_24  and  N_26
REMARK                            x       y       z     vdW  Elec       q    Type
REMARK                         _______ _______ _______ _____ _____    ______ ____
ROOT
ATOM      1  C   UNL     1      -0.421   0.579  -0.482  0.00  0.00    +0.016 C 
ATOM      2  C   UNL     1      -0.371  -0.889  -0.053  0.00  0.00    +0.001 C 
ATOM      3  C   UNL     1      -1.789  -1.381   0.226  0.00  0.00    +0.047 C 
ATOM      4  C   UNL     1      -2.339  -0.731   1.466  0.00  0.00    -0.037 A 
ATOM      5  C   UNL     1      -3.677  -0.404   1.549  0.00  0.00    +0.004 A 
ATOM      6  C   UNL     1      -4.176   0.190   2.695  0.00  0.00    +0.000 A 
ATOM      7  C   UNL     1      -3.341   0.461   3.764  0.00  0.00    +0.001 A 
ATOM      8  C   UNL     1      -2.000   0.140   3.693  0.00  0.00    +0.010 A 
ATOM      9  C   UNL     1      -1.494  -0.456   2.542  0.00  0.00    +0.004 A 
ATOM     10  C   UNL     1      -0.058  -0.803   2.433  0.00  0.00    +0.084 A 
ATOM     11  C   UNL     1       0.485  -1.017   1.174  0.00  0.00    +0.049 A 
ATOM     12  C   UNL     1       1.841  -1.353   1.073  0.00  0.00    +0.264 A 
ATOM     13  O   UNL     1       2.355  -1.551  -0.016  0.00  0.00    -0.267 OA
ATOM     14  N   UNL     1       2.569  -1.454   2.207  0.00  0.00    -0.248 N 
ATOM     15  C   UNL     1       1.986  -1.227   3.419  0.00  0.00    +0.223 A 
ATOM     16  N   UNL     1       0.711  -0.911   3.521  0.00  0.00    -0.214 NA
ATOM     17  N   UNL     1       2.744  -1.330   4.557  0.00  0.00    -0.206 N 
ATOM     18  C   UNL     1       0.238  -1.723  -1.182  0.00  0.00    +0.016 C 
ATOM     19  H   UNL     1       3.683  -1.564   4.494  0.00  0.00    +0.177 HD
ENDROOT
BRANCH  14  20
ATOM     20  C   UNL     1       3.926  -1.791   2.137  0.00  0.00    +0.053 A 
ATOM     21  C   UNL     1       4.316  -3.123   2.201  0.00  0.00    +0.026 A 
ATOM     22  C   UNL     1       5.656  -3.452   2.133  0.00  0.00    +0.002 A 
ATOM     23  C   UNL     1       6.608  -2.459   1.999  0.00  0.00    +0.000 A 
ATOM     24  C   UNL     1       6.223  -1.132   1.935  0.00  0.00    +0.002 A 
ATOM     25  C   UNL     1       4.885  -0.796   1.997  0.00  0.00    +0.026 A 
ENDBRANCH  14  20
BRANCH  17  26
ATOM     26  N   UNL     1       2.162  -1.098   5.810  0.00  0.00    -0.188 NA
ATOM     27  C   UNL     1       2.879  -1.196   6.887  0.00  0.00    +0.138 C 
BRANCH  27  28
ATOM     28  C   UNL     1       2.267  -0.951   8.206  0.00  0.00    -0.003 A 
ATOM     29  C   UNL     1       0.913  -0.620   8.300  0.00  0.00    +0.009 A 
ATOM     30  C   UNL     1       0.346  -0.393   9.537  0.00  0.00    +0.003 A 
ATOM     31  C   UNL     1       1.115  -0.493  10.683  0.00  0.00    +0.033 A 
ATOM     32  C   UNL     1       2.457  -0.821  10.597  0.00  0.00    +0.127 A 
ATOM     33  C   UNL     1       3.036  -1.056   9.367  0.00  0.00    +0.042 A 
BRANCH  32  34
ATOM     34  N   UNL     1       3.271  -0.925  11.828  0.00  0.00    +0.056 N 
ATOM     35  O   UNL     1       2.764  -0.724  12.907  0.00  0.00    -0.126 OA
ATOM     36  O   UNL     1       4.444  -1.212  11.755  0.00  0.00    -0.126 OA
ENDBRANCH  32  34
ENDBRANCH  27  28
ENDBRANCH  17  26
TORSDOF 4
