REMARK  Name = ZINC39531341
REMARK  8 active torsions:
REMARK  status: ('A' for Active; 'I' for Inactive)
REMARK    1  A    between atoms: C_4  and  C_7
REMARK    2  A    between atoms: C_7  and  C_8
REMARK    3  A    between atoms: C_11  and  C_14
REMARK    4  A    between atoms: C_14  and  C_16
REMARK    5  A    between atoms: C_14  and  N_25
REMARK    6  A    between atoms: C_16  and  N_17
REMARK    7  A    between atoms: N_17  and  C_18
REMARK    8  A    between atoms: C_18  and  C_19
REMARK                            x       y       z     vdW  Elec       q    Type
REMARK                         _______ _______ _______ _____ _____    ______ ____
ROOT
ATOM      1  C   UNL     1       5.450  -1.675   5.388  0.00  0.00    -0.023 C 
ENDROOT
BRANCH   1   2
ATOM      2  N   UNL     1       4.300  -2.332   6.023  0.00  0.00    +0.387 N 
ATOM      3  C   UNL     1       3.125  -1.455   5.936  0.00  0.00    -0.062 C 
ATOM      4  C   UNL     1       1.922  -2.147   6.581  0.00  0.00    +0.063 C 
ATOM      5  N   UNL     1       2.228  -2.447   7.987  0.00  0.00    -0.308 NA
ATOM      6  C   UNL     1       3.417  -3.305   8.090  0.00  0.00    +0.100 C 
ATOM      7  C   UNL     1       4.608  -2.603   7.433  0.00  0.00    -0.048 C 
ATOM      8  I   UNL     1       3.859  -3.677  10.174  0.00  0.00    -0.067 I 
ATOM      9  H   UNL     1       2.347  -1.599   8.520  0.00  0.00    +0.123 HD
ATOM     10  H   UNL     1       4.106  -3.201   5.548  0.00  0.00    -0.081 HD
ENDBRANCH   1   2
BRANCH   1  14
ATOM     11  C   UNL     1       4.406  -0.500   1.416  0.00  0.00    -0.043 A 
ATOM     12  C   UNL     1       5.172   0.337   2.205  0.00  0.00    +0.004 A 
ATOM     13  C   UNL     1       5.510  -0.043   3.490  0.00  0.00    +0.002 A 
ATOM     14  C   UNL     1       5.081  -1.260   3.987  0.00  0.00    -0.060 A 
ATOM     15  C   UNL     1       4.314  -2.097   3.198  0.00  0.00    +0.002 A 
ATOM     16  C   UNL     1       3.972  -1.715   1.914  0.00  0.00    +0.004 A 
BRANCH  11  17
ATOM     17  C   UNL     1       4.038  -0.086   0.014  0.00  0.00    +0.070 C 
BRANCH  17  21
ATOM     18  C   UNL     1       0.351   2.071   0.087  0.00  0.00    +0.000 A 
ATOM     19  C   UNL     1       1.550   2.746   0.221  0.00  0.00    +0.000 A 
ATOM     20  C   UNL     1       2.743   2.048   0.198  0.00  0.00    +0.004 A 
ATOM     21  C   UNL     1       2.737   0.675   0.041  0.00  0.00    -0.043 A 
ATOM     22  C   UNL     1       1.538  -0.000  -0.092  0.00  0.00    +0.004 A 
ATOM     23  C   UNL     1       0.345   0.698  -0.070  0.00  0.00    +0.000 A 
ENDBRANCH  17  21
ENDBRANCH  11  17
ENDBRANCH   1  14
BRANCH   1  24
ATOM     24  C   UNL     1       6.630  -2.647   5.338  0.00  0.00    +0.070 C 
BRANCH  24  25
ATOM     25  N   UNL     1       7.098  -2.920   6.703  0.00  0.00    -0.313 NA
ATOM     26  H   UNL     1       7.338  -2.063   7.181  0.00  0.00    +0.122 HD
BRANCH  25  27
ATOM     27  C   UNL     1       8.233  -3.852   6.694  0.00  0.00    +0.116 C 
BRANCH  27  28
ATOM     28  C   UNL     1       8.686  -4.106   8.109  0.00  0.00    -0.034 A 
ATOM     29  C   UNL     1       9.647  -3.296   8.683  0.00  0.00    +0.005 A 
ATOM     30  C   UNL     1      10.062  -3.530   9.981  0.00  0.00    +0.000 A 
ATOM     31  C   UNL     1       9.515  -4.573  10.705  0.00  0.00    +0.000 A 
ATOM     32  C   UNL     1       8.553  -5.383  10.130  0.00  0.00    +0.000 A 
ATOM     33  C   UNL     1       8.135  -5.147   8.834  0.00  0.00    +0.005 A 
ENDBRANCH  27  28
ENDBRANCH  25  27
ENDBRANCH  24  25
ENDBRANCH   1  24
TORSDOF 8
