REMARK  Name = ZINC63339370
REMARK  5 active torsions:
REMARK  status: ('A' for Active; 'I' for Inactive)
REMARK    1  A    between atoms: C_1  and  O_2
REMARK    2  A    between atoms: O_2  and  C_3
REMARK    3  A    between atoms: C_3  and  C_5
REMARK    4  A    between atoms: C_18  and  C_21
REMARK    5  A    between atoms: C_26  and  O_27
REMARK                            x       y       z     vdW  Elec       q    Type
REMARK                         _______ _______ _______ _____ _____    ______ ____
ROOT
ATOM      1  C   UNL     1       0.992  -2.088   0.770  0.00  0.00    +0.168 C 
ATOM      2  C   UNL     1      -0.407  -2.683   1.014  0.00  0.00    +0.063 C 
ATOM      3  C   UNL     1      -0.719  -2.440   2.469  0.00  0.00    -0.035 C 
ATOM      4  C   UNL     1      -1.776  -1.927   3.082  0.00  0.00    -0.001 A 
ATOM      5  C   UNL     1      -3.102  -1.526   2.583  0.00  0.00    +0.010 A 
ATOM      6  C   UNL     1      -3.955  -1.002   3.502  0.00  0.00    +0.001 A 
ATOM      7  C   UNL     1      -3.627  -0.838   4.851  0.00  0.00    +0.002 A 
ATOM      8  C   UNL     1      -2.437  -1.189   5.399  0.00  0.00    +0.026 A 
ATOM      9  C   UNL     1      -1.460  -1.762   4.534  0.00  0.00    +0.043 A 
ATOM     10  N   UNL     1      -0.266  -2.209   4.793  0.00  0.00    -0.376 N 
ATOM     11  C   UNL     1       0.288  -2.777   3.565  0.00  0.00    +0.128 C 
ATOM     12  C   UNL     1       1.606  -2.122   3.147  0.00  0.00    +0.115 C 
ATOM     13  N   UNL     1       1.930  -2.574   1.787  0.00  0.00    -0.295 NA
ATOM     14  H   UNL     1       2.015  -3.578   1.750  0.00  0.00    +0.123 HD
ATOM     15  H   UNL     1       0.181  -2.171   5.653  0.00  0.00    +0.160 HD
ENDROOT
BRANCH  12  16
ATOM     16  C   UNL     1       1.456  -0.622   3.164  0.00  0.00    +0.014 A 
ATOM     17  C   UNL     1       0.200  -0.054   3.261  0.00  0.00    +0.024 A 
ATOM     18  C   UNL     1       0.062   1.322   3.277  0.00  0.00    +0.018 A 
ATOM     19  C   UNL     1       1.181   2.133   3.195  0.00  0.00    +0.019 A 
ATOM     20  C   UNL     1       2.438   1.569   3.098  0.00  0.00    +0.047 A 
ATOM     21  C   UNL     1       2.579   0.188   3.087  0.00  0.00    +0.122 A 
ATOM     22 BR   UNL     1      -1.658   2.097   3.410  0.00  0.00    -0.050 Br
BRANCH  21  23
ATOM     23  O   UNL     1       3.815  -0.369   2.997  0.00  0.00    -0.506 OA
ATOM     24  H   UNL     1       4.110  -0.526   2.089  0.00  0.00    +0.292 HD
ENDBRANCH  21  23
ENDBRANCH  12  16
BRANCH   1  25
ATOM     25  C   UNL     1       0.914  -0.585   0.840  0.00  0.00    +0.324 C 
ATOM     26  O   UNL     1       1.921   0.066   0.995  0.00  0.00    -0.249 OA
BRANCH  25  28
ATOM     27  C   UNL     1      -0.256   1.455   0.610  0.00  0.00    +0.280 C 
ATOM     28  O   UNL     1      -0.273   0.032   0.731  0.00  0.00    -0.467 OA
ENDBRANCH  25  28
ENDBRANCH   1  25
TORSDOF 4
