REMARK  Name = ZINC13267504
REMARK  7 active torsions:
REMARK  status: ('A' for Active; 'I' for Inactive)
REMARK    1  A    between atoms: C_3  and  S_11
REMARK    2  A    between atoms: C_6  and  C_7
REMARK    3  A    between atoms: S_11  and  O_14
REMARK    4  A    between atoms: O_14  and  C_15
REMARK    5  A    between atoms: C_18  and  S_23
REMARK    6  A    between atoms: C_20  and  C_21
REMARK    7  A    between atoms: S_23  and  N_26
REMARK                            x       y       z     vdW  Elec       q    Type
REMARK                         _______ _______ _______ _____ _____    ______ ____
ROOT
ATOM      1  C   UNL     1      -1.224   1.752   0.017  0.00  0.00    +0.171 A 
ATOM      2  C   UNL     1      -0.013   1.076   0.008  0.00  0.00    +0.051 A 
ATOM      3  C   UNL     1       1.174   1.781   0.000  0.00  0.00    +0.032 A 
ATOM      4  C   UNL     1       1.166   3.167   0.007  0.00  0.00    +0.106 A 
ATOM      5  C   UNL     1      -0.027   3.855   0.023  0.00  0.00    +0.047 A 
ATOM      6  C   UNL     1      -1.236   3.154   0.031  0.00  0.00    +0.109 A 
ENDROOT
BRANCH   6   7
ATOM      7  C   UNL     1      -2.517   3.884   0.046  0.00  0.00    +0.390 C 
ATOM      8  O   UNL     1      -3.566   3.270   0.054  0.00  0.00    -0.240 OA
ATOM      9  O   UNL     1      -2.524   5.231   0.053  0.00  0.00    -0.240 OA
ENDBRANCH   6   7
BRANCH   4  10
ATOM     10  S   UNL     1       2.689   4.053  -0.002  0.00  0.00    +0.061 S 
ATOM     11  O   UNL     1       2.420   5.331   0.557  0.00  0.00    -0.153 OA
ATOM     12  O   UNL     1       3.671   3.178   0.535  0.00  0.00    -0.153 OA
BRANCH  10  13
ATOM     13  N   UNL     1       3.098   4.307  -1.587  0.00  0.00    -0.172 NA
ATOM     14  C   UNL     1       3.924   3.335  -2.321  0.00  0.00    +0.137 C 
ATOM     15  C   UNL     1       3.215   3.008  -3.646  0.00  0.00    +0.177 C 
ATOM     16  O   UNL     1       2.911   4.227  -4.328  0.00  0.00    -0.377 OA
ATOM     17  C   UNL     1       2.008   5.083  -3.624  0.00  0.00    +0.177 C 
ATOM     18  C   UNL     1       2.650   5.514  -2.300  0.00  0.00    +0.137 C 
ENDBRANCH  10  13
ENDBRANCH   4  10
BRANCH   1  19
ATOM     19  O   UNL     1      -2.390   1.060   0.019  0.00  0.00    -0.341 OA
BRANCH  19  20
ATOM     20  S   UNL     1      -2.916   0.736   1.410  0.00  0.00    +0.151 S 
ATOM     21  O   UNL     1      -4.010  -0.154   1.233  0.00  0.00    -0.131 OA
ATOM     22  O   UNL     1      -1.786   0.407   2.205  0.00  0.00    -0.131 OA
BRANCH  20  25
ATOM     23  C   UNL     1      -5.436   3.709   2.390  0.00  0.00    +0.014 A 
ATOM     24  C   UNL     1      -4.913   2.541   1.868  0.00  0.00    +0.031 A 
ATOM     25  C   UNL     1      -3.583   2.226   2.075  0.00  0.00    +0.128 A 
ATOM     26  C   UNL     1      -2.777   3.077   2.807  0.00  0.00    +0.031 A 
ATOM     27  C   UNL     1      -3.298   4.248   3.325  0.00  0.00    +0.014 A 
ATOM     28  C   UNL     1      -4.628   4.563   3.118  0.00  0.00    +0.055 A 
BRANCH  28  29
ATOM     29  C   UNL     1      -5.198   5.837   3.687  0.00  0.00    +0.417 C 
ATOM     30  F   UNL     1      -5.698   5.592   4.970  0.00  0.00    -0.166 F 
ATOM     31  F   UNL     1      -4.193   6.807   3.755  0.00  0.00    -0.166 F 
ATOM     32  F   UNL     1      -6.232   6.294   2.863  0.00  0.00    -0.166 F 
ENDBRANCH  28  29
ENDBRANCH  20  25
ENDBRANCH  19  20
ENDBRANCH   1  19
TORSDOF 7
