REMARK  Name = ZINC63375456
REMARK  4 active torsions:
REMARK  status: ('A' for Active; 'I' for Inactive)
REMARK    1  A    between atoms: C_4  and  C_7
REMARK    2  A    between atoms: C_7  and  N_8
REMARK    3  A    between atoms: C_13  and  C_31
REMARK    4  A    between atoms: C_31  and  C_32
REMARK                            x       y       z     vdW  Elec       q    Type
REMARK                         _______ _______ _______ _____ _____    ______ ____
ROOT
ATOM      1  N   UNL     1       4.152  -0.952   1.338  0.00  0.00    -0.237 N 
ATOM      2  C   UNL     1       4.914  -0.089   2.018  0.00  0.00    +0.227 C 
ATOM      3  O   UNL     1       5.322   0.971   1.593  0.00  0.00    -0.275 OA
ATOM      4  C   UNL     1       5.188  -0.640   3.400  0.00  0.00    +0.107 C 
ATOM      5  C   UNL     1       6.684  -1.003   3.512  0.00  0.00    +0.072 C 
ATOM      6  N   UNL     1       6.703  -2.350   4.142  0.00  0.00    -0.295 NA
ATOM      7  C   UNL     1       5.560  -3.051   3.527  0.00  0.00    +0.136 C 
ATOM      8  C   UNL     1       4.432  -1.998   3.399  0.00  0.00    +0.122 C 
ATOM      9  C   UNL     1       3.820  -2.056   2.018  0.00  0.00    +0.229 C 
ATOM     10  O   UNL     1       3.137  -2.962   1.592  0.00  0.00    -0.275 OA
ATOM     11  C   UNL     1       5.930  -3.642   2.196  0.00  0.00    +0.005 A 
ATOM     12  C   UNL     1       6.399  -3.106   1.018  0.00  0.00    +0.027 A 
ATOM     13  C   UNL     1       6.657  -3.930  -0.065  0.00  0.00    +0.041 A 
ATOM     14  C   UNL     1       6.440  -5.293   0.041  0.00  0.00    +0.022 A 
ATOM     15  C   UNL     1       5.968  -5.833   1.219  0.00  0.00    +0.025 A 
ATOM     16  C   UNL     1       5.708  -5.011   2.313  0.00  0.00    +0.039 A 
ATOM     17  N   UNL     1       5.234  -5.316   3.591  0.00  0.00    -0.283 N 
ATOM     18  C   UNL     1       5.119  -4.220   4.365  0.00  0.00    +0.243 C 
ATOM     19  O   UNL     1       4.735  -4.182   5.515  0.00  0.00    -0.273 OA
ATOM     20 CL   UNL     1       7.250  -3.255  -1.550  0.00  0.00    -0.084 Cl
ATOM     21  H   UNL     1       7.569  -2.829   3.946  0.00  0.00    +0.124 HD
ATOM     22  H   UNL     1       5.013  -6.213   3.887  0.00  0.00    +0.155 HD
ENDROOT
BRANCH   1  23
ATOM     23  C   UNL     1       3.711  -0.707  -0.038  0.00  0.00    +0.151 C 
BRANCH  23  27
ATOM     24  C   UNL     1      -0.017   1.378   0.010  0.00  0.00    +0.000 A 
ATOM     25  C   UNL     1       1.171   2.086   0.002  0.00  0.00    +0.000 A 
ATOM     26  C   UNL     1       2.377   1.411  -0.013  0.00  0.00    +0.005 A 
ATOM     27  C   UNL     1       2.396   0.029  -0.020  0.00  0.00    -0.030 A 
ATOM     28  C   UNL     1       1.208  -0.679  -0.012  0.00  0.00    +0.005 A 
ATOM     29  C   UNL     1       0.002  -0.004   0.002  0.00  0.00    +0.000 A 
ENDBRANCH  23  27
ENDBRANCH   1  23
BRANCH   5  30
ATOM     30  C   UNL     1       7.413   0.011   4.396  0.00  0.00    +0.052 C 
BRANCH  30  31
ATOM     31  C   UNL     1       8.890  -0.290   4.393  0.00  0.00    -0.040 C 
ATOM     32  C   UNL     1       9.833   0.272   3.603  0.00  0.00    -0.001 A 
ATOM     33  C   UNL     1       9.768   1.292   2.549  0.00  0.00    +0.010 A 
ATOM     34  C   UNL     1      10.908   1.659   1.920  0.00  0.00    +0.001 A 
ATOM     35  C   UNL     1      12.146   1.090   2.248  0.00  0.00    +0.002 A 
ATOM     36  C   UNL     1      12.286   0.148   3.205  0.00  0.00    +0.026 A 
ATOM     37  C   UNL     1      11.153  -0.312   3.931  0.00  0.00    +0.043 A 
ATOM     38  N   UNL     1      11.030  -1.201   4.887  0.00  0.00    -0.380 N 
ATOM     39  C   UNL     1       9.618  -1.276   5.278  0.00  0.00    +0.144 C 
ATOM     40  H   UNL     1      11.754  -1.719   5.274  0.00  0.00    +0.160 HD
ENDBRANCH  30  31
ENDBRANCH   5  30
TORSDOF 4
