REMARK  Name = ZINC38863058
REMARK  8 active torsions:
REMARK  status: ('A' for Active; 'I' for Inactive)
REMARK    1  A    between atoms: C_1  and  C_2
REMARK    2  A    between atoms: C_2  and  O_3
REMARK    3  A    between atoms: O_3  and  C_4
REMARK    4  A    between atoms: C_13  and  C_14
REMARK    5  A    between atoms: N_16  and  C_17
REMARK    6  A    between atoms: C_19  and  C_34
REMARK    7  A    between atoms: C_24  and  C_27
REMARK    8  A    between atoms: C_30  and  C_33
REMARK                            x       y       z     vdW  Elec       q    Type
REMARK                         _______ _______ _______ _____ _____    ______ ____
ROOT
ATOM      1  C   UNL     1       1.761  -0.172  -5.486  0.00  0.00    +0.131 A 
ATOM      2  C   UNL     1       3.028   0.326  -5.507  0.00  0.00    +0.068 A 
ATOM      3  C   UNL     1       3.153   1.134  -6.641  0.00  0.00    +0.062 A 
ATOM      4  N   UNL     1       2.012   1.129  -7.282  0.00  0.00    -0.168 NA
ATOM      5  N   UNL     1       1.115   0.310  -6.584  0.00  0.00    -0.194 N 
ATOM      6  C   UNL     1      -0.203   0.041  -6.945  0.00  0.00    +0.196 A 
ATOM      7  N   UNL     1      -0.886   0.467  -7.991  0.00  0.00    -0.221 NA
ATOM      8  C   UNL     1      -2.146   0.108  -8.183  0.00  0.00    +0.080 A 
ATOM      9  C   UNL     1      -2.752  -0.721  -7.279  0.00  0.00    +0.077 A 
ATOM     10  S   UNL     1      -1.416  -0.981  -6.120  0.00  0.00    -0.056 S 
ATOM     11  C   UNL     1       4.392   1.885  -7.055  0.00  0.00    +0.067 C 
ENDROOT
BRANCH   8  12
ATOM     12  C   UNL     1      -2.892   0.601  -9.366  0.00  0.00    +0.001 A 
ATOM     13  C   UNL     1      -4.220   0.225  -9.560  0.00  0.00    +0.010 A 
ATOM     14  C   UNL     1      -4.910   0.687 -10.663  0.00  0.00    +0.004 A 
ATOM     15  C   UNL     1      -4.287   1.521 -11.573  0.00  0.00    -0.050 A 
ATOM     16  C   UNL     1      -2.969   1.897 -11.385  0.00  0.00    +0.004 A 
ATOM     17  C   UNL     1      -2.270   1.445 -10.284  0.00  0.00    +0.010 A 
ATOM     18  C   UNL     1      -5.045   2.021 -12.776  0.00  0.00    +0.044 C 
ENDBRANCH   8  12
BRANCH   1  21
ATOM     19  C   UNL     1       1.983  -1.423  -3.481  0.00  0.00    +0.253 C 
ATOM     20  O   UNL     1       3.135  -1.041  -3.384  0.00  0.00    -0.270 OA
ATOM     21  N   UNL     1       1.226  -1.022  -4.521  0.00  0.00    -0.266 N 
ATOM     22  H   UNL     1       0.308  -1.327  -4.598  0.00  0.00    +0.157 HD
BRANCH  19  32
ATOM     23  C   UNL     1       0.776  -1.806  -1.336  0.00  0.00    +0.133 A 
ATOM     24  C   UNL     1       0.237  -2.666  -0.377  0.00  0.00    +0.047 A 
ATOM     25  C   UNL     1       0.320  -4.016  -0.498  0.00  0.00    +0.012 A 
ATOM     26  C   UNL     1       0.960  -4.601  -1.607  0.00  0.00    -0.017 A 
ATOM     27  C   UNL     1       1.050  -5.997  -1.742  0.00  0.00    +0.008 A 
ATOM     28  C   UNL     1       1.676  -6.529  -2.828  0.00  0.00    +0.001 A 
ATOM     29  C   UNL     1       2.229  -5.711  -3.810  0.00  0.00    +0.001 A 
ATOM     30  C   UNL     1       2.159  -4.353  -3.710  0.00  0.00    +0.009 A 
ATOM     31  C   UNL     1       1.522  -3.772  -2.607  0.00  0.00    -0.002 A 
ATOM     32  C   UNL     1       1.419  -2.321  -2.463  0.00  0.00    +0.086 A 
BRANCH  23  33
ATOM     33  O   UNL     1       0.671  -0.465  -1.174  0.00  0.00    -0.491 OA
BRANCH  33  35
ATOM     34  C   UNL     1      -0.019   1.526   0.010  0.00  0.00    +0.048 C 
ATOM     35  C   UNL     1       0.002  -0.004   0.002  0.00  0.00    +0.226 C 
ENDBRANCH  33  35
ENDBRANCH  23  33
ENDBRANCH  19  32
ENDBRANCH   1  21
TORSDOF 5
