REMARK  Name = ZINC05101755
REMARK  6 active torsions:
REMARK  status: ('A' for Active; 'I' for Inactive)
REMARK    1  A    between atoms: C_3  and  C_6
REMARK    2  A    between atoms: C_8  and  C_11
REMARK    3  A    between atoms: C_11  and  O_12
REMARK    4  A    between atoms: O_12  and  C_13
REMARK    5  A    between atoms: C_13  and  C_15
REMARK    6  A    between atoms: C_20  and  O_21
REMARK                            x       y       z     vdW  Elec       q    Type
REMARK                         _______ _______ _______ _____ _____    ______ ____
ROOT
ATOM      1  O   UNL     1       4.056   7.578  -0.001  0.00  0.00    -0.455 OA
ENDROOT
BRANCH   1   2
ATOM      2  C   UNL     1       4.076   8.925   0.005  0.00  0.00    +0.343 C 
ATOM      3  O   UNL     1       3.033   9.549   0.018  0.00  0.00    -0.245 OA
BRANCH   2   4
ATOM      4  C   UNL     1       5.363   9.643  -0.005  0.00  0.00    +0.100 A 
ATOM      5  C   UNL     1       6.566   8.930  -0.020  0.00  0.00    +0.020 A 
ATOM      6  C   UNL     1       7.765   9.606  -0.030  0.00  0.00    +0.021 A 
ATOM      7  C   UNL     1       7.786  10.993  -0.025  0.00  0.00    +0.044 A 
ATOM      8  C   UNL     1       6.605  11.710  -0.009  0.00  0.00    +0.066 A 
ATOM      9  C   UNL     1       5.389  11.045  -0.005  0.00  0.00    +0.132 A 
ATOM     10 CL   UNL     1       9.306  11.833  -0.037  0.00  0.00    -0.083 Cl
BRANCH   9  11
ATOM     11  O   UNL     1       4.228  11.748   0.005  0.00  0.00    -0.506 OA
ATOM     12  H   UNL     1       3.899  11.951   0.891  0.00  0.00    +0.292 HD
ENDBRANCH   9  11
ENDBRANCH   2   4
ENDBRANCH   1   2
BRANCH   1  13
ATOM     13  C   UNL     1       2.753   6.938   0.009  0.00  0.00    +0.291 C 
BRANCH  13  16
ATOM     14  C   UNL     1       2.479   3.330  -0.004  0.00  0.00    +0.234 A 
ATOM     15  N   UNL     1       1.942   4.531   0.002  0.00  0.00    -0.210 NA
ATOM     16  C   UNL     1       2.928   5.441   0.001  0.00  0.00    +0.117 A 
ATOM     17  C   UNL     1       4.100   4.782  -0.014  0.00  0.00    +0.224 A 
ATOM     18  O   UNL     1       3.818   3.462  -0.017  0.00  0.00    -0.443 OA
BRANCH  14  21
ATOM     19  C   UNL     1       1.333  -0.275  -0.012  0.00  0.00    +0.008 A 
ATOM     20  C   UNL     1       2.232   0.766  -0.015  0.00  0.00    +0.021 A 
ATOM     21  C   UNL     1       1.741   2.059  -0.004  0.00  0.00    +0.074 A 
ATOM     22  S   UNL     1      -0.022   1.781   0.012  0.00  0.00    -0.092 S 
ATOM     23  C   UNL     1       0.002  -0.004   0.002  0.00  0.00    +0.046 A 
ENDBRANCH  14  21
ENDBRANCH  13  16
ENDBRANCH   1  13
TORSDOF 6
