REMARK  Name = ZINC34906418
REMARK  9 active torsions:
REMARK  status: ('A' for Active; 'I' for Inactive)
REMARK    1  A    between atoms: C_1  and  C_2
REMARK    2  A    between atoms: C_2  and  C_3
REMARK    3  A    between atoms: C_8  and  N_9
REMARK    4  A    between atoms: N_12  and  C_13
REMARK    5  A    between atoms: C_19  and  N_21
REMARK    6  A    between atoms: C_22  and  C_24
REMARK    7  A    between atoms: C_27  and  C_29
REMARK    8  A    between atoms: C_29  and  O_30
REMARK    9  A    between atoms: O_30  and  C_31
REMARK                            x       y       z     vdW  Elec       q    Type
REMARK                         _______ _______ _______ _____ _____    ______ ____
ROOT
ATOM      1  C   UNL     1      -4.061  -0.631   4.926  0.00  0.00    +0.095 C 
ATOM      2  C   UNL     1      -4.437  -2.113   4.993  0.00  0.00    +0.024 C 
ATOM      3  C   UNL     1      -5.312  -2.472   3.790  0.00  0.00    +0.002 C 
ATOM      4  C   UNL     1      -6.584  -1.622   3.812  0.00  0.00    +0.002 C 
ATOM      5  C   UNL     1      -6.208  -0.140   3.745  0.00  0.00    +0.024 C 
ATOM      6  C   UNL     1      -5.333   0.219   4.948  0.00  0.00    +0.093 C 
ENDROOT
BRANCH   1  10
ATOM      7  N   UNL     1      -1.309  -0.339   2.505  0.00  0.00    -0.269 N 
ATOM      8  C   UNL     1      -1.990  -0.578   3.643  0.00  0.00    +0.304 C 
ATOM      9  O   UNL     1      -1.404  -0.981   4.629  0.00  0.00    -0.252 OA
ATOM     10  N   UNL     1      -3.321  -0.371   3.689  0.00  0.00    -0.295 N 
ATOM     11  H   UNL     1      -1.765   0.044   1.739  0.00  0.00    +0.156 HD
ATOM     12  H   UNL     1      -3.789  -0.050   2.902  0.00  0.00    +0.151 HD
BRANCH   7  18
ATOM     13  C   UNL     1       0.600  -1.101   1.237  0.00  0.00    -0.026 A 
ATOM     14  C   UNL     1       1.947  -1.394   1.163  0.00  0.00    +0.005 A 
ATOM     15  C   UNL     1       2.753  -1.237   2.276  0.00  0.00    +0.000 A 
ATOM     16  C   UNL     1       2.212  -0.786   3.466  0.00  0.00    +0.002 A 
ATOM     17  C   UNL     1       0.865  -0.491   3.546  0.00  0.00    +0.023 A 
ATOM     18  C   UNL     1       0.055  -0.642   2.429  0.00  0.00    +0.038 A 
BRANCH  13  20
ATOM     19  C   UNL     1      -0.394   0.062  -0.715  0.00  0.00    +0.009 C 
ATOM     20  C   UNL     1      -0.277  -1.273   0.023  0.00  0.00    +0.033 C 
ENDBRANCH  13  20
ENDBRANCH   7  18
ENDBRANCH   1  10
BRANCH   6  21
ATOM     21  N   UNL     1      -4.973   1.638   4.884  0.00  0.00    -0.305 N 
ATOM     22  C   UNL     1      -5.811   2.569   5.379  0.00  0.00    +0.263 C 
ATOM     23  O   UNL     1      -6.867   2.232   5.880  0.00  0.00    -0.269 OA
ATOM     24  H   UNL     1      -4.131   1.907   4.484  0.00  0.00    +0.149 HD
BRANCH  22  25
ATOM     25  C   UNL     1      -5.449   3.995   5.315  0.00  0.00    +0.133 A 
ATOM     26  C   UNL     1      -6.268   4.974   5.810  0.00  0.00    +0.080 A 
ATOM     27  S   UNL     1      -5.397   6.373   5.486  0.00  0.00    -0.076 S 
ATOM     28  C   UNL     1      -4.052   5.691   4.749  0.00  0.00    +0.116 A 
ATOM     29  N   UNL     1      -4.299   4.409   4.774  0.00  0.00    -0.236 NA
BRANCH  28  30
ATOM     30  C   UNL     1      -2.840   6.393   4.194  0.00  0.00    +0.291 C 
BRANCH  30  31
ATOM     31  O   UNL     1      -3.063   6.715   2.820  0.00  0.00    -0.482 OA
BRANCH  31  32
ATOM     32  C   UNL     1      -2.059   7.356   2.165  0.00  0.00    +0.156 A 
ATOM     33  C   UNL     1      -0.882   7.663   2.829  0.00  0.00    +0.048 A 
ATOM     34  C   UNL     1       0.138   8.315   2.162  0.00  0.00    +0.004 A 
ATOM     35  C   UNL     1      -0.015   8.662   0.832  0.00  0.00    +0.003 A 
ATOM     36  C   UNL     1      -1.188   8.358   0.166  0.00  0.00    +0.042 A 
ATOM     37  C   UNL     1      -2.209   7.699   0.827  0.00  0.00    +0.165 A 
ATOM     38  F   UNL     1      -3.352   7.396   0.174  0.00  0.00    -0.202 F 
ENDBRANCH  31  32
ENDBRANCH  30  31
ENDBRANCH  28  30
ENDBRANCH  22  25
ENDBRANCH   6  21
TORSDOF 8
