REMARK  Name = ZINC20527552
REMARK  10 active torsions:
REMARK  status: ('A' for Active; 'I' for Inactive)
REMARK    1  A    between atoms: C_2  and  C_3
REMARK    2  A    between atoms: C_3  and  C_4
REMARK    3  A    between atoms: C_8  and  C_11
REMARK    4  A    between atoms: C_9  and  O_10
REMARK    5  A    between atoms: N_12  and  N_13
REMARK    6  A    between atoms: C_17  and  S_20
REMARK    7  A    between atoms: N_18  and  N_19
REMARK    8  A    between atoms: S_20  and  C_21
REMARK    9  A    between atoms: C_21  and  C_22
REMARK   10  A    between atoms: N_24  and  C_25
REMARK                            x       y       z     vdW  Elec       q    Type
REMARK                         _______ _______ _______ _____ _____    ______ ____
ROOT
ATOM      1  N   UNL     1       8.602  -7.889   0.614  0.00  0.00    -0.204 N 
ATOM      2  C   UNL     1       7.905  -6.694   0.509  0.00  0.00    +0.254 A 
ATOM      3  N   UNL     1       8.433  -5.497   0.443  0.00  0.00    -0.109 NA
ATOM      4  N   UNL     1       7.389  -4.568   0.339  0.00  0.00    -0.119 NA
ATOM      5  C   UNL     1       6.256  -5.229   0.354  0.00  0.00    +0.210 A 
ATOM      6  N   UNL     1       6.545  -6.560   0.456  0.00  0.00    -0.211 N 
ATOM      7  H   UNL     1       8.056  -8.842   0.663  0.00  0.00    +0.177 HD
ENDROOT
BRANCH   6   8
ATOM      8  N   UNL     1       5.635  -7.578   0.497  0.00  0.00    -0.294 N 
ATOM      9  H   UNL     1       4.559  -7.356   0.448  0.00  0.00    +0.163 HD
ATOM     10  H   UNL     1       5.979  -8.620   0.581  0.00  0.00    +0.163 HD
ENDBRANCH   6   8
BRANCH   1  12
ATOM     11  C   UNL     1      10.656  -8.999   0.757  0.00  0.00    +0.142 C 
ATOM     12  N   UNL     1      10.003  -7.881   0.658  0.00  0.00    -0.187 NA
BRANCH  11  17
ATOM     13  C   UNL     1      14.213  -7.780   0.786  0.00  0.00    -0.002 A 
ATOM     14  C   UNL     1      14.901  -8.975   0.891  0.00  0.00    +0.007 A 
ATOM     15  C   UNL     1      14.214 -10.175   0.953  0.00  0.00    +0.001 A 
ATOM     16  C   UNL     1      12.835 -10.190   0.910  0.00  0.00    +0.013 A 
ATOM     17  C   UNL     1      12.129  -8.990   0.804  0.00  0.00    +0.036 A 
ATOM     18  C   UNL     1      12.829  -7.778   0.736  0.00  0.00    +0.129 A 
BRANCH  18  19
ATOM     19  O   UNL     1      12.153  -6.605   0.627  0.00  0.00    -0.506 OA
ATOM     20  H   UNL     1      11.053  -6.605   0.587  0.00  0.00    +0.292 HD
ENDBRANCH  18  19
BRANCH  13  21
ATOM     21  C   UNL     1      14.970  -6.479   0.719  0.00  0.00    +0.065 C 
BRANCH  21  23
ATOM     22  C   UNL     1      16.244  -5.579   2.597  0.00  0.00    +0.004 C 
ATOM     23  C   UNL     1      15.071  -5.885   2.100  0.00  0.00    -0.030 C 
ENDBRANCH  21  23
ENDBRANCH  13  21
ENDBRANCH  11  17
ENDBRANCH   1  12
BRANCH   5  24
ATOM     24  S   UNL     1       4.645  -4.523   0.254  0.00  0.00    -0.075 S 
BRANCH  24  25
ATOM     25  C   UNL     1       4.953  -2.739   0.140  0.00  0.00    +0.173 C 
BRANCH  25  26
ATOM     26  C   UNL     1       3.639  -2.007   0.048  0.00  0.00    +0.227 C 
ATOM     27  O   UNL     1       2.597  -2.628   0.057  0.00  0.00    -0.275 OA
ATOM     28  N   UNL     1       3.621  -0.663  -0.046  0.00  0.00    -0.285 N 
ATOM     29  H   UNL     1       4.565  -0.106  -0.142  0.00  0.00    +0.155 HD
BRANCH  28  30
ATOM     30  C   UNL     1       2.401   0.025  -0.021  0.00  0.00    +0.037 A 
ATOM     31  C   UNL     1       1.346  -0.460   0.740  0.00  0.00    +0.027 A 
ATOM     32  C   UNL     1       0.142   0.217   0.764  0.00  0.00    +0.051 A 
ATOM     33  C   UNL     1      -0.016   1.384   0.030  0.00  0.00    +0.162 A 
ATOM     34  C   UNL     1       1.040   1.873  -0.730  0.00  0.00    +0.164 A 
ATOM     35  C   UNL     1       2.247   1.192  -0.756  0.00  0.00    +0.072 A 
ATOM     36  O   UNL     1       0.906   3.021  -1.451  0.00  0.00    -0.485 OA
ATOM     37  C   UNL     1      -0.429   3.473  -1.699  0.00  0.00    +0.270 C 
ATOM     38  C   UNL     1      -1.216   3.395  -0.384  0.00  0.00    +0.270 C 
ATOM     39  O   UNL     1      -1.213   2.033   0.059  0.00  0.00    -0.485 OA
ENDBRANCH  28  30
ENDBRANCH  25  26
ENDBRANCH  24  25
ENDBRANCH   5  24
TORSDOF 10
