REMARK  Name = ZINC33609425
REMARK  8 active torsions:
REMARK  status: ('A' for Active; 'I' for Inactive)
REMARK    1  A    between atoms: C_3  and  N_31
REMARK    2  A    between atoms: C_5  and  O_7
REMARK    3  A    between atoms: O_7  and  C_8
REMARK    4  A    between atoms: C_8  and  C_9
REMARK    5  A    between atoms: N_11  and  C_12
REMARK    6  A    between atoms: C_15  and  S_27
REMARK    7  A    between atoms: C_18  and  O_26
REMARK    8  A    between atoms: C_20  and  S_22
REMARK                            x       y       z     vdW  Elec       q    Type
REMARK                         _______ _______ _______ _____ _____    ______ ____
ROOT
ATOM      1  C   UNL     1       1.889   9.580  -0.049  0.00  0.00    +0.045 A 
ATOM      2  C   UNL     1       0.673  10.168   0.229  0.00  0.00    +0.026 A 
ATOM      3  C   UNL     1       0.517  11.548   0.147  0.00  0.00    +0.032 A 
ATOM      4  C   UNL     1       1.553  12.353  -0.218  0.00  0.00    +0.128 A 
ATOM      5  C   UNL     1       2.807  11.792  -0.515  0.00  0.00    +0.017 A 
ATOM      6  C   UNL     1       2.979  10.389  -0.430  0.00  0.00    +0.047 A 
ATOM      7  C   UNL     1       4.236   9.827  -0.727  0.00  0.00    +0.128 A 
ATOM      8  C   UNL     1       5.276  10.652  -1.096  0.00  0.00    +0.075 A 
ATOM      9  C   UNL     1       5.096  12.030  -1.177  0.00  0.00    +0.124 A 
ATOM     10  C   UNL     1       3.893  12.599  -0.895  0.00  0.00    +0.040 A 
ENDROOT
BRANCH   1  13
ATOM     11  C   UNL     1       1.025   7.383  -0.325  0.00  0.00    +0.255 C 
ATOM     12  O   UNL     1      -0.044   7.856  -0.649  0.00  0.00    -0.272 OA
ATOM     13  N   UNL     1       2.038   8.195   0.040  0.00  0.00    -0.282 N 
ATOM     14  H   UNL     1       2.981   7.765   0.409  0.00  0.00    +0.155 HD
BRANCH  11  15
ATOM     15  C   UNL     1       1.221   5.889  -0.330  0.00  0.00    +0.324 C 
BRANCH  15  16
ATOM     16  O   UNL     1       0.013   5.252  -0.750  0.00  0.00    -0.483 OA
BRANCH  16  21
ATOM     17  C   UNL     1       1.172   1.810  -0.532  0.00  0.00    +0.006 A 
ATOM     18  C   UNL     1       0.036   1.130  -0.932  0.00  0.00    +0.033 A 
ATOM     19  C   UNL     1      -1.106   1.830  -1.276  0.00  0.00    +0.130 A 
ATOM     20  C   UNL     1      -1.118   3.210  -1.210  0.00  0.00    +0.078 A 
ATOM     21  C   UNL     1       0.021   3.894  -0.810  0.00  0.00    +0.123 A 
ATOM     22  C   UNL     1       1.167   3.190  -0.470  0.00  0.00    +0.046 A 
BRANCH  19  23
ATOM     23  N   UNL     1      -2.318   1.100  -1.709  0.00  0.00    +0.057 N 
ATOM     24  O   UNL     1      -2.309  -0.117  -1.763  0.00  0.00    -0.126 OA
ATOM     25  O   UNL     1      -3.324   1.716  -2.012  0.00  0.00    -0.126 OA
ENDBRANCH  19  23
ENDBRANCH  16  21
ENDBRANCH  15  16
ENDBRANCH  11  15
ENDBRANCH   1  13
BRANCH   9  26
ATOM     26  S   UNL     1       6.450  13.054  -1.652  0.00  0.00    +0.140 S 
ATOM     27  O   UNL     1       7.339  12.232  -2.396  0.00  0.00    -0.140 OA
ATOM     28  O   UNL     1       5.890  14.247  -2.183  0.00  0.00    -0.140 OA
ATOM     29  O   UNL     1       7.184  13.448  -0.378  0.00  0.00    -0.043 OA
ENDBRANCH   9  26
BRANCH   4  30
ATOM     30  S   UNL     1       1.321  14.097  -0.320  0.00  0.00    +0.140 S 
ATOM     31  O   UNL     1       0.117  14.388   0.375  0.00  0.00    -0.140 OA
ATOM     32  O   UNL     1       2.564  14.692   0.027  0.00  0.00    -0.140 OA
ATOM     33  O   UNL     1       1.071  14.433  -1.783  0.00  0.00    -0.043 OA
ENDBRANCH   4  30
BRANCH   7  34
ATOM     34  O   UNL     1       4.421   8.484  -0.651  0.00  0.00    -0.506 OA
ATOM     35  H   UNL     1       5.405   8.051  -0.884  0.00  0.00    +0.292 HD
ENDBRANCH   7  34
TORSDOF 8
