REMARK  Name = ZINC33760024
REMARK  10 active torsions:
REMARK  status: ('A' for Active; 'I' for Inactive)
REMARK    1  A    between atoms: C_1  and  C_2
REMARK    2  A    between atoms: C_2  and  O_3
REMARK    3  A    between atoms: O_3  and  C_4
REMARK    4  A    between atoms: C_4  and  C_6
REMARK    5  A    between atoms: C_10  and  N_11
REMARK    6  A    between atoms: C_12  and  C_14
REMARK    7  A    between atoms: C_17  and  C_31
REMARK    8  A    between atoms: C_18  and  C_19
REMARK    9  A    between atoms: C_18  and  C_20
REMARK   10  A    between atoms: N_33  and  C_36
REMARK                            x       y       z     vdW  Elec       q    Type
REMARK                         _______ _______ _______ _____ _____    ______ ____
ROOT
ATOM      1  N   UNL     1       0.751   5.354   3.635  0.00  0.00    -0.279 N 
ATOM      2  C   UNL     1       1.620   6.223   4.188  0.00  0.00    +0.230 C 
ATOM      3  O   UNL     1       1.396   7.414   4.148  0.00  0.00    -0.274 OA
ATOM      4  H   UNL     1       0.954   4.274   3.672  0.00  0.00    +0.155 HD
ENDROOT
BRANCH   2   5
ATOM      5  C   UNL     1       2.871   5.714   4.857  0.00  0.00    +0.097 C 
ATOM      6  C   UNL     1       3.864   4.920   3.950  0.00  0.00    +0.024 C 
ATOM      7  C   UNL     1       5.195   4.942   4.739  0.00  0.00    +0.015 C 
ATOM      8  C   UNL     1       4.856   5.747   6.034  0.00  0.00    +0.018 C 
ATOM      9  C   UNL     1       3.840   6.799   5.455  0.00  0.00    -0.005 C 
ATOM     10  C   UNL     1       4.483   7.665   4.369  0.00  0.00    +0.013 C 
ATOM     11  C   UNL     1       3.169   7.644   6.539  0.00  0.00    +0.013 C 
ATOM     12  C   UNL     1       3.909   4.830   6.812  0.00  0.00    +0.071 A 
ATOM     13  C   UNL     1       2.667   4.809   6.075  0.00  0.00    +0.079 A 
ATOM     14  N   UNL     1       1.690   4.078   6.538  0.00  0.00    -0.247 NA
ATOM     15  C   UNL     1       1.820   3.377   7.672  0.00  0.00    +0.090 A 
ATOM     16  C   UNL     1       0.758   2.600   8.168  0.00  0.00    +0.030 A 
ATOM     17  C   UNL     1       0.917   1.901   9.324  0.00  0.00    +0.002 A 
ATOM     18  C   UNL     1       2.120   1.941  10.027  0.00  0.00    +0.002 A 
ATOM     19  C   UNL     1       3.170   2.681   9.577  0.00  0.00    +0.030 A 
ATOM     20  C   UNL     1       3.043   3.417   8.386  0.00  0.00    +0.090 A 
ATOM     21  N   UNL     1       4.060   4.154   7.920  0.00  0.00    -0.248 NA
ATOM     22  C   UNL     1       6.048   6.306   6.814  0.00  0.00    +0.018 C 
ENDBRANCH   2   5
BRANCH   1  27
ATOM     23  C   UNL     1      -1.405   5.091   2.399  0.00  0.00    +0.091 A 
ATOM     24  C   UNL     1      -2.512   5.832   1.823  0.00  0.00    -0.025 A 
ATOM     25  C   UNL     1      -2.443   7.175   1.965  0.00  0.00    -0.021 A 
ATOM     26  S   UNL     1      -0.932   7.461   2.838  0.00  0.00    -0.079 S 
ATOM     27  C   UNL     1      -0.399   5.822   3.020  0.00  0.00    +0.086 A 
ATOM     28  C   UNL     1      -3.444   8.173   1.470  0.00  0.00    -0.036 C 
ATOM     29  N   UNL     1      -4.332   7.496   0.506  0.00  0.00    +0.381 N 
ATOM     30  C   UNL     1      -4.832   6.230   1.059  0.00  0.00    -0.074 C 
ATOM     31  C   UNL     1      -3.703   5.197   1.116  0.00  0.00    +0.018 C 
ATOM     32  C   UNL     1      -5.441   8.372   0.107  0.00  0.00    -0.096 C 
ATOM     33  H   UNL     1      -3.748   7.265  -0.398  0.00  0.00    -0.082 HD
BRANCH  23  34
ATOM     34  C   UNL     1      -1.348   3.630   2.325  0.00  0.00    +0.342 C 
ATOM     35  O   UNL     1      -1.840   2.955   3.209  0.00  0.00    -0.245 OA
BRANCH  34  36
ATOM     36  O   UNL     1      -0.749   3.031   1.275  0.00  0.00    -0.461 OA
BRANCH  36  38
ATOM     37  C   UNL     1      -0.013   1.086   0.008  0.00  0.00    +0.048 C 
ATOM     38  C   UNL     1      -0.729   1.579   1.267  0.00  0.00    +0.229 C 
ENDBRANCH  36  38
ENDBRANCH  34  36
ENDBRANCH  23  34
ENDBRANCH   1  27
TORSDOF 5
