REMARK  Name = ZINC23482944
REMARK  8 active torsions:
REMARK  status: ('A' for Active; 'I' for Inactive)
REMARK    1  A    between atoms: C_1  and  C_2
REMARK    2  A    between atoms: C_2  and  C_4
REMARK    3  A    between atoms: C_2  and  N_32
REMARK    4  A    between atoms: C_7  and  S_16
REMARK    5  A    between atoms: N_8  and  C_9
REMARK    6  A    between atoms: S_16  and  C_17
REMARK    7  A    between atoms: C_17  and  C_19
REMARK    8  A    between atoms: C_17  and  C_20
REMARK                            x       y       z     vdW  Elec       q    Type
REMARK                         _______ _______ _______ _____ _____    ______ ____
ROOT
ATOM      1  C   UNL     1      -0.747   1.579   3.646  0.00  0.00    +0.125 A 
ATOM      2  N   UNL     1      -1.081   2.829   3.808  0.00  0.00    -0.135 NA
ATOM      3  N   UNL     1      -1.613   2.998   4.965  0.00  0.00    -0.122 NA
ATOM      4  C   UNL     1      -1.641   1.858   5.616  0.00  0.00    +0.197 A 
ATOM      5  N   UNL     1      -1.088   0.915   4.794  0.00  0.00    -0.275 N 
ENDROOT
BRANCH   5   6
ATOM      6  C   UNL     1      -0.908  -0.450   5.069  0.00  0.00    +0.050 A 
ATOM      7  C   UNL     1      -1.598  -1.404   4.334  0.00  0.00    +0.029 A 
ATOM      8  C   UNL     1      -1.416  -2.746   4.603  0.00  0.00    +0.040 A 
ATOM      9  C   UNL     1      -0.553  -3.140   5.612  0.00  0.00    +0.124 A 
ATOM     10  C   UNL     1       0.132  -2.189   6.350  0.00  0.00    +0.040 A 
ATOM     11  C   UNL     1      -0.044  -0.846   6.080  0.00  0.00    +0.029 A 
ATOM     12  F   UNL     1      -0.380  -4.453   5.878  0.00  0.00    -0.205 F 
ENDBRANCH   5   6
BRANCH   1  14
ATOM     13  C   UNL     1       1.372   1.397   2.370  0.00  0.00    -0.005 C 
ATOM     14  C   UNL     1      -0.099   0.979   2.425  0.00  0.00    -0.002 C 
BRANCH  14  15
ATOM     15  N   UNL     1      -0.789   1.457   1.219  0.00  0.00    +0.386 N 
ATOM     16  C   UNL     1      -2.198   1.041   1.220  0.00  0.00    -0.078 C 
ATOM     17  C   UNL     1      -2.918   1.676   0.028  0.00  0.00    -0.019 C 
ATOM     18  C   UNL     1      -2.236   1.234  -1.269  0.00  0.00    -0.004 C 
ATOM     19  C   UNL     1      -0.759   1.636  -1.223  0.00  0.00    -0.019 C 
ATOM     20  C   UNL     1      -0.102   1.002   0.004  0.00  0.00    -0.078 C 
ATOM     21  H   UNL     1      -0.764   2.556   1.227  0.00  0.00    -0.081 HD
ENDBRANCH  14  15
ENDBRANCH   1  14
BRANCH   4  22
ATOM     22  S   UNL     1      -2.270   1.593   7.240  0.00  0.00    -0.073 S 
BRANCH  22  23
ATOM     23  C   UNL     1      -2.807   3.273   7.647  0.00  0.00    +0.137 C 
ATOM     24  C   UNL     1      -1.589   4.196   7.714  0.00  0.00    +0.029 C 
BRANCH  23  25
ATOM     25  C   UNL     1      -3.507   3.268   8.981  0.00  0.00    +0.229 C 
ATOM     26  O   UNL     1      -3.258   2.402   9.793  0.00  0.00    -0.274 OA
ATOM     27  N   UNL     1      -4.410   4.225   9.273  0.00  0.00    -0.296 N 
ATOM     28  C   UNL     1      -5.116   4.245  10.565  0.00  0.00    +0.113 C 
ATOM     29  C   UNL     1      -4.694   5.519  11.305  0.00  0.00    +0.054 C 
ATOM     30  C   UNL     1      -4.777   6.717  10.396  0.00  0.00    -0.041 A 
ATOM     31  C   UNL     1      -4.841   7.972  10.990  0.00  0.00    +0.004 A 
ATOM     32  C   UNL     1      -4.906   9.112  10.217  0.00  0.00    +0.000 A 
ATOM     33  C   UNL     1      -4.907   9.008   8.838  0.00  0.00    +0.000 A 
ATOM     34  C   UNL     1      -4.848   7.764   8.246  0.00  0.00    +0.005 A 
ATOM     35  C   UNL     1      -4.787   6.615   9.024  0.00  0.00    -0.027 A 
ATOM     36  C   UNL     1      -4.734   5.286   8.313  0.00  0.00    +0.143 C 
ENDBRANCH  23  25
ENDBRANCH  22  23
ENDBRANCH   4  22
TORSDOF 6
