REMARK  Name = ZINC08589527
REMARK  6 active torsions:
REMARK  status: ('A' for Active; 'I' for Inactive)
REMARK    1  A    between atoms: C_1  and  C_2
REMARK    2  A    between atoms: C_5  and  C_34
REMARK    3  A    between atoms: C_6  and  N_8
REMARK    4  A    between atoms: C_9  and  C_11
REMARK    5  A    between atoms: C_21  and  S_24
REMARK    6  A    between atoms: S_24  and  C_27
REMARK                            x       y       z     vdW  Elec       q    Type
REMARK                         _______ _______ _______ _____ _____    ______ ____
ROOT
ATOM      1  C   UNL     1       0.278  -2.886   4.829  0.00  0.00    +0.039 A 
ATOM      2  C   UNL     1       0.302  -4.285   4.809  0.00  0.00    +0.014 A 
ATOM      3  C   UNL     1       0.419  -4.990   5.973  0.00  0.00    +0.014 A 
ATOM      4  C   UNL     1       0.515  -4.314   7.189  0.00  0.00    +0.047 A 
ATOM      5  C   UNL     1       0.493  -2.910   7.223  0.00  0.00    +0.054 A 
ATOM      6  C   UNL     1       0.379  -2.199   6.034  0.00  0.00    +0.039 A 
ATOM      7  N   UNL     1       0.589  -2.256   8.434  0.00  0.00    -0.320 N 
ATOM      8  H   UNL     1       0.572  -1.286   8.452  0.00  0.00    +0.169 HD
ATOM      9  C   UNL     1       0.704  -2.938   9.603  0.00  0.00    +0.278 A 
ATOM     10  O   UNL     1       0.793  -2.244  10.758  0.00  0.00    -0.266 OA
ATOM     11  C   UNL     1       0.733  -4.300   9.650  0.00  0.00    +0.204 A 
ATOM     12  C   UNL     1       0.642  -5.048   8.464  0.00  0.00    +0.218 A 
ATOM     13  O   UNL     1       0.666  -6.269   8.487  0.00  0.00    -0.285 OA
ENDROOT
BRANCH   1  15
ATOM     14  N   UNL     1       0.052  -2.797   2.392  0.00  0.00    -0.281 N 
ATOM     15  C   UNL     1       0.150  -2.134   3.561  0.00  0.00    +0.248 C 
ATOM     16  O   UNL     1       0.134  -0.919   3.574  0.00  0.00    -0.270 OA
ATOM     17  H   UNL     1      -0.016  -3.765   2.387  0.00  0.00    +0.155 HD
BRANCH  14  23
ATOM     18  C   UNL     1       1.265   1.227  -0.158  0.00  0.00    +0.044 C 
ATOM     19  C   UNL     1       0.628  -0.137  -0.079  0.00  0.00    -0.049 A 
ATOM     20  C   UNL     1       0.039  -0.690  -1.201  0.00  0.00    +0.004 A 
ATOM     21  C   UNL     1      -0.546  -1.941  -1.133  0.00  0.00    +0.005 A 
ATOM     22  C   UNL     1      -0.543  -2.643   0.057  0.00  0.00    -0.029 A 
ATOM     23  C   UNL     1       0.048  -2.090   1.185  0.00  0.00    +0.037 A 
ATOM     24  C   UNL     1       0.639  -0.835   1.112  0.00  0.00    +0.027 A 
ATOM     25  C   UNL     1      -1.181  -4.006   0.130  0.00  0.00    +0.045 C 
ENDBRANCH  14  23
ENDBRANCH   1  15
BRANCH  11  26
ATOM     26  S   UNL     1       0.884  -5.123  11.201  0.00  0.00    +0.034 S 
ATOM     27  O   UNL     1       1.917  -6.086  11.050  0.00  0.00    -0.164 OA
ATOM     28  O   UNL     1       0.926  -4.109  12.196  0.00  0.00    -0.164 OA
BRANCH  26  29
ATOM     29  C   UNL     1      -0.609  -6.022  11.461  0.00  0.00    +0.094 A 
ATOM     30  C   UNL     1      -1.673  -5.422  12.109  0.00  0.00    +0.029 A 
ATOM     31  C   UNL     1      -2.844  -6.127  12.313  0.00  0.00    +0.022 A 
ATOM     32  C   UNL     1      -2.951  -7.433  11.869  0.00  0.00    +0.041 A 
ATOM     33  C   UNL     1      -1.886  -8.033  11.221  0.00  0.00    +0.022 A 
ATOM     34  C   UNL     1      -0.718  -7.325  11.012  0.00  0.00    +0.029 A 
ATOM     35 CL   UNL     1      -4.422  -8.319  12.126  0.00  0.00    -0.084 Cl
ENDBRANCH  26  29
ENDBRANCH  11  26
TORSDOF 4
