REMARK  Name = ZINC35926614
REMARK  8 active torsions:
REMARK  status: ('A' for Active; 'I' for Inactive)
REMARK    1  A    between atoms: C_1  and  C_2
REMARK    2  A    between atoms: C_2  and  C_3
REMARK    3  A    between atoms: C_2  and  C_4
REMARK    4  A    between atoms: C_2  and  C_6
REMARK    5  A    between atoms: C_20  and  C_22
REMARK    6  A    between atoms: C_22  and  N_23
REMARK    7  A    between atoms: N_26  and  C_29
REMARK    8  A    between atoms: C_29  and  C_30
REMARK                            x       y       z     vdW  Elec       q    Type
REMARK                         _______ _______ _______ _____ _____    ______ ____
ROOT
ATOM      1  C   UNL     1       1.488  -2.466  -0.095  0.00  0.00    +0.222 C 
ATOM      2  O   UNL     1       0.978  -2.187   0.969  0.00  0.00    -0.275 OA
ATOM      3  N   UNL     1       2.704  -1.976  -0.410  0.00  0.00    -0.298 N 
ATOM      4  C   UNL     1       3.381  -2.391  -1.646  0.00  0.00    +0.127 C 
ATOM      5  C   UNL     1       3.732  -1.138  -2.457  0.00  0.00    +0.127 C 
ATOM      6  N   UNL     1       4.404  -0.178  -1.570  0.00  0.00    -0.298 N 
ATOM      7  C   UNL     1       3.727   0.237  -0.333  0.00  0.00    +0.127 C 
ATOM      8  C   UNL     1       3.373  -1.012   0.475  0.00  0.00    +0.127 C 
ATOM      9  C   UNL     1       5.639   0.320  -1.889  0.00  0.00    +0.198 A 
ATOM     10  N   UNL     1       6.186   0.024  -3.099  0.00  0.00    -0.295 N 
ATOM     11  H   UNL     1       5.704  -0.536  -3.728  0.00  0.00    +0.172 HD
ATOM     12  C   UNL     1       7.403   0.512  -3.421  0.00  0.00    +0.253 A 
ATOM     13  O   UNL     1       7.909   0.256  -4.502  0.00  0.00    -0.268 OA
ATOM     14  C   UNL     1       8.076   1.320  -2.488  0.00  0.00    +0.091 A 
ATOM     15  C   UNL     1       7.477   1.583  -1.291  0.00  0.00    +0.034 A 
ATOM     16  N   UNL     1       6.274   1.083  -1.022  0.00  0.00    -0.223 NA
ENDROOT
BRANCH   1  18
ATOM     17  C   UNL     1       1.579  -4.636  -1.292  0.00  0.00    +0.022 C 
ATOM     18  C   UNL     1       0.763  -3.362  -1.066  0.00  0.00    +0.055 C 
ATOM     19  C   UNL     1       0.581  -2.630  -2.397  0.00  0.00    +0.022 C 
BRANCH  18  20
ATOM     20  C   UNL     1      -0.609  -3.729  -0.495  0.00  0.00    +0.124 C 
ATOM     21 CL   UNL     1      -1.477  -4.800  -1.657  0.00  0.00    -0.124 Cl
ENDBRANCH  18  20
ENDBRANCH   1  18
BRANCH  15  22
ATOM     22  C   UNL     1       8.177   2.447  -0.273  0.00  0.00    -0.022 C 
BRANCH  22  23
ATOM     23  N   UNL     1       7.412   3.685  -0.072  0.00  0.00    +0.385 N 
ATOM     24  C   UNL     1       7.412   4.468  -1.314  0.00  0.00    -0.063 C 
ATOM     25  C   UNL     1       6.598   5.748  -1.111  0.00  0.00    +0.066 C 
ATOM     26  N   UNL     1       7.190   6.532  -0.017  0.00  0.00    -0.302 NA
ATOM     27  C   UNL     1       7.220   5.752   1.228  0.00  0.00    +0.066 C 
ATOM     28  C   UNL     1       8.028   4.471   1.005  0.00  0.00    -0.063 C 
ATOM     29  H   UNL     1       6.462   3.455   0.181  0.00  0.00    -0.081 HD
BRANCH  26  30
ATOM     30  C   UNL     1       6.470   7.798   0.172  0.00  0.00    +0.119 C 
BRANCH  30  31
ATOM     31  C   UNL     1       7.242   8.678   1.122  0.00  0.00    -0.033 A 
ATOM     32  C   UNL     1       7.005   8.601   2.482  0.00  0.00    +0.006 A 
ATOM     33  C   UNL     1       7.713   9.407   3.353  0.00  0.00    +0.020 A 
ATOM     34  C   UNL     1       8.658  10.292   2.864  0.00  0.00    +0.041 A 
ATOM     35  C   UNL     1       8.894  10.368   1.503  0.00  0.00    +0.020 A 
ATOM     36  C   UNL     1       8.190   9.557   0.633  0.00  0.00    +0.006 A 
ATOM     37 CL   UNL     1       9.546  11.305   3.958  0.00  0.00    -0.084 Cl
ENDBRANCH  30  31
ENDBRANCH  26  30
ENDBRANCH  22  23
ENDBRANCH  15  22
TORSDOF 6
