REMARK  Name = ZINC61999520
REMARK  5 active torsions:
REMARK  status: ('A' for Active; 'I' for Inactive)
REMARK    1  A    between atoms: C_1  and  C_2
REMARK    2  A    between atoms: C_5  and  C_8
REMARK    3  A    between atoms: C_8  and  C_10
REMARK    4  A    between atoms: C_31  and  C_39
REMARK    5  A    between atoms: C_33  and  C_38
REMARK                            x       y       z     vdW  Elec       q    Type
REMARK                         _______ _______ _______ _____ _____    ______ ____
ROOT
ATOM      1  C   UNL     1       0.120  -4.913   1.328  0.00  0.00    +0.099 C 
ATOM      2  C   UNL     1       1.577  -5.027   1.811  0.00  0.00    +0.070 C 
ATOM      3  C   UNL     1       1.921  -3.861   2.748  0.00  0.00    +0.021 C 
ATOM      4  C   UNL     1       2.307  -4.527   4.089  0.00  0.00    +0.017 C 
ATOM      5  C   UNL     1       1.575  -5.888   4.021  0.00  0.00    +0.086 C 
ATOM      6  N   UNL     1       1.678  -6.290   2.576  0.00  0.00    -0.281 NA
ATOM      7  C   UNL     1       0.529  -7.139   2.223  0.00  0.00    +0.145 C 
ATOM      8  C   UNL     1      -0.342  -6.375   1.230  0.00  0.00    +0.116 C 
ATOM      9  C   UNL     1      -0.194  -6.900  -0.171  0.00  0.00    -0.008 A 
ATOM     10  C   UNL     1       0.881  -7.045  -1.019  0.00  0.00    +0.006 A 
ATOM     11  C   UNL     1       0.698  -7.573  -2.285  0.00  0.00    +0.000 A 
ATOM     12  C   UNL     1      -0.567  -7.954  -2.695  0.00  0.00    +0.002 A 
ATOM     13  C   UNL     1      -1.647  -7.811  -1.848  0.00  0.00    +0.023 A 
ATOM     14  C   UNL     1      -1.471  -7.279  -0.572  0.00  0.00    +0.038 A 
ATOM     15  N   UNL     1      -2.391  -7.037   0.451  0.00  0.00    -0.284 N 
ATOM     16  C   UNL     1      -1.808  -6.506   1.543  0.00  0.00    +0.231 C 
ATOM     17  O   UNL     1      -2.358  -6.194   2.578  0.00  0.00    -0.274 OA
ATOM     18  C   UNL     1      -0.254  -7.517   3.453  0.00  0.00    +0.005 A 
ATOM     19  C   UNL     1      -0.927  -6.783   4.404  0.00  0.00    +0.011 A 
ATOM     20  C   UNL     1      -1.569  -7.427   5.448  0.00  0.00    -0.050 A 
ATOM     21  C   UNL     1      -1.532  -8.807   5.531  0.00  0.00    +0.008 A 
ATOM     22  C   UNL     1      -0.859  -9.545   4.580  0.00  0.00    -0.029 A 
ATOM     23  C   UNL     1      -0.210  -8.905   3.527  0.00  0.00    +0.042 A 
ATOM     24  N   UNL     1       0.525  -9.421   2.458  0.00  0.00    -0.283 N 
ATOM     25  C   UNL     1       0.992  -8.454   1.648  0.00  0.00    +0.244 C 
ATOM     26  O   UNL     1       1.658  -8.610   0.646  0.00  0.00    -0.273 OA
ATOM     27  C   UNL     1      -0.825 -11.049   4.681  0.00  0.00    +0.045 C 
ATOM     28  C   UNL     1      -2.306  -6.627   6.490  0.00  0.00    +0.044 C 
ATOM     29  H   UNL     1      -3.339  -7.229   0.382  0.00  0.00    +0.155 HD
ATOM     30  H   UNL     1       0.681 -10.368   2.317  0.00  0.00    +0.155 HD
ENDROOT
BRANCH   1  31
ATOM     31  C   UNL     1       0.058  -4.245  -0.021  0.00  0.00    +0.169 C 
ATOM     32  O   UNL     1       1.038  -4.230  -0.736  0.00  0.00    -0.292 OA
BRANCH  31  37
ATOM     33  C   UNL     1      -4.823  -1.772  -1.783  0.00  0.00    +0.044 C 
ATOM     34  C   UNL     1      -3.544  -2.420  -1.321  0.00  0.00    -0.050 A 
ATOM     35  C   UNL     1      -2.465  -2.505  -2.184  0.00  0.00    +0.004 A 
ATOM     36  C   UNL     1      -1.290  -3.097  -1.769  0.00  0.00    +0.011 A 
ATOM     37  C   UNL     1      -1.191  -3.612  -0.472  0.00  0.00    +0.018 A 
ATOM     38  C   UNL     1      -2.286  -3.522   0.394  0.00  0.00    +0.011 A 
ATOM     39  C   UNL     1      -3.451  -2.922  -0.035  0.00  0.00    +0.004 A 
ENDBRANCH  31  37
ENDBRANCH   1  31
TORSDOF 2
