REMARK  Name = ZINC13564682
REMARK  10 active torsions:
REMARK  status: ('A' for Active; 'I' for Inactive)
REMARK    1  A    between atoms: C_1  and  C_2
REMARK    2  A    between atoms: C_5  and  C_8
REMARK    3  A    between atoms: C_8  and  N_57
REMARK    4  A    between atoms: C_9  and  C_10
REMARK    5  A    between atoms: C_9  and  N_57
REMARK    6  A    between atoms: C_13  and  C_28
REMARK    7  A    between atoms: N_15  and  C_21
REMARK    8  A    between atoms: C_28  and  C_29
REMARK    9  A    between atoms: C_28  and  C_30
REMARK   10  A    between atoms: C_28  and  C_31
REMARK                            x       y       z     vdW  Elec       q    Type
REMARK                         _______ _______ _______ _____ _____    ______ ____
ROOT
ATOM      1  C   UNL     1       1.144   6.000   2.880  0.00  0.00    +0.001 A 
ATOM      2  C   UNL     1       2.319   6.314   3.487  0.00  0.00    +0.020 A 
ATOM      3  C   UNL     1       2.304   6.745   4.834  0.00  0.00    +0.041 A 
ATOM      4  C   UNL     1       3.317   7.142   5.739  0.00  0.00    +0.078 A 
ATOM      5  N   UNL     1       2.755   7.441   6.876  0.00  0.00    -0.168 NA
ATOM      6  N   UNL     1       1.371   7.259   6.774  0.00  0.00    -0.216 N 
ATOM      7  C   UNL     1       1.088   6.830   5.516  0.00  0.00    +0.145 A 
ATOM      8  N   UNL     1      -0.077   6.501   4.878  0.00  0.00    -0.307 N 
ATOM      9  H   UNL     1      -0.920   6.562   5.354  0.00  0.00    +0.170 HD
ATOM     10  C   UNL     1      -0.064   6.096   3.594  0.00  0.00    +0.252 A 
ATOM     11  O   UNL     1      -1.113   5.807   3.043  0.00  0.00    -0.268 OA
ENDROOT
BRANCH   6  12
ATOM     12  C   UNL     1       0.436   7.482   7.794  0.00  0.00    +0.068 A 
ATOM     13  C   UNL     1      -0.823   7.980   7.488  0.00  0.00    +0.029 A 
ATOM     14  C   UNL     1      -1.744   8.193   8.494  0.00  0.00    +0.022 A 
ATOM     15  C   UNL     1      -1.409   7.921   9.809  0.00  0.00    +0.041 A 
ATOM     16  C   UNL     1      -0.153   7.429  10.118  0.00  0.00    +0.022 A 
ATOM     17  C   UNL     1       0.770   7.209   9.114  0.00  0.00    +0.029 A 
ATOM     18 CL   UNL     1      -2.566   8.197  11.073  0.00  0.00    -0.084 Cl
ENDBRANCH   6  12
BRANCH   4  19
ATOM     19  C   UNL     1       4.792   7.207   5.439  0.00  0.00    +0.007 C 
ATOM     20  C   UNL     1       5.036   8.186   4.289  0.00  0.00    +0.017 C 
ATOM     21  C   UNL     1       5.545   7.682   6.683  0.00  0.00    +0.017 C 
ATOM     22  C   UNL     1       5.293   5.817   5.040  0.00  0.00    +0.017 C 
ENDBRANCH   4  19
BRANCH   1  23
ATOM     23  C   UNL     1       1.137   5.543   1.444  0.00  0.00    -0.041 C 
BRANCH  23  24
ATOM     24  N   UNL     1       1.157   4.069   1.406  0.00  0.00    +0.384 N 
ATOM     25  H   UNL     1       2.004   3.729   1.876  0.00  0.00    -0.085 HD
ATOM     26  H   UNL     1       0.328   3.706   1.891  0.00  0.00    -0.085 HD
BRANCH  24  27
ATOM     27  C   UNL     1       1.151   3.592   0.010  0.00  0.00    -0.046 C 
BRANCH  27  32
ATOM     28  C   UNL     1       1.229  -2.186  -0.022  0.00  0.00    +0.044 C 
ATOM     29  C   UNL     1       1.208  -0.679  -0.014  0.00  0.00    -0.050 A 
ATOM     30  C   UNL     1       0.002  -0.004   0.002  0.00  0.00    +0.003 A 
ATOM     31  C   UNL     1      -0.017   1.378   0.010  0.00  0.00    +0.002 A 
ATOM     32  C   UNL     1       1.171   2.086   0.002  0.00  0.00    -0.064 A 
ATOM     33  C   UNL     1       2.377   1.411  -0.014  0.00  0.00    +0.002 A 
ATOM     34  C   UNL     1       2.396   0.029  -0.021  0.00  0.00    +0.003 A 
ENDBRANCH  27  32
ENDBRANCH  24  27
ENDBRANCH  23  24
ENDBRANCH   1  23
TORSDOF 6
