REMARK  Name = ZINC20883882
REMARK  12 active torsions:
REMARK  status: ('A' for Active; 'I' for Inactive)
REMARK    1  A    between atoms: C_1  and  C_2
REMARK    2  A    between atoms: C_2  and  C_3
REMARK    3  A    between atoms: C_2  and  O_4
REMARK    4  A    between atoms: O_4  and  C_5
REMARK    5  A    between atoms: C_8  and  C_11
REMARK    6  A    between atoms: C_16  and  C_26
REMARK    7  A    between atoms: C_28  and  O_36
REMARK    8  A    between atoms: C_29  and  O_34
REMARK    9  A    between atoms: C_31  and  O_32
REMARK   10  A    between atoms: O_32  and  C_33
REMARK   11  A    between atoms: O_34  and  C_35
REMARK   12  A    between atoms: O_36  and  C_37
REMARK                            x       y       z     vdW  Elec       q    Type
REMARK                         _______ _______ _______ _____ _____    ______ ____
ROOT
ATOM      1  C   UNL     1       5.158   1.799   6.979  0.00  0.00    +0.032 C 
ATOM      2  C   UNL     1       3.926   2.623   7.350  0.00  0.00    +0.059 C 
ATOM      3  C   UNL     1       2.671   1.782   7.184  0.00  0.00    +0.017 C 
ATOM      4  C   UNL     1       2.604   0.841   6.228  0.00  0.00    +0.037 C 
ATOM      5  C   UNL     1       1.415  -0.045   5.938  0.00  0.00    +0.140 C 
ATOM      6  N   UNL     1       0.381  -0.005   6.949  0.00  0.00    -0.331 N 
ATOM      7  C   UNL     1      -0.339   1.159   7.202  0.00  0.00    +0.049 A 
ATOM      8  C   UNL     1      -1.687   1.258   6.897  0.00  0.00    +0.025 A 
ATOM      9  C   UNL     1      -2.335   2.470   7.066  0.00  0.00    +0.002 A 
ATOM     10  C   UNL     1      -1.645   3.573   7.535  0.00  0.00    +0.002 A 
ATOM     11  C   UNL     1      -0.303   3.471   7.861  0.00  0.00    +0.025 A 
ATOM     12  C   UNL     1       0.342   2.256   7.709  0.00  0.00    +0.052 A 
ATOM     13  N   UNL     1       1.675   2.073   8.059  0.00  0.00    -0.316 N 
ATOM     14  C   UNL     1       3.714   0.602   5.384  0.00  0.00    +0.163 C 
ATOM     15  O   UNL     1       3.620  -0.245   4.518  0.00  0.00    -0.292 OA
ATOM     16  C   UNL     1       5.002   1.358   5.519  0.00  0.00    +0.088 C 
ATOM     17  H   UNL     1       0.150  -0.906   7.536  0.00  0.00    +0.147 HD
ATOM     18  H   UNL     1       1.898   2.181   9.130  0.00  0.00    +0.152 HD
ENDROOT
BRANCH   1  22
ATOM     19  C   UNL     1       8.677   4.186   7.403  0.00  0.00    +0.121 A 
ATOM     20  C   UNL     1       8.548   3.006   8.120  0.00  0.00    +0.046 A 
ATOM     21  C   UNL     1       7.409   2.236   7.981  0.00  0.00    +0.007 A 
ATOM     22  C   UNL     1       6.399   2.641   7.129  0.00  0.00    -0.043 A 
ATOM     23  C   UNL     1       6.527   3.815   6.409  0.00  0.00    +0.007 A 
ATOM     24  C   UNL     1       7.662   4.591   6.548  0.00  0.00    +0.046 A 
BRANCH  19  25
ATOM     25  O   UNL     1       9.796   4.946   7.538  0.00  0.00    -0.489 OA
BRANCH  25  27
ATOM     26  C   UNL     1      12.183   5.024   7.909  0.00  0.00    +0.051 C 
ATOM     27  C   UNL     1      10.849   4.412   8.343  0.00  0.00    +0.167 C 
ATOM     28  C   UNL     1      10.588   4.747   9.812  0.00  0.00    +0.051 C 
ENDBRANCH  25  27
ENDBRANCH  19  25
ENDBRANCH   1  22
BRANCH   5  29
ATOM     29  C   UNL     1       0.814   0.379   4.622  0.00  0.00    +0.023 A 
ATOM     30  C   UNL     1       1.125   1.616   4.088  0.00  0.00    +0.058 A 
ATOM     31  C   UNL     1       0.578   2.005   2.876  0.00  0.00    +0.162 A 
ATOM     32  C   UNL     1      -0.294   1.155   2.202  0.00  0.00    +0.165 A 
ATOM     33  C   UNL     1      -0.604  -0.083   2.739  0.00  0.00    +0.095 A 
ATOM     34  C   UNL     1      -0.050  -0.472   3.950  0.00  0.00    +0.129 A 
BRANCH  34  35
ATOM     35  O   UNL     1      -0.354  -1.688   4.477  0.00  0.00    -0.495 OA
ATOM     36  C   UNL     1      -1.251  -2.513   3.731  0.00  0.00    +0.277 C 
ENDBRANCH  34  35
BRANCH  32  37
ATOM     37  O   UNL     1      -0.836   1.538   1.015  0.00  0.00    -0.491 OA
ATOM     38  C   UNL     1      -1.717   0.612   0.376  0.00  0.00    +0.277 C 
ENDBRANCH  32  37
BRANCH  31  39
ATOM     39  O   UNL     1       0.888   3.220   2.348  0.00  0.00    -0.491 OA
ATOM     40  C   UNL     1       1.695   4.088   3.147  0.00  0.00    +0.277 C 
ENDBRANCH  31  39
ENDBRANCH   5  29
TORSDOF 7
