REMARK  Name = ZINC63187665
REMARK  8 active torsions:
REMARK  status: ('A' for Active; 'I' for Inactive)
REMARK    1  A    between atoms: C_1  and  C_2
REMARK    2  A    between atoms: C_5  and  C_16
REMARK    3  A    between atoms: C_6  and  C_15
REMARK    4  A    between atoms: N_7  and  C_8
REMARK    5  A    between atoms: C_16  and  C_18
REMARK    6  A    between atoms: C_18  and  N_19
REMARK    7  A    between atoms: C_22  and  C_27
REMARK    8  A    between atoms: C_27  and  C_28
REMARK                            x       y       z     vdW  Elec       q    Type
REMARK                         _______ _______ _______ _____ _____    ______ ____
ROOT
ATOM      1  N   UNL     1       3.879  -2.810  -3.438  0.00  0.00    -0.217 N 
ATOM      2  C   UNL     1       5.066  -2.275  -3.785  0.00  0.00    +0.244 C 
ATOM      3  O   UNL     1       5.396  -1.111  -3.708  0.00  0.00    -0.273 OA
ATOM      4  C   UNL     1       5.905  -3.433  -4.290  0.00  0.00    +0.165 C 
ATOM      5  N   UNL     1       5.008  -4.594  -4.156  0.00  0.00    -0.287 N 
ATOM      6  C   UNL     1       3.853  -4.131  -3.646  0.00  0.00    +0.310 C 
ATOM      7  O   UNL     1       2.891  -4.834  -3.405  0.00  0.00    -0.252 OA
ATOM      8  H   UNL     1       5.213  -5.514  -4.388  0.00  0.00    +0.151 HD
ENDROOT
BRANCH   1   9
ATOM      9  C   UNL     1       2.758  -2.040  -2.893  0.00  0.00    +0.197 C 
BRANCH   9  10
ATOM     10  C   UNL     1       2.863  -1.994  -1.390  0.00  0.00    +0.178 C 
ATOM     11  O   UNL     1       3.785  -2.551  -0.828  0.00  0.00    -0.291 OA
BRANCH  10  15
ATOM     12  C   UNL     1       0.061   1.560   0.109  0.00  0.00    +0.029 C 
ATOM     13  C   UNL     1       0.027   0.032   0.050  0.00  0.00    +0.080 C 
ATOM     14  C   UNL     1       0.766  -0.475  -1.204  0.00  0.00    +0.062 C 
ATOM     15  C   UNL     1       1.896  -1.310  -0.640  0.00  0.00    +0.015 C 
ATOM     16  C   UNL     1       1.815  -1.282   0.706  0.00  0.00    +0.015 C 
ATOM     17  N   UNL     1       0.778  -0.542   1.175  0.00  0.00    -0.300 N 
ATOM     18  C   UNL     1       2.783  -2.006   1.605  0.00  0.00    +0.061 C 
BRANCH  17  19
ATOM     19  C   UNL     1       0.471  -0.352   2.525  0.00  0.00    +0.035 A 
ATOM     20  C   UNL     1       1.335   0.368   3.341  0.00  0.00    +0.023 A 
ATOM     21  C   UNL     1       1.028   0.554   4.674  0.00  0.00    +0.003 A 
ATOM     22  C   UNL     1      -0.137   0.026   5.198  0.00  0.00    +0.020 A 
ATOM     23  C   UNL     1      -1.000  -0.692   4.389  0.00  0.00    +0.043 A 
ATOM     24  C   UNL     1      -0.702  -0.878   3.052  0.00  0.00    +0.043 A 
ATOM     25 CL   UNL     1      -2.462  -1.354   5.051  0.00  0.00    -0.083 Cl
ENDBRANCH  17  19
ENDBRANCH  10  15
ENDBRANCH   9  10
ENDBRANCH   1   9
BRANCH   4  26
ATOM     26  C   UNL     1       6.295  -3.216  -5.753  0.00  0.00    +0.065 C 
BRANCH  26  27
ATOM     27  C   UNL     1       7.227  -4.316  -6.193  0.00  0.00    -0.039 C 
ATOM     28  C   UNL     1       6.891  -5.459  -6.833  0.00  0.00    -0.001 A 
ATOM     29  C   UNL     1       5.607  -6.000  -7.294  0.00  0.00    +0.010 A 
ATOM     30  C   UNL     1       5.586  -7.199  -7.919  0.00  0.00    +0.001 A 
ATOM     31  C   UNL     1       6.758  -7.937  -8.136  0.00  0.00    +0.002 A 
ATOM     32  C   UNL     1       7.975  -7.506  -7.742  0.00  0.00    +0.026 A 
ATOM     33  C   UNL     1       8.114  -6.257  -7.075  0.00  0.00    +0.043 A 
ATOM     34  N   UNL     1       9.165  -5.632  -6.603  0.00  0.00    -0.380 N 
ATOM     35  C   UNL     1       8.728  -4.362  -6.012  0.00  0.00    +0.144 C 
ATOM     36  H   UNL     1      10.079  -5.954  -6.641  0.00  0.00    +0.160 HD
ENDBRANCH  26  27
ENDBRANCH   4  26
TORSDOF 6
