REMARK  Name = ZINC08452909
REMARK  11 active torsions:
REMARK  status: ('A' for Active; 'I' for Inactive)
REMARK    1  A    between atoms: C_1  and  C_2
REMARK    2  A    between atoms: C_5  and  C_8
REMARK    3  A    between atoms: C_8  and  S_9
REMARK    4  A    between atoms: S_9  and  C_10
REMARK    5  A    between atoms: C_23  and  C_26
REMARK    6  A    between atoms: C_30  and  C_35
REMARK    7  A    between atoms: C_32  and  C_34
REMARK    8  A    between atoms: C_35  and  C_36
REMARK    9  A    between atoms: C_36  and  C_37
REMARK   10  A    between atoms: C_38  and  C_39
REMARK   11  A    between atoms: C_38  and  C_40
REMARK                            x       y       z     vdW  Elec       q    Type
REMARK                         _______ _______ _______ _____ _____    ______ ____
ROOT
ATOM      1  C   UNL     1      -0.370   8.066  -1.454  0.00  0.00    +0.213 A 
ATOM      2  N   UNL     1      -0.305   8.917  -2.474  0.00  0.00    -0.184 NA
ATOM      3  C   UNL     1      -0.445  10.211  -2.246  0.00  0.00    +0.248 A 
ATOM      4  C   UNL     1      -0.655  10.649  -0.918  0.00  0.00    +0.156 A 
ATOM      5  N   UNL     1      -0.703   9.750   0.053  0.00  0.00    -0.141 NA
ATOM      6  N   UNL     1      -0.563   8.497  -0.214  0.00  0.00    -0.122 NA
ATOM      7  C   UNL     1      -0.819  12.091  -0.641  0.00  0.00    +0.028 A 
ATOM      8  C   UNL     1      -0.124  12.720   0.384  0.00  0.00    +0.012 A 
ATOM      9  C   UNL     1      -0.317  14.067   0.618  0.00  0.00    +0.001 A 
ATOM     10  C   UNL     1      -1.201  14.794  -0.161  0.00  0.00    +0.002 A 
ATOM     11  C   UNL     1      -1.895  14.182  -1.189  0.00  0.00    +0.023 A 
ATOM     12  C   UNL     1      -1.707  12.836  -1.441  0.00  0.00    +0.039 A 
ATOM     13  N   UNL     1      -2.372  12.192  -2.488  0.00  0.00    -0.309 N 
ATOM     14  C   UNL     1      -1.598  11.746  -3.642  0.00  0.00    +0.266 C 
ATOM     15  O   UNL     1      -0.383  11.116  -3.252  0.00  0.00    -0.453 OA
ATOM     16  H   UNL     1      -3.330  12.044  -2.448  0.00  0.00    +0.150 HD
ENDROOT
BRANCH  14  17
ATOM     17  C   UNL     1      -1.271  12.956  -4.520  0.00  0.00    +0.055 C 
ATOM     18  C   UNL     1      -2.565  13.671  -4.914  0.00  0.00    +0.036 C 
ATOM     19  C   UNL     1      -2.289  14.691  -5.979  0.00  0.00    -0.027 C 
ATOM     20  C   UNL     1      -1.216  14.711  -6.703  0.00  0.00    -0.073 C 
ATOM     21  C   UNL     1      -0.093  13.724  -6.570  0.00  0.00    +0.034 C 
ATOM     22  C   UNL     1      -0.566  12.489  -5.800  0.00  0.00    -0.002 C 
ATOM     23  C   UNL     1      -1.543  11.688  -6.662  0.00  0.00    +0.008 C 
BRANCH  20  24
ATOM     24  C   UNL     1      -1.085  15.793  -7.743  0.00  0.00    +0.034 C 
BRANCH  24  25
ATOM     25  C   UNL     1      -0.293  16.967  -7.163  0.00  0.00    +0.031 C 
BRANCH  25  26
ATOM     26  C   UNL     1      -0.163  18.049  -8.203  0.00  0.00    -0.028 C 
ATOM     27  C   UNL     1      -0.518  19.277  -7.919  0.00  0.00    -0.080 C 
ATOM     28  C   UNL     1      -0.894  19.645  -6.506  0.00  0.00    +0.038 C 
ATOM     29  C   UNL     1      -0.551  20.323  -9.004  0.00  0.00    +0.038 C 
ENDBRANCH  25  26
ENDBRANCH  24  25
ENDBRANCH  20  24
ENDBRANCH  14  17
BRANCH   1  30
ATOM     30  S   UNL     1      -0.190   6.339  -1.753  0.00  0.00    -0.080 S 
BRANCH  30  31
ATOM     31  C   UNL     1      -0.353   5.709  -0.064  0.00  0.00    +0.112 C 
BRANCH  31  36
ATOM     32  C   UNL     1       0.126  -0.050  -0.099  0.00  0.00    +0.044 C 
ATOM     33  C   UNL     1       0.001   1.452  -0.090  0.00  0.00    -0.050 A 
ATOM     34  C   UNL     1      -1.239   2.043  -0.242  0.00  0.00    +0.003 A 
ATOM     35  C   UNL     1      -1.354   3.421  -0.228  0.00  0.00    +0.005 A 
ATOM     36  C   UNL     1      -0.228   4.207  -0.073  0.00  0.00    -0.037 A 
ATOM     37  C   UNL     1       1.013   3.616   0.073  0.00  0.00    +0.005 A 
ATOM     38  C   UNL     1       1.128   2.238   0.065  0.00  0.00    +0.003 A 
ENDBRANCH  31  36
ENDBRANCH  30  31
ENDBRANCH   1  30
TORSDOF 7
