REMARK  Name = ZINC23443470
REMARK  7 active torsions:
REMARK  status: ('A' for Active; 'I' for Inactive)
REMARK    1  A    between atoms: C_1  and  N_2
REMARK    2  A    between atoms: N_2  and  C_3
REMARK    3  A    between atoms: N_2  and  C_4
REMARK    4  A    between atoms: C_7  and  C_10
REMARK    5  A    between atoms: C_14  and  C_26
REMARK    6  A    between atoms: C_29  and  O_32
REMARK    7  A    between atoms: O_32  and  C_33
REMARK                            x       y       z     vdW  Elec       q    Type
REMARK                         _______ _______ _______ _____ _____    ______ ____
ROOT
ATOM      1  C   UNL     1       0.296  -2.777  -5.040  0.00  0.00    +0.065 C 
ATOM      2  C   UNL     1       1.473  -3.750  -5.193  0.00  0.00    +0.094 C 
ATOM      3  N   UNL     1       1.185  -4.700  -6.276  0.00  0.00    -0.304 NA
ATOM      4  C   UNL     1       0.138  -5.658  -5.886  0.00  0.00    +0.131 C 
ATOM      5  C   UNL     1      -1.049  -4.884  -5.363  0.00  0.00    +0.043 A 
ATOM      6  C   UNL     1      -0.974  -3.588  -4.984  0.00  0.00    -0.009 A 
ATOM      7  C   UNL     1      -2.295  -3.194  -4.547  0.00  0.00    +0.004 A 
ATOM      8  C   UNL     1      -2.814  -1.992  -4.055  0.00  0.00    +0.010 A 
ATOM      9  C   UNL     1      -4.148  -1.979  -3.728  0.00  0.00    +0.001 A 
ATOM     10  C   UNL     1      -4.952  -3.098  -3.875  0.00  0.00    +0.002 A 
ATOM     11  C   UNL     1      -4.465  -4.299  -4.359  0.00  0.00    +0.026 A 
ATOM     12  C   UNL     1      -3.115  -4.342  -4.699  0.00  0.00    +0.047 A 
ATOM     13  N   UNL     1      -2.327  -5.342  -5.194  0.00  0.00    -0.356 N 
ATOM     14  H   UNL     1      -2.578  -6.382  -5.452  0.00  0.00    +0.166 HD
ATOM     15  H   UNL     1       0.841  -4.150  -7.165  0.00  0.00    +0.123 HD
ENDROOT
BRANCH   1  19
ATOM     16  C   UNL     1       0.737  -0.531  -1.431  0.00  0.00    +0.029 A 
ATOM     17  C   UNL     1       0.648  -1.917  -1.382  0.00  0.00    +0.023 A 
ATOM     18  C   UNL     1       0.500  -2.639  -2.550  0.00  0.00    +0.006 A 
ATOM     19  C   UNL     1       0.451  -1.985  -3.768  0.00  0.00    -0.039 A 
ATOM     20  C   UNL     1       0.545  -0.606  -3.820  0.00  0.00    +0.006 A 
ATOM     21  C   UNL     1       0.687   0.122  -2.655  0.00  0.00    +0.023 A 
BRANCH  16  23
ATOM     22  C   UNL     1       0.982   1.663  -0.305  0.00  0.00    +0.129 C 
ATOM     23  N   UNL     1       0.882   0.203  -0.251  0.00  0.00    -0.336 N 
ATOM     24  C   UNL     1       0.934  -0.488   1.040  0.00  0.00    +0.129 C 
ENDBRANCH  16  23
ENDBRANCH   1  19
BRANCH   4  25
ATOM     25  C   UNL     1       0.662  -6.571  -4.808  0.00  0.00    -0.024 A 
ATOM     26  C   UNL     1       1.995  -6.939  -4.803  0.00  0.00    +0.009 A 
ATOM     27  C   UNL     1       2.480  -7.771  -3.813  0.00  0.00    +0.046 A 
ATOM     28  C   UNL     1       1.625  -8.246  -2.828  0.00  0.00    +0.120 A 
ATOM     29  C   UNL     1       0.287  -7.880  -2.838  0.00  0.00    +0.046 A 
ATOM     30  C   UNL     1      -0.191  -7.043  -3.828  0.00  0.00    +0.009 A 
BRANCH  28  31
ATOM     31  O   UNL     1       2.098  -9.070  -1.856  0.00  0.00    -0.495 OA
ATOM     32  C   UNL     1       3.486  -9.405  -1.909  0.00  0.00    +0.277 C 
ENDBRANCH  28  31
ENDBRANCH   4  25
TORSDOF 4
