REMARK  Name = ZINC10216247
REMARK  8 active torsions:
REMARK  status: ('A' for Active; 'I' for Inactive)
REMARK    1  A    between atoms: C_1  and  C_2
REMARK    2  A    between atoms: C_2  and  C_3
REMARK    3  A    between atoms: C_3  and  C_27
REMARK    4  A    between atoms: N_6  and  C_10
REMARK    5  A    between atoms: C_10  and  C_11
REMARK    6  A    between atoms: N_13  and  C_14
REMARK    7  A    between atoms: C_14  and  C_16
REMARK    8  A    between atoms: C_14  and  C_17
REMARK                            x       y       z     vdW  Elec       q    Type
REMARK                         _______ _______ _______ _____ _____    ______ ____
ROOT
ATOM      1  C   UNL     1      -0.074   5.619   0.032  0.00  0.00    +0.138 C 
ATOM      2  C   UNL     1      -0.077   6.160  -1.385  0.00  0.00    +0.251 C 
ATOM      3  O   UNL     1      -0.922   5.979  -2.236  0.00  0.00    -0.272 OA
ATOM      4  N   UNL     1       1.053   6.884  -1.501  0.00  0.00    -0.215 N 
ATOM      5  C   UNL     1       1.763   6.876  -0.366  0.00  0.00    +0.310 C 
ATOM      6  O   UNL     1       2.820   7.459  -0.227  0.00  0.00    -0.252 OA
ATOM      7  N   UNL     1       1.175   6.151   0.603  0.00  0.00    -0.281 N 
ATOM      8  H   UNL     1       1.508   6.008   1.502  0.00  0.00    +0.152 HD
ENDROOT
BRANCH   1   9
ATOM      9  C   UNL     1      -0.054   4.112   0.024  0.00  0.00    -0.015 A 
ATOM     10  C   UNL     1       1.153   3.438   0.009  0.00  0.00    +0.009 A 
ATOM     11  C   UNL     1       1.173   2.056   0.002  0.00  0.00    +0.039 A 
ATOM     12  C   UNL     1      -0.016   1.347   0.009  0.00  0.00    +0.123 A 
ATOM     13  C   UNL     1      -1.224   2.023   0.019  0.00  0.00    +0.039 A 
ATOM     14  C   UNL     1      -1.242   3.405   0.031  0.00  0.00    +0.009 A 
ATOM     15  F   UNL     1       0.002  -0.004   0.002  0.00  0.00    -0.205 F 
ENDBRANCH   1   9
BRANCH   1  17
ATOM     16  C   UNL     1      -1.284   7.665   0.800  0.00  0.00    +0.007 C 
ATOM     17  C   UNL     1      -1.288   6.135   0.807  0.00  0.00    +0.037 C 
ENDBRANCH   1  17
BRANCH   4  18
ATOM     18  C   UNL     1       1.455   7.593  -2.718  0.00  0.00    +0.213 C 
BRANCH  18  19
ATOM     19  C   UNL     1       0.898   8.992  -2.692  0.00  0.00    +0.231 C 
ATOM     20  O   UNL     1       0.230   9.361  -1.748  0.00  0.00    -0.274 OA
ATOM     21  N   UNL     1       1.141   9.834  -3.716  0.00  0.00    -0.307 N 
ATOM     22  H   UNL     1       1.674   9.539  -4.470  0.00  0.00    +0.149 HD
BRANCH  21  23
ATOM     23  C   UNL     1       0.599  11.195  -3.690  0.00  0.00    +0.100 C 
ATOM     24  C   UNL     1       1.546  12.107  -2.908  0.00  0.00    +0.033 C 
BRANCH  23  25
ATOM     25  C   UNL     1       0.459  11.707  -5.100  0.00  0.00    -0.027 A 
ATOM     26  C   UNL     1       1.441  11.438  -6.036  0.00  0.00    +0.006 A 
ATOM     27  C   UNL     1       1.304  11.908  -7.326  0.00  0.00    +0.004 A 
ATOM     28  C   UNL     1       0.193  12.658  -7.690  0.00  0.00    -0.044 A 
ATOM     29  C   UNL     1      -0.783  12.927  -6.758  0.00  0.00    -0.044 A 
ATOM     30  C   UNL     1      -0.646  12.450  -5.461  0.00  0.00    +0.009 A 
ATOM     31  C   UNL     1      -2.018  13.726  -7.084  0.00  0.00    +0.035 C 
ATOM     32  C   UNL     1      -1.819  14.521  -8.373  0.00  0.00    +0.005 C 
ATOM     33  C   UNL     1      -1.314  13.563  -9.459  0.00  0.00    +0.005 C 
ATOM     34  C   UNL     1       0.115  13.151  -9.112  0.00  0.00    +0.035 C 
ENDBRANCH  23  25
ENDBRANCH  21  23
ENDBRANCH  18  19
ENDBRANCH   4  18
TORSDOF 6
