REMARK  Name = ZINC36817797
REMARK  10 active torsions:
REMARK  status: ('A' for Active; 'I' for Inactive)
REMARK    1  A    between atoms: C_1  and  C_2
REMARK    2  A    between atoms: C_7  and  N_8
REMARK    3  A    between atoms: C_11  and  C_16
REMARK    4  A    between atoms: C_16  and  S_17
REMARK    5  A    between atoms: S_17  and  C_18
REMARK    6  A    between atoms: C_22  and  C_26
REMARK    7  A    between atoms: C_23  and  C_25
REMARK    8  A    between atoms: N_29  and  C_30
REMARK    9  A    between atoms: C_30  and  C_31
REMARK   10  A    between atoms: C_30  and  C_32
REMARK                            x       y       z     vdW  Elec       q    Type
REMARK                         _______ _______ _______ _____ _____    ______ ____
ROOT
ATOM      1  N   UNL     1      -0.493  -1.092   2.368  0.00  0.00    -0.283 N 
ATOM      2  C   UNL     1      -0.577  -1.661   3.624  0.00  0.00    +0.224 A 
ATOM      3  N   UNL     1      -0.552  -0.889   4.708  0.00  0.00    -0.198 NA
ATOM      4  C   UNL     1      -0.631  -1.433   5.910  0.00  0.00    +0.146 A 
ATOM      5  N   UNL     1      -0.736  -2.744   6.041  0.00  0.00    -0.199 NA
ATOM      6  C   UNL     1      -0.761  -3.522   4.962  0.00  0.00    +0.217 A 
ATOM      7  N   UNL     1      -0.687  -2.979   3.751  0.00  0.00    -0.181 NA
ATOM      8  N   UNL     1      -0.870  -4.891   5.099  0.00  0.00    -0.327 N 
ATOM      9  H   UNL     1      -0.506  -0.127   2.271  0.00  0.00    +0.155 HD
ATOM     10  H   UNL     1      -0.928  -5.286   5.983  0.00  0.00    +0.145 HD
ATOM     11  H   UNL     1      -0.889  -5.457   4.312  0.00  0.00    +0.145 HD
ENDROOT
BRANCH   1  18
ATOM     12  C   UNL     1      -1.473  -0.087  -0.107  0.00  0.00    +0.045 C 
ATOM     13  C   UNL     1      -0.855  -1.456   0.009  0.00  0.00    -0.029 A 
ATOM     14  C   UNL     1      -0.745  -2.262  -1.108  0.00  0.00    +0.005 A 
ATOM     15  C   UNL     1      -0.178  -3.518  -1.003  0.00  0.00    +0.000 A 
ATOM     16  C   UNL     1       0.282  -3.973   0.219  0.00  0.00    +0.002 A 
ATOM     17  C   UNL     1       0.175  -3.173   1.340  0.00  0.00    +0.023 A 
ATOM     18  C   UNL     1      -0.389  -1.908   1.237  0.00  0.00    +0.036 A 
ENDBRANCH   1  18
BRANCH   4  19
ATOM     19  C   UNL     1      -0.603  -0.555   7.135  0.00  0.00    +0.153 C 
BRANCH  19  20
ATOM     20  S   UNL     1      -2.296  -0.072   7.572  0.00  0.00    -0.080 S 
BRANCH  20  21
ATOM     21  C   UNL     1      -2.095   0.936   9.003  0.00  0.00    +0.173 A 
ATOM     22  N   UNL     1      -0.886   1.162   9.475  0.00  0.00    -0.216 NA
ATOM     23  C   UNL     1      -0.705   1.917  10.551  0.00  0.00    +0.117 A 
ATOM     24  C   UNL     1      -1.781   2.511  11.238  0.00  0.00    +0.075 A 
ATOM     25  C   UNL     1      -1.406   3.306  12.394  0.00  0.00    -0.026 A 
ATOM     26  C   UNL     1      -0.110   3.419  12.719  0.00  0.00    -0.008 A 
ATOM     27  S   UNL     1       0.716   2.447  11.474  0.00  0.00    -0.073 S 
ATOM     28  C   UNL     1       0.502   4.184  13.864  0.00  0.00    +0.052 C 
ATOM     29  C   UNL     1      -2.462   3.998  13.218  0.00  0.00    +0.045 C 
ATOM     30  C   UNL     1      -3.081   2.247  10.703  0.00  0.00    +0.263 A 
ATOM     31  O   UNL     1      -4.073   2.719  11.231  0.00  0.00    -0.267 OA
ATOM     32  N   UNL     1      -3.194   1.478   9.605  0.00  0.00    -0.285 N 
BRANCH  32  33
ATOM     33  C   UNL     1      -4.523   1.210   9.049  0.00  0.00    +0.087 C 
ATOM     34  C   UNL     1      -5.357   0.434  10.070  0.00  0.00    +0.031 C 
ATOM     35  C   UNL     1      -5.217   2.535   8.725  0.00  0.00    +0.031 C 
ENDBRANCH  32  33
ENDBRANCH  20  21
ENDBRANCH  19  20
ENDBRANCH   4  19
TORSDOF 5
