REMARK  Name = ZINC39488280
REMARK  8 active torsions:
REMARK  status: ('A' for Active; 'I' for Inactive)
REMARK    1  A    between atoms: C_1  and  C_2
REMARK    2  A    between atoms: C_2  and  C_31
REMARK    3  A    between atoms: N_7  and  C_8
REMARK    4  A    between atoms: C_8  and  C_9
REMARK    5  A    between atoms: C_9  and  C_24
REMARK    6  A    between atoms: N_12  and  S_15
REMARK    7  A    between atoms: S_15  and  C_18
REMARK    8  A    between atoms: C_36  and  O_37
REMARK                            x       y       z     vdW  Elec       q    Type
REMARK                         _______ _______ _______ _____ _____    ______ ____
ROOT
ATOM      1  C   UNL     1      -1.173  -1.448   2.548  0.00  0.00    -0.008 C 
ATOM      2  C   UNL     1      -0.353  -2.704   2.245  0.00  0.00    +0.026 C 
ATOM      3  C   UNL     1       0.052  -2.701   0.768  0.00  0.00    +0.110 C 
ATOM      4  N   UNL     1      -1.158  -2.558  -0.053  0.00  0.00    -0.177 NA
ATOM      5  C   UNL     1      -2.065  -1.434   0.215  0.00  0.00    +0.110 C 
ATOM      6  C   UNL     1      -2.446  -1.451   1.699  0.00  0.00    +0.026 C 
ENDROOT
BRANCH   1   7
ATOM      7  C   UNL     1      -1.549  -1.430   4.031  0.00  0.00    -0.003 C 
ATOM      8  C   UNL     1      -0.301  -1.688   4.877  0.00  0.00    +0.004 C 
ATOM      9  C   UNL     1      -0.678  -1.670   6.360  0.00  0.00    +0.000 C 
ATOM     10  C   UNL     1      -1.715  -2.760   6.636  0.00  0.00    +0.000 C 
ATOM     11  C   UNL     1      -2.963  -2.503   5.789  0.00  0.00    +0.000 C 
ATOM     12  C   UNL     1      -2.587  -2.520   4.307  0.00  0.00    +0.004 C 
ENDBRANCH   1   7
BRANCH   4  13
ATOM     13  S   UNL     1      -1.493  -3.643  -1.259  0.00  0.00    +0.061 S 
ATOM     14  O   UNL     1      -2.338  -2.974  -2.185  0.00  0.00    -0.153 OA
ATOM     15  O   UNL     1      -0.252  -4.222  -1.640  0.00  0.00    -0.153 OA
BRANCH  13  16
ATOM     16  C   UNL     1      -2.453  -4.936  -0.544  0.00  0.00    +0.105 A 
ATOM     17  C   UNL     1      -1.827  -6.040   0.003  0.00  0.00    +0.028 A 
ATOM     18  C   UNL     1      -2.581  -7.055   0.564  0.00  0.00    +0.002 A 
ATOM     19  C   UNL     1      -3.960  -6.964   0.578  0.00  0.00    +0.000 A 
ATOM     20  C   UNL     1      -4.586  -5.859   0.031  0.00  0.00    +0.002 A 
ATOM     21  C   UNL     1      -3.832  -4.843  -0.526  0.00  0.00    +0.028 A 
ENDBRANCH  13  16
ENDBRANCH   4  13
BRANCH   1  22
ATOM     22  C   UNL     1      -0.343  -0.205   2.218  0.00  0.00    +0.117 C 
BRANCH  22  29
ATOM     23  C   UNL     1      -2.912   1.337   1.206  0.00  0.00    +0.039 C 
ATOM     24  C   UNL     1      -1.734   1.984   1.938  0.00  0.00    +0.083 C 
ATOM     25  C   UNL     1      -2.237   3.004   2.978  0.00  0.00    +0.177 C 
ATOM     26  N   UNL     1      -1.749   2.472   4.259  0.00  0.00    -0.120 N 
ATOM     27  C   UNL     1      -1.073   1.337   4.035  0.00  0.00    +0.333 C 
ATOM     28  O   UNL     1      -0.559   0.685   4.923  0.00  0.00    -0.250 OA
ATOM     29  N   UNL     1      -1.015   0.985   2.744  0.00  0.00    -0.272 N 
ATOM     30  F   UNL     1      -1.942   3.017   5.423  0.00  0.00    -0.105 F 
BRANCH  24  31
ATOM     31  C   UNL     1      -0.800   2.642   0.956  0.00  0.00    +0.019 A 
ATOM     32  C   UNL     1       0.542   2.312   0.950  0.00  0.00    +0.009 A 
ATOM     33  C   UNL     1       1.399   2.916   0.049  0.00  0.00    +0.001 A 
ATOM     34  C   UNL     1       0.917   3.851  -0.849  0.00  0.00    +0.004 A 
ATOM     35  C   UNL     1      -0.424   4.184  -0.847  0.00  0.00    +0.046 A 
ATOM     36  C   UNL     1      -1.287   3.575   0.053  0.00  0.00    +0.122 A 
BRANCH  36  37
ATOM     37  O   UNL     1      -2.608   3.897   0.053  0.00  0.00    -0.506 OA
ATOM     38  H   UNL     1      -2.833   4.635   0.635  0.00  0.00    +0.292 HD
ENDBRANCH  36  37
ENDBRANCH  24  31
ENDBRANCH  22  29
ENDBRANCH   1  22
TORSDOF 7
