REMARK  Name = ZINC08472756
REMARK  11 active torsions:
REMARK  status: ('A' for Active; 'I' for Inactive)
REMARK    1  A    between atoms: C_1  and  C_2
REMARK    2  A    between atoms: C_5  and  N_8
REMARK    3  A    between atoms: C_9  and  C_11
REMARK    4  A    between atoms: C_11  and  N_12
REMARK    5  A    between atoms: N_12  and  C_13
REMARK    6  A    between atoms: N_12  and  C_14
REMARK    7  A    between atoms: C_14  and  C_16
REMARK    8  A    between atoms: C_14  and  C_17
REMARK    9  A    between atoms: N_19  and  C_20
REMARK   10  A    between atoms: C_25  and  O_26
REMARK   11  A    between atoms: O_26  and  C_27
REMARK                            x       y       z     vdW  Elec       q    Type
REMARK                         _______ _______ _______ _____ _____    ______ ____
ROOT
ATOM      1  C   UNL     1       0.606  -8.328   2.399  0.00  0.00    +0.017 C 
ATOM      2  C   UNL     1       0.414  -8.027   3.886  0.00  0.00    -0.004 C 
ENDROOT
BRANCH   1   3
ATOM      3  C   UNL     1      -0.658  -8.931   1.841  0.00  0.00    +0.203 C 
ATOM      4  O   UNL     1      -1.489  -8.219   1.317  0.00  0.00    -0.277 OA
ATOM      5  N   UNL     1      -0.866 -10.260   1.926  0.00  0.00    -0.284 N 
ATOM      6  H   UNL     1      -0.233 -10.820   2.402  0.00  0.00    +0.155 HD
BRANCH   5   7
ATOM      7  C   UNL     1      -1.996 -10.832   1.327  0.00  0.00    +0.076 A 
ATOM      8  C   UNL     1      -3.170 -10.101   1.216  0.00  0.00    +0.027 A 
ATOM      9  C   UNL     1      -4.283 -10.668   0.624  0.00  0.00    +0.002 A 
ATOM     10  C   UNL     1      -4.230 -11.963   0.141  0.00  0.00    +0.004 A 
ATOM     11  C   UNL     1      -3.063 -12.697   0.248  0.00  0.00    +0.048 A 
ATOM     12  C   UNL     1      -1.941 -12.134   0.835  0.00  0.00    +0.148 A 
BRANCH  12  13
ATOM     13  O   UNL     1      -0.792 -12.853   0.936  0.00  0.00    -0.432 OA
BRANCH  13  14
ATOM     14  C   UNL     1      -0.809 -14.182   0.410  0.00  0.00    +0.541 C 
ATOM     15  F   UNL     1      -1.782 -14.934   1.076  0.00  0.00    -0.166 F 
ATOM     16  F   UNL     1      -1.107 -14.139  -0.956  0.00  0.00    -0.166 F 
ENDBRANCH  13  14
ENDBRANCH  12  13
ENDBRANCH   5   7
ENDBRANCH   1   3
BRANCH   1  17
ATOM     17  N   UNL     1       0.912  -7.083   1.682  0.00  0.00    +0.391 N 
ATOM     18  C   UNL     1       2.079  -6.438   2.298  0.00  0.00    -0.094 C 
ATOM     19  H   UNL     1       0.118  -6.462   1.733  0.00  0.00    -0.080 HD
BRANCH  17  20
ATOM     20  C   UNL     1       1.206  -7.388   0.276  0.00  0.00    +0.020 C 
BRANCH  20  22
ATOM     21  N   UNL     1       1.654  -6.135  -1.810  0.00  0.00    -0.287 N 
ATOM     22  C   UNL     1       1.377  -6.102  -0.492  0.00  0.00    +0.201 C 
ATOM     23  O   UNL     1       1.263  -5.036   0.077  0.00  0.00    -0.278 OA
ATOM     24  H   UNL     1       1.676  -6.984  -2.280  0.00  0.00    +0.155 HD
BRANCH  21  29
ATOM     25  C   UNL     1       2.697  -1.314  -4.612  0.00  0.00    +0.044 C 
ATOM     26  C   UNL     1       2.420  -2.595  -3.868  0.00  0.00    -0.050 A 
ATOM     27  C   UNL     1       1.477  -2.615  -2.856  0.00  0.00    +0.005 A 
ATOM     28  C   UNL     1       1.221  -3.787  -2.172  0.00  0.00    +0.023 A 
ATOM     29  C   UNL     1       1.911  -4.946  -2.502  0.00  0.00    +0.033 A 
ATOM     30  C   UNL     1       2.857  -4.923  -3.518  0.00  0.00    +0.023 A 
ATOM     31  C   UNL     1       3.105  -3.748  -4.202  0.00  0.00    +0.005 A 
ENDBRANCH  21  29
ENDBRANCH  20  22
ENDBRANCH  17  20
ENDBRANCH   1  17
TORSDOF 8
