REMARK  Name = ZINC15972061
REMARK  7 active torsions:
REMARK  status: ('A' for Active; 'I' for Inactive)
REMARK    1  A    between atoms: C_1  and  C_2
REMARK    2  A    between atoms: C_2  and  C_3
REMARK    3  A    between atoms: C_2  and  C_4
REMARK    4  A    between atoms: C_2  and  N_5
REMARK    5  A    between atoms: C_25  and  C_27
REMARK    6  A    between atoms: C_27  and  C_29
REMARK    7  A    between atoms: C_27  and  O_36
REMARK                            x       y       z     vdW  Elec       q    Type
REMARK                         _______ _______ _______ _____ _____    ______ ____
ROOT
ATOM      1  N   UNL     1       0.688  -0.476  -1.203  0.00  0.00    -0.236 N 
ATOM      2  C   UNL     1       0.091  -1.247  -2.120  0.00  0.00    +0.228 C 
ATOM      3  O   UNL     1      -1.055  -1.639  -2.067  0.00  0.00    -0.275 OA
ATOM      4  C   UNL     1       1.068  -1.551  -3.233  0.00  0.00    +0.110 C 
ATOM      5  C   UNL     1       2.363  -0.817  -2.785  0.00  0.00    +0.123 C 
ATOM      6  C   UNL     1       1.960  -0.168  -1.480  0.00  0.00    +0.229 C 
ATOM      7  O   UNL     1       2.679   0.521  -0.789  0.00  0.00    -0.275 OA
ATOM      8  C   UNL     1       3.375  -1.942  -2.532  0.00  0.00    +0.136 C 
ATOM      9  C   UNL     1       4.291  -2.133  -3.708  0.00  0.00    +0.003 A 
ATOM     10  C   UNL     1       4.080  -2.448  -5.032  0.00  0.00    +0.008 A 
ATOM     11  C   UNL     1       5.155  -2.557  -5.896  0.00  0.00    +0.000 A 
ATOM     12  C   UNL     1       6.439  -2.348  -5.428  0.00  0.00    +0.002 A 
ATOM     13  C   UNL     1       6.655  -2.033  -4.103  0.00  0.00    +0.023 A 
ATOM     14  C   UNL     1       5.579  -1.923  -3.225  0.00  0.00    +0.039 A 
ATOM     15  N   UNL     1       5.540  -1.622  -1.861  0.00  0.00    -0.283 N 
ATOM     16  C   UNL     1       4.283  -1.615  -1.378  0.00  0.00    +0.243 C 
ATOM     17  O   UNL     1       3.948  -1.388  -0.235  0.00  0.00    -0.273 OA
ATOM     18  N   UNL     1       2.576  -3.152  -2.266  0.00  0.00    -0.293 NA
ATOM     19  C   UNL     1       1.417  -3.054  -3.208  0.00  0.00    +0.101 C 
ATOM     20  H   UNL     1       6.327  -1.440  -1.325  0.00  0.00    +0.155 HD
ATOM     21  H   UNL     1       3.116  -3.987  -2.438  0.00  0.00    +0.124 HD
ENDROOT
BRANCH   1  23
ATOM     22  C   UNL     1      -0.019   1.526   0.010  0.00  0.00    +0.031 C 
ATOM     23  C   UNL     1       0.002  -0.004   0.002  0.00  0.00    +0.036 C 
ATOM     24  C   UNL     1       0.742  -0.511   1.242  0.00  0.00    +0.031 C 
ATOM     25  C   UNL     1      -1.433  -0.534   0.013  0.00  0.00    +0.031 C 
ENDBRANCH   1  23
BRANCH  19  26
ATOM     26  C   UNL     1       0.221  -3.871  -2.716  0.00  0.00    +0.162 C 
BRANCH  26  27
ATOM     27  C   UNL     1       0.583  -5.333  -2.699  0.00  0.00    -0.018 A 
ATOM     28  C   UNL     1       0.561  -6.064  -3.873  0.00  0.00    +0.007 A 
ATOM     29  C   UNL     1       0.893  -7.405  -3.859  0.00  0.00    +0.020 A 
ATOM     30  C   UNL     1       1.248  -8.017  -2.670  0.00  0.00    +0.041 A 
ATOM     31  C   UNL     1       1.270  -7.286  -1.495  0.00  0.00    +0.020 A 
ATOM     32  C   UNL     1       0.943  -5.943  -1.512  0.00  0.00    +0.007 A 
ATOM     33 CL   UNL     1       1.665  -9.702  -2.651  0.00  0.00    -0.084 Cl
ENDBRANCH  26  27
BRANCH  26  34
ATOM     34  O   UNL     1      -0.889  -3.665  -3.591  0.00  0.00    -0.386 OA
ATOM     35  H   UNL     1      -0.722  -3.928  -4.507  0.00  0.00    +0.210 HD
ENDBRANCH  26  34
ENDBRANCH  19  26
TORSDOF 4
