REMARK  Name = ZINC04532852
REMARK  4 active torsions:
REMARK  status: ('A' for Active; 'I' for Inactive)
REMARK    1  A    between atoms: C_1  and  C_2
REMARK    2  A    between atoms: C_4  and  N_20
REMARK    3  A    between atoms: C_9  and  C_19
REMARK    4  A    between atoms: C_11  and  N_18
REMARK                            x       y       z     vdW  Elec       q    Type
REMARK                         _______ _______ _______ _____ _____    ______ ____
ROOT
ATOM      1  C   UNL     1       2.475   4.227   0.003  0.00  0.00    +0.044 C 
ATOM      2  C   UNL     1       1.162   3.487  -0.027  0.00  0.00    -0.041 A 
ATOM      3  C   UNL     1       1.175   2.106   0.002  0.00  0.00    +0.026 A 
ATOM      4  C   UNL     1      -0.017   1.392   0.010  0.00  0.00    +0.025 A 
ATOM      5  C   UNL     1      -1.231   2.071   0.045  0.00  0.00    +0.027 A 
ATOM      6  C   UNL     1      -1.245   3.444   0.029  0.00  0.00    -0.031 A 
ATOM      7  C   UNL     1      -0.048   4.169  -0.057  0.00  0.00    -0.011 A 
ATOM      8  C   UNL     1      -0.127   5.643  -0.155  0.00  0.00    -0.011 A 
ATOM      9  C   UNL     1       0.303   6.340  -1.279  0.00  0.00    -0.041 A 
ATOM     10  C   UNL     1       0.277   7.721  -1.286  0.00  0.00    +0.026 A 
ATOM     11  C   UNL     1      -0.223   8.419  -0.194  0.00  0.00    +0.025 A 
ATOM     12  C   UNL     1      -0.745   7.724   0.892  0.00  0.00    +0.027 A 
ATOM     13  C   UNL     1      -0.720   6.351   0.898  0.00  0.00    -0.031 A 
ATOM     14  C   UNL     1      -1.381   5.570   2.010  0.00  0.00    +0.110 C 
ATOM     15  C   UNL     1      -2.613   4.896   1.452  0.00  0.00    +0.142 C 
ATOM     16  O   UNL     1      -3.646   4.905   2.077  0.00  0.00    -0.297 OA
ATOM     17  C   UNL     1      -2.546   4.208   0.107  0.00  0.00    +0.110 C 
ATOM     18  C   UNL     1       0.757   5.613  -2.520  0.00  0.00    +0.044 C 
ENDROOT
BRANCH  11  19
ATOM     19  N   UNL     1      -0.217   9.815  -0.193  0.00  0.00    -0.358 N 
ATOM     20  H   UNL     1       0.137  10.300  -0.955  0.00  0.00    +0.142 HD
ATOM     21  H   UNL     1      -0.567  10.301   0.571  0.00  0.00    +0.142 HD
ENDBRANCH  11  19
BRANCH   4  22
ATOM     22  N   UNL     1       0.002  -0.004   0.002  0.00  0.00    -0.358 N 
ATOM     23  H   UNL     1       0.849  -0.478  -0.009  0.00  0.00    +0.142 HD
ATOM     24  H   UNL     1      -0.831  -0.500   0.007  0.00  0.00    +0.142 HD
ENDBRANCH   4  22
TORSDOF 2
