REMARK  Name = ZINC41586633
REMARK  8 active torsions:
REMARK  status: ('A' for Active; 'I' for Inactive)
REMARK    1  A    between atoms: C_1  and  C_2
REMARK    2  A    between atoms: C_2  and  O_3
REMARK    3  A    between atoms: O_3  and  C_4
REMARK    4  A    between atoms: C_4  and  C_6
REMARK    5  A    between atoms: N_11  and  C_13
REMARK    6  A    between atoms: C_13  and  C_14
REMARK    7  A    between atoms: C_15  and  O_32
REMARK    8  A    between atoms: C_22  and  C_25
REMARK                            x       y       z     vdW  Elec       q    Type
REMARK                         _______ _______ _______ _____ _____    ______ ____
ROOT
ATOM      1  C   UNL     1      -5.410  -6.590  -0.182  0.00  0.00    +0.020 A 
ATOM      2  C   UNL     1      -6.121  -6.931   0.956  0.00  0.00    +0.122 A 
ATOM      3  C   UNL     1      -7.398  -7.478   0.859  0.00  0.00    +0.046 A 
ATOM      4  C   UNL     1      -7.969  -7.682  -0.366  0.00  0.00    +0.019 A 
ATOM      5  C   UNL     1      -7.266  -7.341  -1.520  0.00  0.00    +0.065 A 
ATOM      6  C   UNL     1      -5.975  -6.790  -1.435  0.00  0.00    +0.143 A 
ATOM      7  O   UNL     1      -5.295  -6.471  -2.553  0.00  0.00    -0.462 OA
ATOM      8  C   UNL     1      -5.899  -6.370  -3.738  0.00  0.00    +0.208 A 
ATOM      9  C   UNL     1      -7.143  -6.866  -3.974  0.00  0.00    +0.064 A 
ATOM     10  C   UNL     1      -7.848  -7.537  -2.862  0.00  0.00    +0.200 A 
ATOM     11  O   UNL     1      -8.854  -8.200  -3.040  0.00  0.00    -0.286 OA
ENDROOT
BRANCH   9  12
ATOM     12  C   UNL     1      -7.770  -6.746  -5.313  0.00  0.00    -0.011 A 
ATOM     13  C   UNL     1      -8.914  -5.968  -5.482  0.00  0.00    +0.010 A 
ATOM     14  C   UNL     1      -9.493  -5.859  -6.729  0.00  0.00    +0.016 A 
ATOM     15  C   UNL     1      -8.940  -6.520  -7.812  0.00  0.00    +0.018 A 
ATOM     16  C   UNL     1      -7.804  -7.295  -7.650  0.00  0.00    +0.016 A 
ATOM     17  C   UNL     1      -7.214  -7.406  -6.407  0.00  0.00    +0.010 A 
ATOM     18 BR   UNL     1      -9.739  -6.366  -9.519  0.00  0.00    -0.050 Br
ENDBRANCH   9  12
BRANCH   2  19
ATOM     19  O   UNL     1      -5.567  -6.730   2.180  0.00  0.00    -0.506 OA
ATOM     20  H   UNL     1      -5.756  -5.861   2.559  0.00  0.00    +0.292 HD
ENDBRANCH   2  19
BRANCH   1  21
ATOM     21  C   UNL     1      -4.029  -5.999  -0.061  0.00  0.00    -0.036 C 
BRANCH  21  26
ATOM     22  C   UNL     1      -2.881  -2.427   0.017  0.00  0.00    +0.081 C 
ATOM     23  C   UNL     1      -3.623  -1.974   1.277  0.00  0.00    +0.011 C 
ATOM     24  C   UNL     1      -4.999  -2.646   1.317  0.00  0.00    -0.018 C 
ATOM     25  C   UNL     1      -4.820  -4.164   1.263  0.00  0.00    -0.078 C 
ATOM     26  N   UNL     1      -4.128  -4.536   0.023  0.00  0.00    +0.383 N 
ATOM     27  C   UNL     1      -2.781  -3.954   0.010  0.00  0.00    -0.064 C 
ATOM     28  H   UNL     1      -4.650  -4.190  -0.768  0.00  0.00    -0.081 HD
BRANCH  22  29
ATOM     29  C   UNL     1      -1.496  -1.832   0.006  0.00  0.00    +0.308 C 
ATOM     30  O   UNL     1      -0.528  -2.555  -0.007  0.00  0.00    -0.251 OA
BRANCH  29  31
ATOM     31  O   UNL     1      -1.339  -0.499   0.012  0.00  0.00    -0.465 OA
BRANCH  31  33
ATOM     32  C   UNL     1      -0.019   1.526   0.010  0.00  0.00    +0.048 C 
ATOM     33  C   UNL     1       0.002  -0.004   0.002  0.00  0.00    +0.229 C 
ENDBRANCH  31  33
ENDBRANCH  29  31
ENDBRANCH  22  29
ENDBRANCH  21  26
ENDBRANCH   1  21
TORSDOF 7
