REMARK  Name = ZINC39943910
REMARK  7 active torsions:
REMARK  status: ('A' for Active; 'I' for Inactive)
REMARK    1  A    between atoms: C_1  and  C_2
REMARK    2  A    between atoms: C_7  and  C_18
REMARK    3  A    between atoms: N_11  and  C_12
REMARK    4  A    between atoms: C_18  and  O_20
REMARK    5  A    between atoms: O_20  and  C_21
REMARK    6  A    between atoms: C_21  and  C_22
REMARK    7  A    between atoms: C_22  and  C_24
REMARK                            x       y       z     vdW  Elec       q    Type
REMARK                         _______ _______ _______ _____ _____    ______ ____
ROOT
ATOM      1  C   UNL     1      -0.038   1.551   0.066  0.00  0.00    +0.050 C 
ATOM      2  C   UNL     1      -0.007   0.022   0.019  0.00  0.00    +0.160 C 
ATOM      3  N   UNL     1      -1.372  -0.515   0.081  0.00  0.00    -0.324 N 
ATOM      4  C   UNL     1      -1.454  -1.307   1.235  0.00  0.00    +0.051 A 
ATOM      5  C   UNL     1      -2.514  -2.033   1.752  0.00  0.00    +0.039 A 
ATOM      6  C   UNL     1      -2.353  -2.758   2.936  0.00  0.00    +0.061 A 
ATOM      7  C   UNL     1      -1.121  -2.747   3.596  0.00  0.00    +0.017 A 
ATOM      8  C   UNL     1      -0.070  -2.025   3.079  0.00  0.00    +0.026 A 
ATOM      9  C   UNL     1      -0.226  -1.300   1.898  0.00  0.00    +0.057 A 
ATOM     10  N   UNL     1       0.686  -0.508   1.198  0.00  0.00    -0.280 N 
ATOM     11  H   UNL     1      -2.084  -0.351  -0.556  0.00  0.00    +0.148 HD
ENDROOT
BRANCH  10  12
ATOM     12  C   UNL     1       2.015  -0.263   1.555  0.00  0.00    +0.036 A 
ATOM     13  C   UNL     1       2.305   0.459   2.705  0.00  0.00    +0.023 A 
ATOM     14  C   UNL     1       3.620   0.698   3.055  0.00  0.00    +0.002 A 
ATOM     15  C   UNL     1       4.646   0.220   2.261  0.00  0.00    +0.000 A 
ATOM     16  C   UNL     1       4.361  -0.499   1.115  0.00  0.00    +0.002 A 
ATOM     17  C   UNL     1       3.049  -0.747   0.762  0.00  0.00    +0.023 A 
ENDBRANCH  10  12
BRANCH   6  18
ATOM     18  C   UNL     1      -3.480  -3.530   3.488  0.00  0.00    +0.340 C 
ATOM     19  O   UNL     1      -4.551  -3.538   2.913  0.00  0.00    -0.245 OA
BRANCH  18  20
ATOM     20  O   UNL     1      -3.324  -4.228   4.631  0.00  0.00    -0.453 OA
BRANCH  20  21
ATOM     21  C   UNL     1      -4.458  -4.954   5.108  0.00  0.00    +0.311 C 
BRANCH  21  22
ATOM     22  C   UNL     1      -4.097  -5.667   6.386  0.00  0.00    +0.199 C 
ATOM     23  O   UNL     1      -2.976  -5.564   6.843  0.00  0.00    -0.289 OA
BRANCH  22  24
ATOM     24  C   UNL     1      -5.060  -6.455   7.050  0.00  0.00    +0.026 C 
ATOM     25  C   UNL     1      -4.893  -7.165   8.226  0.00  0.00    +0.006 A 
ATOM     26  C   UNL     1      -3.793  -7.335   9.100  0.00  0.00    +0.010 A 
ATOM     27  C   UNL     1      -3.914  -8.104  10.205  0.00  0.00    +0.001 A 
ATOM     28  C   UNL     1      -5.109  -8.760  10.540  0.00  0.00    +0.002 A 
ATOM     29  C   UNL     1      -6.217  -8.663   9.774  0.00  0.00    +0.026 A 
ATOM     30  C   UNL     1      -6.172  -7.844   8.551  0.00  0.00    +0.043 A 
ATOM     31  N   UNL     1      -7.071  -7.581   7.647  0.00  0.00    -0.380 N 
ATOM     32  C   UNL     1      -6.493  -6.696   6.630  0.00  0.00    +0.152 C 
ATOM     33  H   UNL     1      -7.982  -7.914   7.648  0.00  0.00    +0.160 HD
ENDBRANCH  22  24
ENDBRANCH  21  22
ENDBRANCH  20  21
ENDBRANCH  18  20
ENDBRANCH   6  18
TORSDOF 6
