REMARK  Name = ZINC38722757
REMARK  9 active torsions:
REMARK  status: ('A' for Active; 'I' for Inactive)
REMARK    1  A    between atoms: C_1  and  C_2
REMARK    2  A    between atoms: C_4  and  C_12
REMARK    3  A    between atoms: C_12  and  C_14
REMARK    4  A    between atoms: C_14  and  C_16
REMARK    5  A    between atoms: C_14  and  S_17
REMARK    6  A    between atoms: S_17  and  C_18
REMARK    7  A    between atoms: C_22  and  C_30
REMARK    8  A    between atoms: N_23  and  C_24
REMARK    9  A    between atoms: C_30  and  N_31
REMARK                            x       y       z     vdW  Elec       q    Type
REMARK                         _______ _______ _______ _____ _____    ______ ____
ROOT
ATOM      1  C   UNL     1       1.533  -1.565  -6.399  0.00  0.00    +0.241 C 
ATOM      2  N   UNL     1       1.970  -2.871  -5.877  0.00  0.00    -0.237 N 
ATOM      3  N   UNL     1       3.361  -2.788  -5.737  0.00  0.00    -0.172 NA
ATOM      4  C   UNL     1       3.804  -1.639  -6.095  0.00  0.00    +0.136 C 
ATOM      5  N   UNL     1       2.784  -0.797  -6.523  0.00  0.00    -0.257 N 
ATOM      6  H   UNL     1       1.408  -3.635  -5.671  0.00  0.00    +0.171 HD
ENDROOT
BRANCH   5   7
ATOM      7  C   UNL     1       2.917   0.516  -6.981  0.00  0.00    +0.038 A 
ATOM      8  C   UNL     1       4.152   1.151  -6.924  0.00  0.00    +0.023 A 
ATOM      9  C   UNL     1       4.280   2.449  -7.378  0.00  0.00    +0.002 A 
ATOM     10  C   UNL     1       3.181   3.116  -7.888  0.00  0.00    +0.000 A 
ATOM     11  C   UNL     1       1.951   2.487  -7.946  0.00  0.00    +0.002 A 
ATOM     12  C   UNL     1       1.817   1.188  -7.498  0.00  0.00    +0.023 A 
ENDBRANCH   5   7
BRANCH   1  13
ATOM     13  S   UNL     1       0.404  -0.757  -5.231  0.00  0.00    -0.107 S 
BRANCH  13  14
ATOM     14  C   UNL     1       1.354  -0.674  -3.688  0.00  0.00    +0.117 C 
ATOM     15  C   UNL     1       2.562   0.245  -3.882  0.00  0.00    +0.027 C 
BRANCH  14  16
ATOM     16  C   UNL     1       0.480  -0.128  -2.588  0.00  0.00    +0.174 C 
ATOM     17  O   UNL     1      -0.487   0.554  -2.863  0.00  0.00    -0.291 OA
BRANCH  16  20
ATOM     18  C   UNL     1      -0.203   1.462   0.082  0.00  0.00    +0.035 C 
ATOM     19  C   UNL     1      -0.042  -0.056  -0.022  0.00  0.00    +0.111 C 
ATOM     20  C   UNL     1       0.784  -0.410  -1.240  0.00  0.00    +0.027 C 
ATOM     21  C   UNL     1       1.899  -1.068  -0.753  0.00  0.00    +0.006 A 
ATOM     22  C   UNL     1       3.030  -1.641  -1.383  0.00  0.00    +0.010 A 
ATOM     23  C   UNL     1       3.992  -2.236  -0.645  0.00  0.00    +0.001 A 
ATOM     24  C   UNL     1       3.926  -2.318   0.756  0.00  0.00    +0.002 A 
ATOM     25  C   UNL     1       2.891  -1.803   1.453  0.00  0.00    +0.026 A 
ATOM     26  C   UNL     1       1.798  -1.137   0.725  0.00  0.00    +0.043 A 
ATOM     27  N   UNL     1       0.700  -0.565   1.135  0.00  0.00    -0.377 N 
ATOM     28  H   UNL     1       0.418  -0.488   2.061  0.00  0.00    +0.160 HD
ENDBRANCH  16  20
ENDBRANCH  14  16
ENDBRANCH  13  14
ENDBRANCH   1  13
BRANCH   4  29
ATOM     29  C   UNL     1       5.259  -1.248  -6.056  0.00  0.00    +0.158 C 
BRANCH  29  30
ATOM     30  N   UNL     1       6.071  -2.418  -5.696  0.00  0.00    -0.295 NA
ATOM     31  C   UNL     1       6.140  -3.385  -6.821  0.00  0.00    +0.085 C 
ATOM     32  C   UNL     1       7.396  -4.228  -6.487  0.00  0.00    +0.017 C 
ATOM     33  C   UNL     1       8.367  -3.181  -5.894  0.00  0.00    +0.017 C 
ATOM     34  C   UNL     1       7.470  -2.026  -5.415  0.00  0.00    +0.085 C 
ENDBRANCH  29  30
ENDBRANCH   4  29
TORSDOF 7
