REMARK  Name = ZINC59223853
REMARK  6 active torsions:
REMARK  status: ('A' for Active; 'I' for Inactive)
REMARK    1  A    between atoms: C_1  and  C_2
REMARK    2  A    between atoms: C_5  and  N_9
REMARK    3  A    between atoms: C_7  and  C_8
REMARK    4  A    between atoms: C_15  and  C_16
REMARK    5  A    between atoms: C_19  and  C_21
REMARK    6  A    between atoms: C_26  and  C_27
REMARK                            x       y       z     vdW  Elec       q    Type
REMARK                         _______ _______ _______ _____ _____    ______ ____
ROOT
ATOM      1  N   UNL     1       0.058  -4.141  -0.021  0.00  0.00    -0.226 NA
ATOM      2  C   UNL     1      -0.742  -4.805  -0.825  0.00  0.00    +0.166 C 
ATOM      3  N   UNL     1      -1.656  -4.307  -1.728  0.00  0.00    -0.260 N 
ATOM      4  C   UNL     1      -2.388  -5.124  -2.466  0.00  0.00    +0.257 C 
ATOM      5  O   UNL     1      -3.200  -4.700  -3.268  0.00  0.00    -0.269 OA
ATOM      6  C   UNL     1      -2.178  -6.567  -2.276  0.00  0.00    +0.081 C 
ATOM      7  C   UNL     1      -2.787  -7.620  -2.895  0.00  0.00    +0.066 C 
ATOM      8  S   UNL     1      -0.906  -6.572  -1.021  0.00  0.00    -0.049 S 
ATOM      9  H   UNL     1      -1.764  -3.347  -1.823  0.00  0.00    +0.157 HD
ENDROOT
BRANCH   1  14
ATOM     10  C   UNL     1      -0.018   1.503   0.010  0.00  0.00    +0.044 C 
ATOM     11  C   UNL     1       0.002  -0.004   0.002  0.00  0.00    -0.047 A 
ATOM     12  C   UNL     1       0.006  -0.686  -1.202  0.00  0.00    +0.006 A 
ATOM     13  C   UNL     1       0.024  -2.065  -1.217  0.00  0.00    +0.028 A 
ATOM     14  C   UNL     1       0.040  -2.773  -0.013  0.00  0.00    +0.067 A 
ATOM     15  C   UNL     1       0.037  -2.078   1.198  0.00  0.00    +0.031 A 
ATOM     16  C   UNL     1       0.023  -0.699   1.198  0.00  0.00    -0.046 A 
ATOM     17  C   UNL     1       0.025   0.053   2.504  0.00  0.00    +0.044 C 
ENDBRANCH   1  14
BRANCH   7  18
ATOM     18  C   UNL     1      -2.429  -8.943  -2.555  0.00  0.00    +0.130 A 
ATOM     19  C   UNL     1      -2.959 -10.096  -3.105  0.00  0.00    +0.050 A 
ATOM     20  C   UNL     1      -2.321 -11.171  -2.481  0.00  0.00    +0.050 A 
ATOM     21  C   UNL     1      -1.435 -10.646  -1.583  0.00  0.00    +0.136 A 
ATOM     22  O   UNL     1      -1.504  -9.304  -1.641  0.00  0.00    -0.455 OA
BRANCH  21  23
ATOM     23  C   UNL     1      -0.544 -11.424  -0.701  0.00  0.00    +0.022 A 
ATOM     24  C   UNL     1      -1.059 -12.467   0.073  0.00  0.00    +0.031 A 
ATOM     25  C   UNL     1      -0.220 -13.190   0.897  0.00  0.00    +0.042 A 
ATOM     26  C   UNL     1       1.130 -12.883   0.957  0.00  0.00    +0.020 A 
ATOM     27  C   UNL     1       1.645 -11.851   0.193  0.00  0.00    +0.005 A 
ATOM     28  C   UNL     1       0.819 -11.124  -0.639  0.00  0.00    -0.040 A 
ATOM     29  C   UNL     1       1.385 -10.005  -1.475  0.00  0.00    +0.044 C 
ATOM     30 CL   UNL     1      -0.856 -14.487   1.859  0.00  0.00    -0.084 Cl
ENDBRANCH  21  23
ENDBRANCH   7  18
TORSDOF 3
