REMARK  Name = ZINC63271492
REMARK  5 active torsions:
REMARK  status: ('A' for Active; 'I' for Inactive)
REMARK    1  A    between atoms: C_6  and  C_11
REMARK    2  A    between atoms: C_11  and  C_12
REMARK    3  A    between atoms: C_12  and  N_13
REMARK    4  A    between atoms: C_14  and  C_16
REMARK    5  A    between atoms: C_16  and  N_17
REMARK                            x       y       z     vdW  Elec       q    Type
REMARK                         _______ _______ _______ _____ _____    ______ ____
ROOT
ATOM      1  C   UNL     1       5.815  -5.610  -2.684  0.00  0.00    +0.201 C 
ENDROOT
BRANCH   1   2
ATOM      2  N   UNL     1       6.078  -6.022  -4.066  0.00  0.00    -0.291 N 
ATOM      3  C   UNL     1       6.547  -7.259  -4.322  0.00  0.00    +0.303 C 
ATOM      4  O   UNL     1       6.836  -8.002  -3.404  0.00  0.00    -0.253 OA
ATOM      5  N   UNL     1       6.694  -7.673  -5.596  0.00  0.00    -0.284 N 
ATOM      6  C   UNL     1       7.085  -9.050  -5.875  0.00  0.00    +0.110 C 
ATOM      7  C   UNL     1       8.297  -9.090  -6.778  0.00  0.00    +0.025 C 
ATOM      8  C   UNL     1       8.243  -8.168  -7.972  0.00  0.00    +0.029 C 
ATOM      9  C   UNL     1       7.332  -6.967  -7.872  0.00  0.00    +0.127 C 
ATOM     10  C   UNL     1       6.458  -6.748  -6.694  0.00  0.00    +0.136 C 
ATOM     11  N   UNL     1       8.052  -5.797  -8.352  0.00  0.00    -0.282 NA
ATOM     12  C   UNL     1       9.290  -6.067  -8.581  0.00  0.00    +0.043 C 
ATOM     13  C   UNL     1       9.623  -7.490  -8.118  0.00  0.00    +0.065 C 
ATOM     14  C   UNL     1      10.494  -8.147  -9.143  0.00  0.00    -0.017 C 
ATOM     15  C   UNL     1      11.261  -7.404  -9.941  0.00  0.00    -0.004 C 
ATOM     16  C   UNL     1      11.289  -5.944  -9.864  0.00  0.00    +0.001 C 
ATOM     17  C   UNL     1      10.296  -5.246  -9.167  0.00  0.00    +0.023 C 
ATOM     18  H   UNL     1       5.916  -5.404  -4.795  0.00  0.00    +0.151 HD
ENDBRANCH   1   2
BRANCH   1  20
ATOM     19  N   UNL     1       4.991  -3.599  -1.503  0.00  0.00    -0.314 N 
ATOM     20  C   UNL     1       5.302  -4.193  -2.672  0.00  0.00    +0.230 C 
ATOM     21  O   UNL     1       5.170  -3.587  -3.714  0.00  0.00    -0.274 OA
ATOM     22  H   UNL     1       5.096  -4.084  -0.669  0.00  0.00    +0.149 HD
BRANCH  19  23
ATOM     23  C   UNL     1       4.492  -2.222  -1.490  0.00  0.00    +0.108 C 
BRANCH  23  24
ATOM     24  C   UNL     1       4.217  -1.792  -0.048  0.00  0.00    +0.052 C 
BRANCH  24  30
ATOM     25  C   UNL     1      -0.044   1.374   0.017  0.00  0.00    +0.022 A 
ATOM     26  C   UNL     1       1.078   2.123   0.007  0.00  0.00    +0.027 A 
ATOM     27  C   UNL     1       2.357   1.501  -0.011  0.00  0.00    +0.043 A 
ATOM     28  N   UNL     1       3.570   2.000  -0.023  0.00  0.00    -0.380 N 
ATOM     29  C   UNL     1       4.531   0.891  -0.040  0.00  0.00    +0.144 C 
ATOM     30  C   UNL     1       3.704  -0.375  -0.036  0.00  0.00    -0.040 C 
ATOM     31  C   UNL     1       2.411   0.022  -0.018  0.00  0.00    +0.000 A 
ATOM     32  C   UNL     1       1.144  -0.719  -0.007  0.00  0.00    +0.030 A 
ATOM     33  C   UNL     1      -0.019  -0.028   0.010  0.00  0.00    +0.042 A 
ATOM     34 CL   UNL     1      -1.520  -0.901   0.024  0.00  0.00    -0.084 Cl
ATOM     35  H   UNL     1       3.794   2.943  -0.022  0.00  0.00    +0.160 HD
ENDBRANCH  24  30
ENDBRANCH  23  24
ENDBRANCH  19  23
ENDBRANCH   1  20
TORSDOF 5
