REMARK  Name = ZINC14012639
REMARK  10 active torsions:
REMARK  status: ('A' for Active; 'I' for Inactive)
REMARK    1  A    between atoms: C_1  and  C_2
REMARK    2  A    between atoms: C_2  and  C_3
REMARK    3  A    between atoms: C_3  and  C_4
REMARK    4  A    between atoms: C_4  and  O_5
REMARK    5  A    between atoms: O_5  and  C_6
REMARK    6  A    between atoms: C_6  and  C_8
REMARK    7  A    between atoms: C_11  and  N_14
REMARK    8  A    between atoms: C_15  and  C_17
REMARK    9  A    between atoms: C_17  and  C_18
REMARK   10  A    between atoms: N_29  and  C_32
REMARK                            x       y       z     vdW  Elec       q    Type
REMARK                         _______ _______ _______ _____ _____    ______ ____
ROOT
ATOM      1  C   UNL     1       4.561   5.743  -0.203  0.00  0.00    +0.112 C 
ATOM      2  C   UNL     1       3.878   6.077   1.131  0.00  0.00    +0.103 C 
ATOM      3  S   UNL     1       5.046   7.303   1.827  0.00  0.00    -0.085 S 
ATOM      4  C   UNL     1       6.246   7.339   0.512  0.00  0.00    +0.174 A 
ATOM      5  N   UNL     1       5.811   6.463  -0.441  0.00  0.00    -0.283 N 
ATOM      6  C   UNL     1       6.586   6.320  -1.565  0.00  0.00    +0.266 A 
ATOM      7  O   UNL     1       6.246   5.552  -2.448  0.00  0.00    -0.267 OA
ATOM      8  C   UNL     1       7.778   7.064  -1.696  0.00  0.00    +0.103 A 
ATOM      9  C   UNL     1       8.778   7.155  -2.688  0.00  0.00    +0.150 A 
ATOM     10  N   UNL     1       9.676   8.013  -2.294  0.00  0.00    -0.172 NA
ATOM     11  N   UNL     1       9.319   8.523  -1.039  0.00  0.00    -0.214 N 
ATOM     12  C   UNL     1       8.147   7.942  -0.662  0.00  0.00    +0.171 A 
ATOM     13  N   UNL     1       7.352   8.040   0.408  0.00  0.00    -0.203 NA
ENDROOT
BRANCH  11  14
ATOM     14  C   UNL     1      10.042   9.468  -0.300  0.00  0.00    +0.068 A 
ATOM     15  C   UNL     1       9.372  10.411   0.469  0.00  0.00    +0.030 A 
ATOM     16  C   UNL     1      10.087  11.338   1.201  0.00  0.00    +0.040 A 
ATOM     17  C   UNL     1      11.471  11.336   1.160  0.00  0.00    +0.124 A 
ATOM     18  C   UNL     1      12.141  10.400   0.390  0.00  0.00    +0.040 A 
ATOM     19  C   UNL     1      11.430   9.467  -0.339  0.00  0.00    +0.030 A 
ATOM     20  F   UNL     1      12.169  12.247   1.873  0.00  0.00    -0.205 F 
ENDBRANCH  11  14
BRANCH   1  21
ATOM     21  C   UNL     1       4.852   4.242  -0.238  0.00  0.00    +0.122 C 
BRANCH  21  23
ATOM     22  N   UNL     1       3.560   2.134  -0.162  0.00  0.00    -0.285 N 
ATOM     23  C   UNL     1       3.552   3.478  -0.250  0.00  0.00    +0.219 C 
ATOM     24  O   UNL     1       2.500   4.074  -0.338  0.00  0.00    -0.275 OA
ATOM     25  H   UNL     1       4.395   1.661  -0.019  0.00  0.00    +0.155 HD
BRANCH  22  29
ATOM     26  C   UNL     1      -0.003   0.004  -0.507  0.00  0.00    +0.059 A 
ATOM     27  C   UNL     1       1.017  -0.468   0.324  0.00  0.00    +0.017 A 
ATOM     28  C   UNL     1       2.193   0.238   0.435  0.00  0.00    +0.024 A 
ATOM     29  C   UNL     1       2.367   1.421  -0.277  0.00  0.00    +0.033 A 
ATOM     30  C   UNL     1       1.354   1.893  -1.106  0.00  0.00    +0.024 A 
ATOM     31  C   UNL     1       0.175   1.192  -1.222  0.00  0.00    +0.017 A 
BRANCH  26  32
ATOM     32  C   UNL     1      -1.264  -0.750  -0.630  0.00  0.00    +0.339 C 
ATOM     33  O   UNL     1      -1.418  -1.783  -0.008  0.00  0.00    -0.245 OA
BRANCH  32  34
ATOM     34  O   UNL     1      -2.247  -0.294  -1.431  0.00  0.00    -0.461 OA
BRANCH  34  35
ATOM     35  C   UNL     1      -3.461  -1.088  -1.503  0.00  0.00    +0.232 C 
BRANCH  35  36
ATOM     36  C   UNL     1      -4.453  -0.417  -2.455  0.00  0.00    +0.041 C 
BRANCH  36  38
ATOM     37  C   UNL     1      -6.725  -0.583  -3.482  0.00  0.00    +0.004 C 
ATOM     38  C   UNL     1      -5.732  -1.254  -2.530  0.00  0.00    -0.000 C 
ENDBRANCH  36  38
ENDBRANCH  35  36
ENDBRANCH  34  35
ENDBRANCH  32  34
ENDBRANCH  26  32
ENDBRANCH  22  29
ENDBRANCH  21  23
ENDBRANCH   1  21
TORSDOF 9
