REMARK  Name = ZINC27594317
REMARK  13 active torsions:
REMARK  status: ('A' for Active; 'I' for Inactive)
REMARK    1  A    between atoms: C_1  and  C_2
REMARK    2  A    between atoms: C_5  and  C_37
REMARK    3  A    between atoms: N_8  and  S_10
REMARK    4  A    between atoms: S_10  and  C_13
REMARK    5  A    between atoms: C_15  and  C_21
REMARK    6  A    between atoms: C_18  and  O_19
REMARK    7  A    between atoms: O_19  and  C_20
REMARK    8  A    between atoms: N_23  and  C_24
REMARK    9  A    between atoms: C_24  and  C_25
REMARK   10  A    between atoms: C_25  and  C_27
REMARK   11  A    between atoms: C_25  and  N_34
REMARK   12  A    between atoms: N_34  and  C_35
REMARK   13  A    between atoms: N_34  and  C_36
REMARK                            x       y       z     vdW  Elec       q    Type
REMARK                         _______ _______ _______ _____ _____    ______ ____
ROOT
ATOM      1  C   UNL     1      -1.904  10.263   5.981  0.00  0.00    +0.148 A 
ATOM      2  C   UNL     1      -1.437   9.041   5.550  0.00  0.00    +0.045 A 
ATOM      3  C   UNL     1      -1.303   8.789   4.182  0.00  0.00    +0.039 A 
ATOM      4  C   UNL     1      -1.639   9.781   3.256  0.00  0.00    +0.017 A 
ATOM      5  C   UNL     1      -2.110  10.998   3.695  0.00  0.00    +0.048 A 
ATOM      6  C   UNL     1      -2.242  11.245   5.057  0.00  0.00    +0.146 A 
ENDROOT
BRANCH   3   7
ATOM      7  C   UNL     1      -0.803   7.481   3.716  0.00  0.00    +0.244 C 
ATOM      8  O   UNL     1      -0.507   6.621   4.523  0.00  0.00    -0.270 OA
ATOM      9  N   UNL     1      -0.674   7.240   2.396  0.00  0.00    -0.313 N 
ATOM     10  H   UNL     1      -0.942   8.019   1.666  0.00  0.00    +0.149 HD
BRANCH   9  11
ATOM     11  C   UNL     1      -0.177   5.942   1.933  0.00  0.00    +0.094 C 
BRANCH  11  12
ATOM     12  C   UNL     1      -0.275   5.873   0.408  0.00  0.00    -0.021 C 
BRANCH  12  13
ATOM     13  C   UNL     1       0.291   4.561  -0.072  0.00  0.00    -0.057 A 
ATOM     14  C   UNL     1      -0.433   3.395   0.092  0.00  0.00    +0.002 A 
ATOM     15  C   UNL     1       0.082   2.192  -0.353  0.00  0.00    +0.003 A 
ATOM     16  C   UNL     1       1.327   2.152  -0.952  0.00  0.00    +0.038 A 
ATOM     17  C   UNL     1       2.053   3.319  -1.117  0.00  0.00    +0.124 A 
ATOM     18  C   UNL     1       1.533   4.525  -0.676  0.00  0.00    +0.040 A 
ATOM     19  F   UNL     1       3.267   3.282  -1.708  0.00  0.00    -0.205 F 
ENDBRANCH  12  13
BRANCH  12  20
ATOM     20  N   UNL     1      -1.683   5.977   0.002  0.00  0.00    +0.382 N 
ATOM     21  C   UNL     1      -2.574   5.491   1.064  0.00  0.00    -0.096 C 
ATOM     22  C   UNL     1      -2.021   7.355  -0.379  0.00  0.00    -0.096 C 
ATOM     23  H   UNL     1      -1.829   5.337  -0.880  0.00  0.00    -0.082 HD
ENDBRANCH  12  20
ENDBRANCH  11  12
ENDBRANCH   9  11
ENDBRANCH   3   7
BRANCH   1  24
ATOM     24  S   UNL     1      -2.074  10.582   7.705  0.00  0.00    +0.064 S 
ATOM     25  O   UNL     1      -3.346  11.190   7.883  0.00  0.00    -0.153 OA
ATOM     26  O   UNL     1      -1.700   9.387   8.378  0.00  0.00    -0.153 OA
BRANCH  24  32
ATOM     27  C   UNL     1      -1.139  15.187   9.624  0.00  0.00    +0.009 C 
ATOM     28  C   UNL     1      -0.886  13.680   9.564  0.00  0.00    +0.002 C 
ATOM     29  C   UNL     1       0.605  13.403   9.774  0.00  0.00    +0.009 C 
ATOM     30  C   UNL     1       0.854  11.894   9.747  0.00  0.00    +0.002 C 
ATOM     31  C   UNL     1       0.447  11.337   8.379  0.00  0.00    +0.112 C 
ATOM     32  N   UNL     1      -0.944  11.724   8.105  0.00  0.00    -0.176 NA
ATOM     33  C   UNL     1      -1.311  13.144   8.188  0.00  0.00    +0.112 C 
ATOM     34  C   UNL     1       0.023  11.219  10.840  0.00  0.00    +0.009 C 
ENDBRANCH  24  32
ENDBRANCH   1  24
BRANCH   6  35
ATOM     35  O   UNL     1      -2.703  12.447   5.485  0.00  0.00    -0.493 OA
ATOM     36  C   UNL     1      -3.137  13.370   4.484  0.00  0.00    +0.277 C 
ENDBRANCH   6  35
TORSDOF 8
