REMARK  Name = ZINC11789812
REMARK  10 active torsions:
REMARK  status: ('A' for Active; 'I' for Inactive)
REMARK    1  A    between atoms: C_1  and  C_2
REMARK    2  A    between atoms: C_2  and  C_3
REMARK    3  A    between atoms: C_2  and  C_4
REMARK    4  A    between atoms: C_4  and  C_5
REMARK    5  A    between atoms: C_7  and  C_11
REMARK    6  A    between atoms: C_11  and  N_68
REMARK    7  A    between atoms: C_23  and  N_29
REMARK    8  A    between atoms: C_25  and  O_27
REMARK    9  A    between atoms: O_27  and  C_28
REMARK   10  A    between atoms: C_30  and  C_32
REMARK                            x       y       z     vdW  Elec       q    Type
REMARK                         _______ _______ _______ _____ _____    ______ ____
ROOT
ATOM      1  C   UNL     1      -0.755   1.594  -1.232  0.00  0.00    -0.077 C 
ATOM      2  C   UNL     1      -0.013   1.086   0.008  0.00  0.00    -0.005 C 
ATOM      3  C   UNL     1      -0.729   1.579   1.263  0.00  0.00    +0.021 C 
ATOM      4  C   UNL     1      -0.837   3.101   1.246  0.00  0.00    -0.005 C 
ATOM      5  C   UNL     1      -1.554   3.544  -0.033  0.00  0.00    -0.077 C 
ATOM      6  C   UNL     1      -0.000   1.115   2.501  0.00  0.00    -0.034 A 
ATOM      7  C   UNL     1       1.352   1.102   2.801  0.00  0.00    +0.004 A 
ATOM      8  C   UNL     1       1.790   0.622   4.020  0.00  0.00    +0.000 A 
ATOM      9  C   UNL     1       0.877   0.154   4.946  0.00  0.00    +0.000 A 
ATOM     10  C   UNL     1      -0.472   0.166   4.649  0.00  0.00    +0.006 A 
ATOM     11  C   UNL     1      -0.914   0.646   3.428  0.00  0.00    -0.021 A 
ATOM     12  C   UNL     1      -2.316   0.766   2.870  0.00  0.00    +0.133 C 
ATOM     13  C   UNL     1      -2.132   0.953   1.348  0.00  0.00    +0.153 C 
ATOM     14  N   UNL     1      -0.780   3.072  -1.202  0.00  0.00    +0.383 N 
ATOM     15  H   UNL     1       0.182   3.420  -1.126  0.00  0.00    -0.081 HD
ENDROOT
BRANCH  12  16
ATOM     16  N   UNL     1      -2.995   1.930   3.446  0.00  0.00    -0.302 N 
ATOM     17  C   UNL     1      -3.697   1.803   4.590  0.00  0.00    +0.245 C 
ATOM     18  O   UNL     1      -3.767   0.722   5.144  0.00  0.00    -0.270 OA
ATOM     19  H   UNL     1      -2.938   2.792   3.005  0.00  0.00    +0.150 HD
BRANCH  17  20
ATOM     20  C   UNL     1      -4.378   2.972   5.169  0.00  0.00    +0.044 A 
ATOM     21  C   UNL     1      -5.137   2.873   6.390  0.00  0.00    +0.020 A 
ATOM     22  C   UNL     1      -5.724   3.999   6.840  0.00  0.00    +0.046 A 
ATOM     23  S   UNL     1      -5.260   5.211   5.621  0.00  0.00    -0.104 S 
ATOM     24  C   UNL     1      -4.314   4.213   4.570  0.00  0.00    +0.058 A 
ENDBRANCH  17  20
ENDBRANCH  12  16
BRANCH  13  25
ATOM     25  O   UNL     1      -2.171  -0.304   0.670  0.00  0.00    -0.377 OA
ATOM     26  C   UNL     1      -3.447  -0.626   0.113  0.00  0.00    +0.194 C 
ENDBRANCH  13  25
BRANCH  14  27
ATOM     27  C   UNL     1      -1.382   3.591  -2.447  0.00  0.00    -0.021 C 
BRANCH  27  30
ATOM     28  C   UNL     1      -1.390   7.274  -2.365  0.00  0.00    +0.036 A 
ATOM     29  C   UNL     1      -0.790   6.101  -2.670  0.00  0.00    +0.045 A 
ATOM     30  C   UNL     1      -1.650   5.066  -2.288  0.00  0.00    +0.047 A 
ATOM     31  N   UNL     1      -2.724   5.599  -1.765  0.00  0.00    -0.181 NA
ATOM     32  N   UNL     1      -2.584   6.992  -1.802  0.00  0.00    -0.281 N 
ATOM     33  H   UNL     1      -3.250   7.659  -1.470  0.00  0.00    +0.189 HD
BRANCH  28  34
ATOM     34  C   UNL     1      -0.825   8.651  -2.605  0.00  0.00    +0.057 C 
BRANCH  34  36
ATOM     35  C   UNL     1       1.298   8.102  -1.407  0.00  0.00    +0.007 C 
ATOM     36  C   UNL     1       0.088   9.038  -1.439  0.00  0.00    -0.011 C 
ATOM     37  C   UNL     1       0.563  10.481  -1.621  0.00  0.00    +0.007 C 
ENDBRANCH  34  36
ENDBRANCH  28  34
ENDBRANCH  27  30
ENDBRANCH  14  27
TORSDOF 7
