REMARK  Name = ZINC09955806
REMARK  2 active torsions:
REMARK  status: ('A' for Active; 'I' for Inactive)
REMARK    1  A    between atoms: C_6  and  N_7
REMARK    2  A    between atoms: C_8  and  C_10
REMARK                            x       y       z     vdW  Elec       q    Type
REMARK                         _______ _______ _______ _____ _____    ______ ____
ROOT
ATOM      1  N   UNL     1      -2.095   2.157   2.917  0.00  0.00    -0.285 N 
ATOM      2  C   UNL     1      -1.183   2.986   2.371  0.00  0.00    +0.225 C 
ATOM      3  O   UNL     1      -0.288   3.438   3.054  0.00  0.00    -0.275 OA
ATOM      4  H   UNL     1      -2.853   1.857   2.392  0.00  0.00    +0.155 HD
ENDROOT
BRANCH   2   5
ATOM      5  C   UNL     1      -1.274   3.351   0.912  0.00  0.00    +0.116 C 
ATOM      6  C   UNL     1      -1.178   2.083   0.056  0.00  0.00    +0.113 C 
ATOM      7  C   UNL     1       0.226   1.545   0.102  0.00  0.00    +0.218 C 
ATOM      8  O   UNL     1       0.409   0.346   0.086  0.00  0.00    -0.275 OA
ATOM      9  N   UNL     1       1.282   2.378   0.155  0.00  0.00    -0.285 N 
ATOM     10  C   UNL     1       1.090   3.763   0.191  0.00  0.00    +0.040 A 
ATOM     11  C   UNL     1      -0.145   4.283   0.555  0.00  0.00    -0.014 A 
ATOM     12  C   UNL     1      -0.336   5.649   0.591  0.00  0.00    +0.009 A 
ATOM     13  C   UNL     1       0.702   6.503   0.264  0.00  0.00    +0.039 A 
ATOM     14  C   UNL     1       1.936   5.989  -0.100  0.00  0.00    +0.125 A 
ATOM     15  C   UNL     1       2.132   4.620  -0.137  0.00  0.00    +0.062 A 
ATOM     16  F   UNL     1       2.948   6.825  -0.419  0.00  0.00    -0.205 F 
ATOM     17  H   UNL     1       2.181   2.016   0.168  0.00  0.00    +0.155 HD
ENDBRANCH   2   5
BRANCH   1  23
ATOM     18  C   UNL     1      -3.070   1.500   5.027  0.00  0.00    +0.027 A 
ATOM     19  C   UNL     1      -2.926   1.077   6.335  0.00  0.00    +0.051 A 
ATOM     20  C   UNL     1      -1.663   0.882   6.867  0.00  0.00    +0.173 A 
ATOM     21  C   UNL     1      -0.534   1.112   6.083  0.00  0.00    +0.174 A 
ATOM     22  C   UNL     1      -0.679   1.530   4.771  0.00  0.00    +0.073 A 
ATOM     23  C   UNL     1      -1.948   1.729   4.243  0.00  0.00    +0.037 A 
ATOM     24  O   UNL     1       0.577   0.850   6.831  0.00  0.00    -0.395 OA
ATOM     25  C   UNL     1       0.115   0.067   7.947  0.00  0.00    +0.589 C 
ATOM     26  O   UNL     1      -1.257   0.475   8.107  0.00  0.00    -0.395 OA
ATOM     27  F   UNL     1       0.189  -1.299   7.654  0.00  0.00    -0.125 F 
ATOM     28  F   UNL     1       0.856   0.362   9.096  0.00  0.00    -0.125 F 
ENDBRANCH   1  23
TORSDOF 2
