REMARK  Name = ZINC08658389
REMARK  11 active torsions:
REMARK  status: ('A' for Active; 'I' for Inactive)
REMARK    1  A    between atoms: C_1  and  C_2
REMARK    2  A    between atoms: C_2  and  C_4
REMARK    3  A    between atoms: C_2  and  S_11
REMARK    4  A    between atoms: N_9  and  C_10
REMARK    5  A    between atoms: S_11  and  C_12
REMARK    6  A    between atoms: C_15  and  C_23
REMARK    7  A    between atoms: N_16  and  C_17
REMARK    8  A    between atoms: C_26  and  C_29
REMARK    9  A    between atoms: C_29  and  C_30
REMARK   10  A    between atoms: C_29  and  C_31
REMARK   11  A    between atoms: C_29  and  C_32
REMARK                            x       y       z     vdW  Elec       q    Type
REMARK                         _______ _______ _______ _____ _____    ______ ____
ROOT
ATOM      1  C   UNL     1       0.595   4.304   0.950  0.00  0.00    +0.197 A 
ATOM      2  N   UNL     1       0.847   5.543   0.591  0.00  0.00    -0.122 NA
ATOM      3  N   UNL     1       1.490   5.559  -0.521  0.00  0.00    -0.128 NA
ATOM      4  C   UNL     1       1.696   4.332  -0.939  0.00  0.00    +0.169 A 
ATOM      5  N   UNL     1       1.124   3.488  -0.012  0.00  0.00    -0.270 N 
ENDROOT
BRANCH   5   6
ATOM      6  C   UNL     1       1.095   2.087  -0.046  0.00  0.00    +0.051 A 
ATOM      7  C   UNL     1      -0.109   1.421  -0.233  0.00  0.00    +0.026 A 
ATOM      8  C   UNL     1      -0.135   0.040  -0.266  0.00  0.00    +0.002 A 
ATOM      9  C   UNL     1       1.037  -0.678  -0.112  0.00  0.00    +0.000 A 
ATOM     10  C   UNL     1       2.237  -0.018   0.075  0.00  0.00    +0.002 A 
ATOM     11  C   UNL     1       2.269   1.363   0.109  0.00  0.00    +0.026 A 
ENDBRANCH   5   6
BRANCH   4  12
ATOM     12  C   UNL     1       2.405   3.931  -2.173  0.00  0.00    +0.020 A 
ATOM     13  C   UNL     1       3.241   4.837  -2.827  0.00  0.00    +0.012 A 
ATOM     14  C   UNL     1       3.903   4.455  -3.975  0.00  0.00    +0.005 A 
ATOM     15  C   UNL     1       3.733   3.180  -4.484  0.00  0.00    -0.042 A 
ATOM     16  C   UNL     1       2.902   2.278  -3.843  0.00  0.00    +0.005 A 
ATOM     17  C   UNL     1       2.237   2.646  -2.691  0.00  0.00    +0.012 A 
BRANCH  15  18
ATOM     18  C   UNL     1       4.455   2.771  -5.742  0.00  0.00    -0.013 C 
ATOM     19  C   UNL     1       3.434   2.381  -6.812  0.00  0.00    +0.015 C 
ATOM     20  C   UNL     1       5.302   3.942  -6.247  0.00  0.00    +0.015 C 
ATOM     21  C   UNL     1       5.363   1.577  -5.443  0.00  0.00    +0.015 C 
ENDBRANCH  15  18
ENDBRANCH   4  12
BRANCH   1  22
ATOM     22  S   UNL     1      -0.263   3.790   2.401  0.00  0.00    -0.073 S 
BRANCH  22  24
ATOM     23  C   UNL     1      -1.587   6.173   2.223  0.00  0.00    +0.029 C 
ATOM     24  C   UNL     1      -0.631   5.402   3.136  0.00  0.00    +0.137 C 
BRANCH  24  25
ATOM     25  C   UNL     1      -1.275   5.204   4.484  0.00  0.00    +0.233 C 
ATOM     26  O   UNL     1      -1.794   4.143   4.758  0.00  0.00    -0.274 OA
ATOM     27  N   UNL     1      -1.275   6.206   5.385  0.00  0.00    -0.239 N 
ATOM     28  C   UNL     1      -1.851   6.029   6.591  0.00  0.00    +0.306 C 
ATOM     29  O   UNL     1      -2.371   4.966   6.865  0.00  0.00    -0.252 OA
ATOM     30  N   UNL     1      -1.850   7.032   7.492  0.00  0.00    -0.302 N 
ATOM     31  C   UNL     1      -2.476   6.839   8.802  0.00  0.00    +0.129 C 
ATOM     32  H   UNL     1      -0.860   7.055   5.166  0.00  0.00    +0.159 HD
ATOM     33  H   UNL     1      -1.435   7.880   7.272  0.00  0.00    +0.150 HD
ENDBRANCH  24  25
ENDBRANCH  22  24
ENDBRANCH   1  22
TORSDOF 6
