REMARK  Name = ZINC36640603
REMARK  8 active torsions:
REMARK  status: ('A' for Active; 'I' for Inactive)
REMARK    1  A    between atoms: C_1  and  C_2
REMARK    2  A    between atoms: C_2  and  C_4
REMARK    3  A    between atoms: C_2  and  S_21
REMARK    4  A    between atoms: C_9  and  C_12
REMARK    5  A    between atoms: C_16  and  N_18
REMARK    6  A    between atoms: S_21  and  C_22
REMARK    7  A    between atoms: N_32  and  C_33
REMARK    8  A    between atoms: C_33  and  C_34
REMARK                            x       y       z     vdW  Elec       q    Type
REMARK                         _______ _______ _______ _____ _____    ______ ____
ROOT
ATOM      1  C   UNL     1      -1.412  -0.526   0.013  0.00  0.00    +0.232 C 
ATOM      2  O   UNL     1      -1.927  -0.901  -1.019  0.00  0.00    -0.274 OA
ATOM      3  N   UNL     1      -2.103  -0.575   1.169  0.00  0.00    -0.264 N 
ATOM      4  C   UNL     1      -3.407  -1.056   1.178  0.00  0.00    +0.165 A 
ATOM      5  N   UNL     1      -4.244  -1.179   2.191  0.00  0.00    -0.225 NA
ATOM      6  C   UNL     1      -5.465  -1.663   2.020  0.00  0.00    +0.080 A 
ATOM      7  C   UNL     1      -5.866  -2.042   0.769  0.00  0.00    +0.076 A 
ATOM      8  S   UNL     1      -4.398  -1.665  -0.179  0.00  0.00    -0.060 S 
ATOM      9  H   UNL     1      -1.691  -0.275   1.994  0.00  0.00    +0.157 HD
ENDROOT
BRANCH   6  10
ATOM     10  C   UNL     1      -6.388  -1.792   3.174  0.00  0.00    +0.003 A 
ATOM     11  C   UNL     1      -7.670  -2.308   2.990  0.00  0.00    +0.010 A 
ATOM     12  C   UNL     1      -8.524  -2.426   4.067  0.00  0.00    +0.003 A 
ATOM     13  C   UNL     1      -8.111  -2.033   5.327  0.00  0.00    +0.033 A 
ATOM     14  C   UNL     1      -6.840  -1.521   5.516  0.00  0.00    +0.127 A 
ATOM     15  C   UNL     1      -5.975  -1.404   4.447  0.00  0.00    +0.042 A 
BRANCH  14  16
ATOM     16  N   UNL     1      -6.405  -1.103   6.867  0.00  0.00    +0.056 N 
ATOM     17  O   UNL     1      -7.160  -1.210   7.805  0.00  0.00    -0.126 OA
ATOM     18  O   UNL     1      -5.295  -0.654   7.033  0.00  0.00    -0.126 OA
ENDBRANCH  14  16
ENDBRANCH   6  10
BRANCH   1  20
ATOM     19  C   UNL     1      -0.019   1.526   0.010  0.00  0.00    +0.029 C 
ATOM     20  C   UNL     1       0.002  -0.004   0.002  0.00  0.00    +0.137 C 
BRANCH  20  21
ATOM     21  S   UNL     1       0.851  -0.589  -1.490  0.00  0.00    -0.075 S 
BRANCH  21  22
ATOM     22  C   UNL     1       2.509  -0.029  -1.285  0.00  0.00    +0.173 A 
ATOM     23  N   UNL     1       2.812   0.640  -0.200  0.00  0.00    -0.223 NA
ATOM     24  C   UNL     1       4.061   1.098   0.022  0.00  0.00    +0.079 A 
ATOM     25  C   UNL     1       4.385   1.811   1.181  0.00  0.00    +0.028 A 
ATOM     26  C   UNL     1       5.663   2.257   1.365  0.00  0.00    +0.002 A 
ATOM     27  C   UNL     1       6.649   2.013   0.417  0.00  0.00    +0.001 A 
ATOM     28  C   UNL     1       6.363   1.319  -0.726  0.00  0.00    +0.015 A 
ATOM     29  C   UNL     1       5.067   0.852  -0.940  0.00  0.00    +0.065 A 
ATOM     30  C   UNL     1       4.702   0.100  -2.148  0.00  0.00    +0.263 A 
ATOM     31  O   UNL     1       5.524  -0.144  -3.013  0.00  0.00    -0.267 OA
ATOM     32  N   UNL     1       3.419  -0.316  -2.262  0.00  0.00    -0.283 N 
BRANCH  32  33
ATOM     33  C   UNL     1       3.002  -1.074  -3.444  0.00  0.00    +0.154 C 
BRANCH  33  34
ATOM     34  C   UNL     1       2.531  -0.121  -4.512  0.00  0.00    -0.013 C 
ATOM     35  C   UNL     1       3.066  -0.160  -5.707  0.00  0.00    +0.005 C 
ENDBRANCH  33  34
ENDBRANCH  32  33
ENDBRANCH  21  22
ENDBRANCH  20  21
ENDBRANCH   1  20
TORSDOF 7
