REMARK  Name = ZINC09088161
REMARK  5 active torsions:
REMARK  status: ('A' for Active; 'I' for Inactive)
REMARK    1  A    between atoms: C_1  and  C_2
REMARK    2  A    between atoms: C_5  and  C_8
REMARK    3  A    between atoms: N_12  and  C_13
REMARK    4  A    between atoms: C_13  and  N_15
REMARK    5  A    between atoms: C_16  and  C_18
REMARK                            x       y       z     vdW  Elec       q    Type
REMARK                         _______ _______ _______ _____ _____    ______ ____
ROOT
ATOM      1  C   UNL     1       0.046  -4.252  -0.021  0.00  0.00    +0.055 A 
ATOM      2  C   UNL     1       0.054  -4.953  -1.176  0.00  0.00    +0.074 A 
ATOM      3  S   UNL     1       0.083  -6.636  -0.588  0.00  0.00    -0.060 S 
ATOM      4  C   UNL     1       0.082  -6.334   1.065  0.00  0.00    +0.162 A 
ATOM      5  N   UNL     1       0.098  -7.214   2.063  0.00  0.00    -0.169 NA
ATOM      6  N   UNL     1       0.065  -4.975   1.141  0.00  0.00    -0.335 N 
ATOM      7  H   UNL     1       0.064  -4.527   2.001  0.00  0.00    +0.168 HD
ENDROOT
BRANCH   1  12
ATOM      8  C   UNL     1      -0.047   1.503   0.013  0.00  0.00    +0.044 C 
ATOM      9  C   UNL     1      -0.022  -0.004   0.004  0.00  0.00    -0.050 A 
ATOM     10  C   UNL     1      -0.019  -0.686  -1.200  0.00  0.00    +0.004 A 
ATOM     11  C   UNL     1       0.003  -2.065  -1.215  0.00  0.00    +0.010 A 
ATOM     12  C   UNL     1       0.022  -2.772  -0.012  0.00  0.00    -0.001 A 
ATOM     13  C   UNL     1       0.020  -2.079   1.199  0.00  0.00    +0.010 A 
ATOM     14  C   UNL     1       0.003  -0.699   1.200  0.00  0.00    +0.004 A 
ENDBRANCH   1  12
BRANCH   5  15
ATOM     15  C   UNL     1       0.194  -6.790   3.325  0.00  0.00    +0.163 C 
ATOM     16  S   UNL     1      -1.064  -5.855   4.013  0.00  0.00    -0.016 S 
BRANCH  15  17
ATOM     17  N   UNL     1       1.282  -7.099   4.059  0.00  0.00    -0.260 N 
ATOM     18  C   UNL     1       1.379  -6.671   5.333  0.00  0.00    +0.285 C 
ATOM     19  O   UNL     1       0.484  -6.006   5.822  0.00  0.00    -0.266 OA
ATOM     20  H   UNL     1       1.995  -7.629   3.670  0.00  0.00    +0.157 HD
BRANCH  18  21
ATOM     21  C   UNL     1       2.562  -7.007   6.131  0.00  0.00    +0.189 A 
ATOM     22  C   UNL     1       2.784  -6.644   7.429  0.00  0.00    +0.054 A 
ATOM     23  C   UNL     1       4.032  -7.177   7.789  0.00  0.00    +0.042 A 
ATOM     24  C   UNL     1       4.511  -7.833   6.709  0.00  0.00    +0.196 A 
ATOM     25  O   UNL     1       3.619  -7.733   5.714  0.00  0.00    -0.458 OA
ENDBRANCH  18  21
ENDBRANCH  15  17
ENDBRANCH   5  15
TORSDOF 4
