REMARK  Name = ZINC40196638
REMARK  11 active torsions:
REMARK  status: ('A' for Active; 'I' for Inactive)
REMARK    1  A    between atoms: C_1  and  C_2
REMARK    2  A    between atoms: C_2  and  C_4
REMARK    3  A    between atoms: C_2  and  N_27
REMARK    4  A    between atoms: N_12  and  C_13
REMARK    5  A    between atoms: C_13  and  C_14
REMARK    6  A    between atoms: N_16  and  C_17
REMARK    7  A    between atoms: N_16  and  C_24
REMARK    8  A    between atoms: C_17  and  C_18
REMARK    9  A    between atoms: C_24  and  C_25
REMARK   10  A    between atoms: C_24  and  C_26
REMARK   11  A    between atoms: C_28  and  C_30
REMARK                            x       y       z     vdW  Elec       q    Type
REMARK                         _______ _______ _______ _____ _____    ______ ____
ROOT
ATOM      1  C   UNL     1       0.673  -0.553  -1.078  0.00  0.00    +0.131 A 
ATOM      2  N   UNL     1       1.970  -0.551  -1.186  0.00  0.00    -0.230 NA
ATOM      3  C   UNL     1       2.327  -1.020  -2.410  0.00  0.00    +0.089 A 
ATOM      4  C   UNL     1       3.556  -1.226  -3.042  0.00  0.00    +0.030 A 
ATOM      5  C   UNL     1       3.592  -1.723  -4.314  0.00  0.00    +0.002 A 
ATOM      6  C   UNL     1       2.418  -2.027  -4.989  0.00  0.00    +0.002 A 
ATOM      7  C   UNL     1       1.195  -1.832  -4.385  0.00  0.00    +0.028 A 
ATOM      8  C   UNL     1       1.138  -1.328  -3.092  0.00  0.00    +0.069 A 
ATOM      9  N   UNL     1       0.110  -1.028  -2.222  0.00  0.00    -0.317 N 
ENDROOT
BRANCH   1  11
ATOM     10  C   UNL     1      -0.081   1.427   0.210  0.00  0.00    +0.036 C 
ATOM     11  C   UNL     1      -0.092  -0.102   0.139  0.00  0.00    +0.136 C 
BRANCH  11  12
ATOM     12  N   UNL     1       0.535  -0.652   1.343  0.00  0.00    -0.299 N 
ATOM     13  C   UNL     1      -0.194  -0.828   2.462  0.00  0.00    +0.280 C 
ATOM     14  O   UNL     1      -1.374  -0.529   2.474  0.00  0.00    -0.267 OA
ATOM     15  H   UNL     1       1.476  -0.890   1.334  0.00  0.00    +0.150 HD
BRANCH  13  16
ATOM     16  C   UNL     1       0.435  -1.379   3.668  0.00  0.00    +0.189 A 
ATOM     17  C   UNL     1      -0.186  -1.612   4.861  0.00  0.00    +0.054 A 
ATOM     18  C   UNL     1       0.786  -2.139   5.726  0.00  0.00    +0.042 A 
ATOM     19  C   UNL     1       1.943  -2.203   5.031  0.00  0.00    +0.196 A 
ATOM     20  O   UNL     1       1.726  -1.749   3.790  0.00  0.00    -0.458 OA
ENDBRANCH  13  16
ENDBRANCH  11  12
ENDBRANCH   1  11
BRANCH   9  21
ATOM     21  C   UNL     1      -1.323  -1.187  -2.482  0.00  0.00    +0.219 C 
BRANCH  21  22
ATOM     22  C   UNL     1      -1.866   0.079  -3.094  0.00  0.00    +0.236 C 
ATOM     23  O   UNL     1      -1.129   1.021  -3.292  0.00  0.00    -0.274 OA
ATOM     24  N   UNL     1      -3.171   0.164  -3.420  0.00  0.00    -0.293 N 
BRANCH  24  25
ATOM     25  C   UNL     1      -4.062  -0.975  -3.180  0.00  0.00    +0.070 C 
ATOM     26  C   UNL     1      -5.258  -0.519  -2.342  0.00  0.00    +0.028 C 
ATOM     27  C   UNL     1      -4.557  -1.525  -4.519  0.00  0.00    +0.028 C 
ENDBRANCH  24  25
BRANCH  24  28
ATOM     28  C   UNL     1      -3.699   1.394  -4.015  0.00  0.00    +0.143 C 
BRANCH  28  29
ATOM     29  C   UNL     1      -3.461   1.376  -5.503  0.00  0.00    -0.030 A 
ATOM     30  C   UNL     1      -2.237   1.769  -6.011  0.00  0.00    +0.005 A 
ATOM     31  C   UNL     1      -2.018   1.752  -7.376  0.00  0.00    +0.000 A 
ATOM     32  C   UNL     1      -3.023   1.342  -8.232  0.00  0.00    +0.000 A 
ATOM     33  C   UNL     1      -4.246   0.948  -7.723  0.00  0.00    +0.000 A 
ATOM     34  C   UNL     1      -4.463   0.960  -6.358  0.00  0.00    +0.005 A 
ENDBRANCH  28  29
ENDBRANCH  24  28
ENDBRANCH  21  22
ENDBRANCH   9  21
TORSDOF 8
