REMARK  Name = ZINC39636491
REMARK  6 active torsions:
REMARK  status: ('A' for Active; 'I' for Inactive)
REMARK    1  A    between atoms: C_1  and  C_2
REMARK    2  A    between atoms: C_5  and  C_39
REMARK    3  A    between atoms: C_6  and  C_8
REMARK    4  A    between atoms: C_8  and  N_9
REMARK    5  A    between atoms: C_10  and  C_12
REMARK    6  A    between atoms: C_23  and  C_25
REMARK                            x       y       z     vdW  Elec       q    Type
REMARK                         _______ _______ _______ _____ _____    ______ ____
ROOT
ATOM      1  C   UNL     1       2.886  -4.598   4.067  0.00  0.00    +0.100 C 
ATOM      2  C   UNL     1       3.438  -5.666   3.096  0.00  0.00    +0.121 C 
ATOM      3  N   UNL     1       4.298  -6.529   3.939  0.00  0.00    -0.296 N 
ATOM      4  C   UNL     1       3.556  -6.653   5.217  0.00  0.00    +0.115 C 
ATOM      5  C   UNL     1       2.965  -5.250   5.457  0.00  0.00    -0.004 C 
ATOM      6  C   UNL     1       3.881  -4.440   6.370  0.00  0.00    -0.010 C 
ATOM      7  C   UNL     1       3.898  -5.075   7.762  0.00  0.00    -0.082 C 
ATOM      8  N   UNL     1       2.535  -5.104   8.306  0.00  0.00    +0.379 N 
ATOM      9  C   UNL     1       1.682  -5.961   7.473  0.00  0.00    -0.082 C 
ATOM     10  C   UNL     1       1.571  -5.363   6.068  0.00  0.00    -0.010 C 
ATOM     11  C   UNL     1       5.486  -7.079   3.618  0.00  0.00    +0.247 C 
ATOM     12  O   UNL     1       6.032  -7.841   4.391  0.00  0.00    -0.270 OA
ATOM     13  H   UNL     1       2.557  -5.467   9.247  0.00  0.00    -0.086 HD
ATOM     14  H   UNL     1       2.159  -4.168   8.318  0.00  0.00    -0.086 HD
ENDROOT
BRANCH  11  15
ATOM     15  C   UNL     1       6.123  -6.754   2.325  0.00  0.00    +0.045 A 
ATOM     16  C   UNL     1       5.392  -6.853   1.136  0.00  0.00    +0.014 A 
ATOM     17  C   UNL     1       5.984  -6.550  -0.071  0.00  0.00    +0.001 A 
ATOM     18  C   UNL     1       7.309  -6.146  -0.121  0.00  0.00    +0.012 A 
ATOM     19  C   UNL     1       8.053  -6.042   1.048  0.00  0.00    +0.031 A 
ATOM     20  C   UNL     1       7.461  -6.341   2.285  0.00  0.00    +0.006 A 
ATOM     21  C   UNL     1       8.469  -6.141   3.356  0.00  0.00    -0.006 A 
ATOM     22  C   UNL     1       8.401  -6.300   4.734  0.00  0.00    +0.009 A 
ATOM     23  C   UNL     1       9.514  -6.039   5.518  0.00  0.00    +0.001 A 
ATOM     24  C   UNL     1      10.695  -5.619   4.938  0.00  0.00    +0.001 A 
ATOM     25  C   UNL     1      10.779  -5.455   3.565  0.00  0.00    +0.012 A 
ATOM     26  C   UNL     1       9.672  -5.714   2.768  0.00  0.00    +0.030 A 
ATOM     27  C   UNL     1       9.459  -5.645   1.302  0.00  0.00    +0.194 C 
ATOM     28  O   UNL     1      10.277  -5.313   0.468  0.00  0.00    -0.287 OA
ENDBRANCH  11  15
BRANCH   1  30
ATOM     29  N   UNL     1       0.925  -3.091   4.116  0.00  0.00    -0.311 N 
ATOM     30  C   UNL     1       1.457  -4.266   3.723  0.00  0.00    +0.218 C 
ATOM     31  O   UNL     1       0.785  -5.055   3.094  0.00  0.00    -0.275 OA
ATOM     32  H   UNL     1       1.462  -2.459   4.619  0.00  0.00    +0.149 HD
BRANCH  29  33
ATOM     33  C   UNL     1      -0.465  -2.768   3.782  0.00  0.00    +0.139 C 
BRANCH  33  39
ATOM     34  C   UNL     1      -2.611   0.064   7.306  0.00  0.00    +0.044 C 
ATOM     35  C   UNL     1      -1.838  -0.053   6.018  0.00  0.00    -0.050 A 
ATOM     36  C   UNL     1      -1.446   1.086   5.341  0.00  0.00    +0.003 A 
ATOM     37  C   UNL     1      -0.736   0.979   4.160  0.00  0.00    +0.004 A 
ATOM     38  C   UNL     1      -0.419  -0.269   3.655  0.00  0.00    -0.046 A 
ATOM     39  C   UNL     1      -0.810  -1.408   4.332  0.00  0.00    -0.027 A 
ATOM     40  C   UNL     1      -1.516  -1.300   5.516  0.00  0.00    +0.008 A 
ATOM     41  C   UNL     1       0.354  -0.386   2.366  0.00  0.00    +0.044 C 
ENDBRANCH  33  39
ENDBRANCH  29  33
ENDBRANCH   1  30
TORSDOF 4
