REMARK  Name = ZINC36039893
REMARK  8 active torsions:
REMARK  status: ('A' for Active; 'I' for Inactive)
REMARK    1  A    between atoms: C_1  and  C_2
REMARK    2  A    between atoms: N_7  and  C_9
REMARK    3  A    between atoms: C_12  and  C_18
REMARK    4  A    between atoms: C_14  and  N_15
REMARK    5  A    between atoms: N_20  and  C_21
REMARK    6  A    between atoms: C_21  and  C_22
REMARK    7  A    between atoms: C_22  and  C_24
REMARK    8  A    between atoms: C_22  and  N_29
REMARK                            x       y       z     vdW  Elec       q    Type
REMARK                         _______ _______ _______ _____ _____    ______ ____
ROOT
ATOM      1  C   UNL     1      -0.779  -5.725   5.566  0.00  0.00    +0.244 C 
ATOM      2  O   UNL     1      -1.924  -6.078   5.775  0.00  0.00    -0.270 OA
ATOM      3  N   UNL     1       0.181  -5.978   6.477  0.00  0.00    -0.312 N 
ATOM      4  H   UNL     1       1.094  -5.696   6.311  0.00  0.00    +0.149 HD
ENDROOT
BRANCH   1   8
ATOM      5  C   UNL     1       0.193  -3.696   1.964  0.00  0.00    +0.060 A 
ATOM      6  C   UNL     1       1.186  -3.956   2.905  0.00  0.00    +0.026 A 
ATOM      7  C   UNL     1       0.874  -4.613   4.073  0.00  0.00    +0.015 A 
ATOM      8  C   UNL     1      -0.442  -5.020   4.315  0.00  0.00    +0.039 A 
ATOM      9  C   UNL     1      -1.436  -4.758   3.368  0.00  0.00    +0.047 A 
ATOM     10  C   UNL     1      -1.119  -4.095   2.204  0.00  0.00    +0.148 A 
BRANCH   5  16
ATOM     11  C   UNL     1       2.756  -3.840  -2.156  0.00  0.00    +0.009 C 
ATOM     12  C   UNL     1       2.313  -3.166  -0.856  0.00  0.00    +0.003 C 
ATOM     13  C   UNL     1       2.122  -1.667  -1.098  0.00  0.00    +0.006 C 
ATOM     14  C   UNL     1       1.710  -0.986   0.210  0.00  0.00    +0.019 C 
ATOM     15  C   UNL     1       0.378  -1.572   0.689  0.00  0.00    +0.105 C 
ATOM     16  N   UNL     1       0.512  -3.032   0.785  0.00  0.00    -0.328 N 
ATOM     17  C   UNL     1       0.988  -3.777  -0.388  0.00  0.00    +0.108 C 
ENDBRANCH   5  16
BRANCH  10  18
ATOM     18  N   UNL     1      -2.172  -3.812   1.204  0.00  0.00    +0.058 N 
ATOM     19  O   UNL     1      -3.323  -4.095   1.442  0.00  0.00    -0.126 OA
ATOM     20  O   UNL     1      -1.882  -3.298   0.149  0.00  0.00    -0.126 OA
ENDBRANCH  10  18
ENDBRANCH   1   8
BRANCH   3  21
ATOM     21  C   UNL     1      -0.155  -6.678   7.720  0.00  0.00    +0.097 C 
BRANCH  21  22
ATOM     22  C   UNL     1       1.075  -6.721   8.629  0.00  0.00    +0.016 C 
BRANCH  22  23
ATOM     23  N   UNL     1       0.782  -7.544   9.810  0.00  0.00    +0.387 N 
ATOM     24  C   UNL     1       0.577  -8.960   9.409  0.00  0.00    -0.078 C 
ATOM     25  C   UNL     1       0.847  -9.741  10.719  0.00  0.00    -0.020 C 
ATOM     26  C   UNL     1       2.012  -8.952  11.359  0.00  0.00    -0.020 C 
ATOM     27  C   UNL     1       1.942  -7.549  10.728  0.00  0.00    -0.078 C 
ATOM     28  H   UNL     1      -0.036  -7.194  10.284  0.00  0.00    -0.081 HD
ENDBRANCH  22  23
BRANCH  22  29
ATOM     29  C   UNL     1       1.426  -5.322   9.066  0.00  0.00    +0.093 A 
ATOM     30  C   UNL     1       2.389  -4.549   8.533  0.00  0.00    +0.043 A 
ATOM     31  C   UNL     1       2.372  -3.326   9.242  0.00  0.00    +0.041 A 
ATOM     32  C   UNL     1       1.399  -3.424  10.165  0.00  0.00    +0.195 A 
ATOM     33  O   UNL     1       0.825  -4.633  10.050  0.00  0.00    -0.469 OA
ENDBRANCH  22  29
ENDBRANCH  21  22
ENDBRANCH   3  21
TORSDOF 7
