REMARK  Name = ZINC00354112
REMARK  6 active torsions:
REMARK  status: ('A' for Active; 'I' for Inactive)
REMARK    1  A    between atoms: C_1  and  N_2
REMARK    2  A    between atoms: C_9  and  C_22
REMARK    3  A    between atoms: C_11  and  C_18
REMARK    4  A    between atoms: C_11  and  C_20
REMARK    5  A    between atoms: C_12  and  N_17
REMARK    6  A    between atoms: C_13  and  C_14
REMARK                            x       y       z     vdW  Elec       q    Type
REMARK                         _______ _______ _______ _____ _____    ______ ____
ROOT
ATOM      1  C   UNL     1       0.835   7.137   0.587  0.00  0.00    -0.096 C 
ATOM      2  N   UNL     1       1.044   5.685   0.500  0.00  0.00    +0.381 N 
ATOM      3  C   UNL     1      -0.180   5.002   0.048  0.00  0.00    -0.051 C 
ATOM      4  C   UNL     1       0.062   3.516   0.153  0.00  0.00    -0.041 C 
ATOM      5  C   UNL     1       1.270   3.029  -0.055  0.00  0.00    -0.035 C 
ATOM      6  C   UNL     1       2.439   3.884  -0.453  0.00  0.00    +0.013 C 
ATOM      7  C   UNL     1       2.160   5.368  -0.395  0.00  0.00    -0.070 C 
ATOM      8  C   UNL     1       3.635   3.488   0.415  0.00  0.00    +0.065 C 
ATOM      9  C   UNL     1       4.000   2.033   0.120  0.00  0.00    +0.188 C 
ATOM     10  C   UNL     1       2.805   1.132   0.203  0.00  0.00    +0.051 C 
ATOM     11  C   UNL     1       1.522   1.574   0.106  0.00  0.00    +0.085 C 
ATOM     12  H   UNL     1       1.299   5.325   1.508  0.00  0.00    -0.082 HD
ENDROOT
BRANCH   8  13
ATOM     13  C   UNL     1       3.273   3.635   1.870  0.00  0.00    -0.038 A 
ATOM     14  C   UNL     1       2.622   2.614   2.546  0.00  0.00    +0.024 A 
ATOM     15  C   UNL     1       2.310   2.783   3.882  0.00  0.00    +0.111 A 
ATOM     16  N   UNL     1       2.616   3.901   4.510  0.00  0.00    -0.263 NA
ATOM     17  C   UNL     1       3.230   4.895   3.898  0.00  0.00    +0.111 A 
ATOM     18  C   UNL     1       3.578   4.796   2.564  0.00  0.00    +0.024 A 
ENDBRANCH   8  13
BRANCH  11  19
ATOM     19  C   UNL     1       0.405   0.629   0.166  0.00  0.00    +0.388 C 
ATOM     20  O   UNL     1      -0.153   0.282  -0.858  0.00  0.00    -0.241 OA
ATOM     21  O   UNL     1      -0.009   0.149   1.357  0.00  0.00    -0.241 OA
ENDBRANCH  11  19
BRANCH  10  22
ATOM     22  N   UNL     1       3.014  -0.203   0.380  0.00  0.00    -0.359 N 
ATOM     23  H   UNL     1       2.158  -0.890   0.445  0.00  0.00    +0.142 HD
ATOM     24  H   UNL     1       4.040  -0.593   0.459  0.00  0.00    +0.142 HD
ENDBRANCH  10  22
BRANCH   9  25
ATOM     25  C   UNL     1       4.577   1.948  -1.232  0.00  0.00    +0.091 C 
ATOM     26  N   UNL     1       5.023   1.882  -2.275  0.00  0.00    -0.194 NA
ENDBRANCH   9  25
BRANCH   9  27
ATOM     27  C   UNL     1       5.003   1.582   1.098  0.00  0.00    +0.091 C 
ATOM     28  N   UNL     1       5.777   1.234   1.854  0.00  0.00    -0.194 NA
ENDBRANCH   9  27
TORSDOF 5
