REMARK  Name = ZINC01367257
REMARK  10 active torsions:
REMARK  status: ('A' for Active; 'I' for Inactive)
REMARK    1  A    between atoms: C_1  and  C_2
REMARK    2  A    between atoms: C_2  and  O_3
REMARK    3  A    between atoms: O_3  and  C_4
REMARK    4  A    between atoms: C_11  and  C_17
REMARK    5  A    between atoms: C_17  and  N_18
REMARK    6  A    between atoms: N_18  and  C_19
REMARK    7  A    between atoms: N_18  and  S_27
REMARK    8  A    between atoms: C_19  and  C_20
REMARK    9  A    between atoms: S_27  and  C_30
REMARK   10  A    between atoms: C_33  and  C_36
REMARK                            x       y       z     vdW  Elec       q    Type
REMARK                         _______ _______ _______ _____ _____    ______ ____
ROOT
ATOM      1  N   UNL     1      -1.922   2.067   1.374  0.00  0.00    -0.168 NA
ENDROOT
BRANCH   1   2
ATOM      2  S   UNL     1      -1.723   3.300   2.462  0.00  0.00    +0.061 S 
ATOM      3  O   UNL     1      -1.723   2.705   3.753  0.00  0.00    -0.153 OA
ATOM      4  O   UNL     1      -0.641   4.090   1.988  0.00  0.00    -0.153 OA
BRANCH   2   5
ATOM      5  C   UNL     1      -3.163   4.311   2.373  0.00  0.00    +0.106 A 
ATOM      6  C   UNL     1      -3.206   5.377   1.494  0.00  0.00    +0.029 A 
ATOM      7  C   UNL     1      -4.338   6.167   1.421  0.00  0.00    +0.005 A 
ATOM      8  C   UNL     1      -5.422   5.898   2.235  0.00  0.00    -0.050 A 
ATOM      9  C   UNL     1      -5.377   4.835   3.118  0.00  0.00    +0.005 A 
ATOM     10  C   UNL     1      -4.247   4.042   3.187  0.00  0.00    +0.029 A 
ATOM     11  C   UNL     1      -6.654   6.763   2.158  0.00  0.00    +0.044 C 
ENDBRANCH   2   5
ENDBRANCH   1   2
BRANCH   1  12
ATOM     12  C   UNL     1      -1.600   2.279  -0.039  0.00  0.00    +0.148 C 
BRANCH  12  20
ATOM     13  C   UNL     1       4.499   2.851  -0.986  0.00  0.00    +0.121 A 
ATOM     14  C   UNL     1       4.761   1.491  -1.138  0.00  0.00    +0.048 A 
ATOM     15  C   UNL     1       3.746   0.567  -1.045  0.00  0.00    +0.032 A 
ATOM     16  C   UNL     1       2.442   0.987  -0.798  0.00  0.00    +0.077 A 
ATOM     17  C   UNL     1       2.173   2.359  -0.644  0.00  0.00    +0.004 A 
ATOM     18  C   UNL     1       3.213   3.289  -0.740  0.00  0.00    +0.055 A 
ATOM     19  C   UNL     1       0.798   2.791  -0.384  0.00  0.00    +0.018 A 
ATOM     20  C   UNL     1      -0.177   1.857  -0.299  0.00  0.00    +0.015 A 
ATOM     21  C   UNL     1       0.132   0.486  -0.459  0.00  0.00    +0.184 A 
ATOM     22  N   UNL     1       1.411   0.077  -0.701  0.00  0.00    -0.192 N 
ATOM     23  N   UNL     1       1.344  -1.320  -0.802  0.00  0.00    -0.039 NA
ATOM     24  N   UNL     1       0.110  -1.650  -0.627  0.00  0.00    -0.022 NA
ATOM     25  N   UNL     1      -0.615  -0.609  -0.425  0.00  0.00    -0.108 NA
BRANCH  13  26
ATOM     26  O   UNL     1       5.513   3.751  -1.081  0.00  0.00    -0.492 OA
BRANCH  26  28
ATOM     27  C   UNL     1       7.822   4.384  -1.410  0.00  0.00    +0.048 C 
ATOM     28  C   UNL     1       6.820   3.231  -1.337  0.00  0.00    +0.225 C 
ENDBRANCH  26  28
ENDBRANCH  13  26
ENDBRANCH  12  20
ENDBRANCH   1  12
BRANCH   1  29
ATOM     29  C   UNL     1      -2.420   0.765   1.825  0.00  0.00    +0.146 C 
BRANCH  29  30
ATOM     30  C   UNL     1      -3.919   0.723   1.681  0.00  0.00    -0.013 A 
ATOM     31  C   UNL     1      -4.726   1.045   2.756  0.00  0.00    +0.006 A 
ATOM     32  C   UNL     1      -6.102   1.010   2.622  0.00  0.00    +0.000 A 
ATOM     33  C   UNL     1      -6.671   0.645   1.416  0.00  0.00    +0.001 A 
ATOM     34  C   UNL     1      -5.865   0.319   0.342  0.00  0.00    +0.020 A 
ATOM     35  C   UNL     1      -4.488   0.358   0.474  0.00  0.00    +0.045 A 
ATOM     36 CL   UNL     1      -3.474  -0.053  -0.875  0.00  0.00    -0.083 Cl
ENDBRANCH  29  30
ENDBRANCH   1  29
TORSDOF 8
