REMARK  Name = ZINC39487495
REMARK  9 active torsions:
REMARK  status: ('A' for Active; 'I' for Inactive)
REMARK    1  A    between atoms: C_1  and  C_2
REMARK    2  A    between atoms: C_2  and  C_3
REMARK    3  A    between atoms: C_3  and  C_4
REMARK    4  A    between atoms: C_4  and  C_31
REMARK    5  A    between atoms: N_6  and  C_24
REMARK    6  A    between atoms: N_9  and  C_10
REMARK    7  A    between atoms: C_10  and  C_11
REMARK    8  A    between atoms: C_11  and  C_18
REMARK    9  A    between atoms: C_29  and  O_30
REMARK                            x       y       z     vdW  Elec       q    Type
REMARK                         _______ _______ _______ _____ _____    ______ ____
ROOT
ATOM      1  C   UNL     1       1.526  -2.497  -1.233  0.00  0.00    +0.052 C 
ATOM      2  C   UNL     1       2.744  -3.008  -0.438  0.00  0.00    +0.141 C 
ATOM      3  N   UNL     1       3.699  -3.415  -1.479  0.00  0.00    -0.250 N 
ATOM      4  C   UNL     1       3.159  -3.191  -2.684  0.00  0.00    +0.310 C 
ATOM      5  O   UNL     1       3.736  -3.437  -3.725  0.00  0.00    -0.252 OA
ATOM      6  N   UNL     1       1.925  -2.670  -2.638  0.00  0.00    -0.278 N 
ATOM      7  C   UNL     1       0.286  -3.335  -0.920  0.00  0.00    +0.033 C 
ENDROOT
BRANCH   3   8
ATOM      8  C   UNL     1       4.973  -3.952  -1.247  0.00  0.00    +0.079 A 
ATOM      9  C   UNL     1       5.126  -5.315  -1.043  0.00  0.00    +0.027 A 
ATOM     10  C   UNL     1       6.383  -5.842  -0.815  0.00  0.00    +0.002 A 
ATOM     11  C   UNL     1       7.490  -5.014  -0.789  0.00  0.00    +0.004 A 
ATOM     12  C   UNL     1       7.345  -3.654  -0.991  0.00  0.00    +0.047 A 
ATOM     13  C   UNL     1       6.089  -3.118  -1.226  0.00  0.00    +0.138 A 
BRANCH  13  14
ATOM     14  O   UNL     1       5.945  -1.782  -1.431  0.00  0.00    -0.505 OA
ATOM     15  H   UNL     1       5.873  -1.265  -0.617  0.00  0.00    +0.292 HD
ENDBRANCH  13  14
ENDBRANCH   3   8
BRANCH   1  16
ATOM     16  C   UNL     1       1.266  -1.020  -0.926  0.00  0.00    +0.027 C 
BRANCH  16  18
ATOM     17  C   UNL     1       0.423   0.586   0.792  0.00  0.00    +0.004 C 
ATOM     18  C   UNL     1       0.774  -0.878   0.515  0.00  0.00    -0.001 C 
ENDBRANCH  16  18
ENDBRANCH   1  16
BRANCH   6  19
ATOM     19  C   UNL     1       1.105  -2.327  -3.802  0.00  0.00    +0.117 C 
BRANCH  19  20
ATOM     20  C   UNL     1       1.671  -1.075  -4.474  0.00  0.00    -0.008 C 
ATOM     21  C   UNL     1       0.904  -0.799  -5.771  0.00  0.00    +0.025 C 
ATOM     22  C   UNL     1       1.099  -1.973  -6.733  0.00  0.00    +0.098 C 
ATOM     23  N   UNL     1       2.530  -2.143  -7.017  0.00  0.00    -0.242 NA
ATOM     24  C   UNL     1       3.280  -2.455  -5.794  0.00  0.00    +0.098 C 
ATOM     25  C   UNL     1       3.150  -1.296  -4.803  0.00  0.00    +0.025 C 
ATOM     26 BR   UNL     1       2.800  -3.438  -8.310  0.00  0.00    +0.013 Br
BRANCH  20  27
ATOM     27  C   UNL     1       1.530   0.121  -3.531  0.00  0.00    -0.003 C 
ATOM     28  C   UNL     1       0.050   0.475  -3.374  0.00  0.00    +0.004 C 
ATOM     29  C   UNL     1      -0.091   1.671  -2.430  0.00  0.00    +0.000 C 
ATOM     30  C   UNL     1       0.663   2.870  -3.010  0.00  0.00    +0.000 C 
ATOM     31  C   UNL     1       2.143   2.516  -3.167  0.00  0.00    +0.000 C 
ATOM     32  C   UNL     1       2.284   1.320  -4.111  0.00  0.00    +0.004 C 
ENDBRANCH  20  27
ENDBRANCH  19  20
ENDBRANCH   6  19
TORSDOF 7
