REMARK  Name = ZINC66740519
REMARK  3 active torsions:
REMARK  status: ('A' for Active; 'I' for Inactive)
REMARK    1  A    between atoms: C_1  and  C_2
REMARK    2  A    between atoms: C_11  and  C_14
REMARK    3  A    between atoms: C_17  and  N_20
REMARK                            x       y       z     vdW  Elec       q    Type
REMARK                         _______ _______ _______ _____ _____    ______ ____
ROOT
ATOM      1  C   UNL     1      -0.018   1.503   0.010  0.00  0.00    +0.067 C 
ATOM      2  C   UNL     1       0.002  -0.004   0.002  0.00  0.00    +0.055 A 
ATOM      3  C   UNL     1       0.008  -0.795  -1.075  0.00  0.00    +0.082 A 
ATOM      4  C   UNL     1       0.036  -2.138  -0.574  0.00  0.00    +0.168 A 
ATOM      5  N   UNL     1       0.036  -2.062   0.724  0.00  0.00    -0.167 NA
ATOM      6  N   UNL     1       0.024  -0.824   1.094  0.00  0.00    -0.279 N 
ATOM      7  H   UNL     1       0.027  -0.521   2.015  0.00  0.00    +0.189 HD
ATOM      8  C   UNL     1       0.065  -3.267  -1.523  0.00  0.00    +0.268 C 
ATOM      9  O   UNL     1       0.262  -4.408  -1.151  0.00  0.00    -0.268 OA
ATOM     10  N   UNL     1      -0.138  -2.973  -2.829  0.00  0.00    -0.288 N 
ATOM     11  C   UNL     1      -0.547  -1.654  -3.298  0.00  0.00    +0.190 C 
ATOM     12  N   UNL     1      -0.010  -0.572  -2.459  0.00  0.00    -0.319 N 
ATOM     13  H   UNL     1      -0.004  -3.674  -3.486  0.00  0.00    +0.151 HD
ATOM     14  H   UNL     1       0.316   0.257  -2.844  0.00  0.00    +0.148 HD
ENDROOT
BRANCH  11  15
ATOM     15  C   UNL     1      -2.052  -1.577  -3.288  0.00  0.00    -0.009 A 
ATOM     16  C   UNL     1      -2.680  -0.363  -3.081  0.00  0.00    +0.009 A 
ATOM     17  C   UNL     1      -4.061  -0.293  -3.072  0.00  0.00    +0.033 A 
ATOM     18  C   UNL     1      -4.813  -1.436  -3.269  0.00  0.00    +0.126 A 
ATOM     19  C   UNL     1      -4.184  -2.649  -3.476  0.00  0.00    +0.033 A 
ATOM     20  C   UNL     1      -2.804  -2.719  -3.490  0.00  0.00    +0.009 A 
BRANCH  18  21
ATOM     21  N   UNL     1      -6.291  -1.360  -3.257  0.00  0.00    +0.056 N 
ATOM     22  O   UNL     1      -6.841  -0.299  -3.076  0.00  0.00    -0.126 OA
ATOM     23  O   UNL     1      -6.949  -2.360  -3.430  0.00  0.00    -0.126 OA
ENDBRANCH  18  21
ENDBRANCH  11  15
TORSDOF 2
