REMARK  Name = ZINC08901325
REMARK  12 active torsions:
REMARK  status: ('A' for Active; 'I' for Inactive)
REMARK    1  A    between atoms: C_1  and  C_2
REMARK    2  A    between atoms: C_2  and  O_3
REMARK    3  A    between atoms: O_3  and  C_4
REMARK    4  A    between atoms: C_4  and  C_6
REMARK    5  A    between atoms: C_7  and  C_29
REMARK    6  A    between atoms: C_8  and  C_27
REMARK    7  A    between atoms: C_9  and  N_11
REMARK    8  A    between atoms: C_12  and  C_14
REMARK    9  A    between atoms: C_14  and  O_15
REMARK   10  A    between atoms: O_15  and  C_16
REMARK   11  A    between atoms: C_18  and  C_25
REMARK   12  A    between atoms: C_20  and  C_23
REMARK                            x       y       z     vdW  Elec       q    Type
REMARK                         _______ _______ _______ _____ _____    ______ ____
ROOT
ATOM      1  N   UNL     1       2.088   4.348   0.005  0.00  0.00    -0.276 N 
ATOM      2  C   UNL     1       1.030   3.513   0.011  0.00  0.00    +0.255 C 
ATOM      3  O   UNL     1      -0.097   3.961   0.024  0.00  0.00    -0.272 OA
ATOM      4  H   UNL     1       2.989   3.990  -0.005  0.00  0.00    +0.155 HD
ENDROOT
BRANCH   1   8
ATOM      5  C   UNL     1       1.033   8.249   0.035  0.00  0.00    +0.102 A 
ATOM      6  C   UNL     1       2.398   8.045   0.022  0.00  0.00    -0.010 A 
ATOM      7  C   UNL     1       2.845   6.734   0.011  0.00  0.00    +0.084 A 
ATOM      8  C   UNL     1       1.888   5.716   0.015  0.00  0.00    +0.090 A 
ATOM      9  S   UNL     1       0.390   6.586   0.026  0.00  0.00    -0.065 S 
ATOM     10  C   UNL     1       3.363   9.202   0.019  0.00  0.00    +0.046 C 
BRANCH   5  11
ATOM     11  C   UNL     1       0.298   9.513   0.048  0.00  0.00    +0.346 C 
ATOM     12  O   UNL     1       0.903  10.568   0.048  0.00  0.00    -0.244 OA
BRANCH  11  13
ATOM     13  O   UNL     1      -1.051   9.509   0.060  0.00  0.00    -0.461 OA
BRANCH  13  15
ATOM     14  C   UNL     1      -3.220  10.575   0.085  0.00  0.00    +0.048 C 
ATOM     15  C   UNL     1      -1.704  10.780   0.072  0.00  0.00    +0.229 C 
ENDBRANCH  13  15
ENDBRANCH  11  13
ENDBRANCH   5  11
BRANCH   7  16
ATOM     16  C   UNL     1       4.245   6.432  -0.003  0.00  0.00    +0.102 C 
ATOM     17  N   UNL     1       5.355   6.192  -0.014  0.00  0.00    -0.191 NA
ENDBRANCH   7  16
ENDBRANCH   1   8
BRANCH   2  18
ATOM     18  C   UNL     1       1.248   2.022   0.001  0.00  0.00    +0.325 C 
BRANCH  18  19
ATOM     19  O   UNL     1      -0.016   1.355   0.009  0.00  0.00    -0.480 OA
BRANCH  19  20
ATOM     20  C   UNL     1       0.002  -0.004   0.002  0.00  0.00    +0.158 A 
ATOM     21  C   UNL     1      -0.006  -0.693  -1.203  0.00  0.00    +0.088 A 
ATOM     22  C   UNL     1       0.019  -2.075  -1.208  0.00  0.00    -0.010 A 
ATOM     23  C   UNL     1       0.040  -2.772  -0.013  0.00  0.00    +0.050 A 
ATOM     24  C   UNL     1       0.042  -2.088   1.189  0.00  0.00    -0.010 A 
ATOM     25  C   UNL     1       0.023  -0.705   1.199  0.00  0.00    +0.088 A 
ATOM     26 CL   UNL     1       0.026   0.152   2.709  0.00  0.00    -0.079 Cl
ATOM     27  C   UNL     1       0.064  -2.850   2.489  0.00  0.00    +0.047 C 
ATOM     28 CL   UNL     1       0.063  -4.508  -0.023  0.00  0.00    -0.083 Cl
ATOM     29  C   UNL     1       0.018  -2.823  -2.516  0.00  0.00    +0.047 C 
ATOM     30 CL   UNL     1      -0.039   0.181  -2.703  0.00  0.00    -0.079 Cl
ENDBRANCH  19  20
ENDBRANCH  18  19
ENDBRANCH   2  18
TORSDOF 8
