REMARK  Name = ZINC20568377
REMARK  10 active torsions:
REMARK  status: ('A' for Active; 'I' for Inactive)
REMARK    1  A    between atoms: C_1  and  C_2
REMARK    2  A    between atoms: C_7  and  C_9
REMARK    3  A    between atoms: C_7  and  C_10
REMARK    4  A    between atoms: N_11  and  C_13
REMARK    5  A    between atoms: C_13  and  N_14
REMARK    6  A    between atoms: N_22  and  N_23
REMARK    7  A    between atoms: C_24  and  C_26
REMARK    8  A    between atoms: C_29  and  N_32
REMARK    9  A    between atoms: N_32  and  C_33
REMARK   10  A    between atoms: N_32  and  C_34
REMARK                            x       y       z     vdW  Elec       q    Type
REMARK                         _______ _______ _______ _____ _____    ______ ____
ROOT
ATOM      1  N   UNL     1       1.335  -2.447  -3.369  0.00  0.00    -0.282 N 
ATOM      2  C   UNL     1       0.863  -2.575  -4.670  0.00  0.00    +0.044 A 
ATOM      3  C   UNL     1      -0.341  -3.055  -5.173  0.00  0.00    +0.024 A 
ATOM      4  C   UNL     1      -0.564  -3.075  -6.535  0.00  0.00    +0.002 A 
ATOM      5  C   UNL     1       0.403  -2.620  -7.415  0.00  0.00    +0.001 A 
ATOM      6  C   UNL     1       1.605  -2.139  -6.935  0.00  0.00    +0.012 A 
ATOM      7  C   UNL     1       1.839  -2.115  -5.564  0.00  0.00    +0.028 A 
ATOM      8  C   UNL     1       2.988  -1.675  -4.739  0.00  0.00    +0.153 C 
ATOM      9  N   UNL     1       4.125  -1.173  -5.157  0.00  0.00    -0.174 NA
ATOM     10  C   UNL     1       2.572  -1.921  -3.344  0.00  0.00    +0.270 C 
ATOM     11  O   UNL     1       3.232  -1.690  -2.348  0.00  0.00    -0.268 OA
ENDROOT
BRANCH   9  12
ATOM     12  N   UNL     1       5.112  -0.808  -4.231  0.00  0.00    -0.202 N 
ATOM     13  C   UNL     1       6.280  -0.292  -4.661  0.00  0.00    +0.263 C 
ATOM     14  O   UNL     1       6.479  -0.144  -5.851  0.00  0.00    -0.268 OA
ATOM     15  H   UNL     1       4.953  -0.927  -3.282  0.00  0.00    +0.178 HD
BRANCH  13  16
ATOM     16  C   UNL     1       7.318   0.092  -3.687  0.00  0.00    +0.038 A 
ATOM     17  C   UNL     1       7.094  -0.084  -2.318  0.00  0.00    +0.015 A 
ATOM     18  C   UNL     1       8.062   0.275  -1.415  0.00  0.00    +0.024 A 
ATOM     19  C   UNL     1       9.266   0.812  -1.859  0.00  0.00    +0.029 A 
ATOM     20  C   UNL     1       9.493   0.989  -3.222  0.00  0.00    +0.024 A 
ATOM     21  C   UNL     1       8.532   0.627  -4.131  0.00  0.00    +0.015 A 
BRANCH  19  22
ATOM     22  N   UNL     1      10.245   1.174  -0.941  0.00  0.00    -0.336 N 
ATOM     23  C   UNL     1      10.009   0.990   0.493  0.00  0.00    +0.129 C 
ATOM     24  C   UNL     1      11.514   1.740  -1.407  0.00  0.00    +0.129 C 
ENDBRANCH  19  22
ENDBRANCH  13  16
ENDBRANCH   9  12
BRANCH   1  25
ATOM     25  C   UNL     1       0.578  -2.831  -2.175  0.00  0.00    +0.039 C 
BRANCH  25  35
ATOM     26  C   UNL     1      -0.019   1.532   0.011  0.00  0.00    +0.009 C 
ATOM     27  C   UNL     1       0.002  -0.004   0.002  0.00  0.00    -0.048 C 
ATOM     28  C   UNL     1      -1.426  -0.615   0.004  0.00  0.00    -0.011 C 
ATOM     29  C   UNL     1      -1.101  -2.018  -0.581  0.00  0.00    -0.065 C 
ATOM     30  C   UNL     1      -0.397  -2.817   0.499  0.00  0.00    -0.009 C 
ATOM     31  C   UNL     1       0.663  -2.102   1.307  0.00  0.00    -0.036 C 
ATOM     32  C   UNL     1       0.727  -0.591   1.214  0.00  0.00    +0.011 C 
ATOM     33  C   UNL     1       0.412  -2.453   2.797  0.00  0.00    +0.011 C 
ATOM     34  C   UNL     1       2.047  -2.686   0.964  0.00  0.00    +0.011 C 
ATOM     35  N   UNL     1      -0.211  -1.695  -1.714  0.00  0.00    +0.393 N 
ATOM     36  C   UNL     1       0.647  -0.577  -1.281  0.00  0.00    -0.070 C 
ATOM     37  H   UNL     1      -0.789  -1.365  -2.490  0.00  0.00    -0.079 HD
ENDBRANCH  25  35
ENDBRANCH   1  25
TORSDOF 5
