REMARK  Name = ZINC00966020
REMARK  10 active torsions:
REMARK  status: ('A' for Active; 'I' for Inactive)
REMARK    1  A    between atoms: C_1  and  C_2
REMARK    2  A    between atoms: C_7  and  N_8
REMARK    3  A    between atoms: C_9  and  C_32
REMARK    4  A    between atoms: C_12  and  S_13
REMARK    5  A    between atoms: S_13  and  C_14
REMARK    6  A    between atoms: C_14  and  C_15
REMARK    7  A    between atoms: C_17  and  C_20
REMARK    8  A    between atoms: N_22  and  C_23
REMARK    9  A    between atoms: C_23  and  C_25
REMARK   10  A    between atoms: C_23  and  C_26
REMARK                            x       y       z     vdW  Elec       q    Type
REMARK                         _______ _______ _______ _____ _____    ______ ____
ROOT
ATOM      1  S   UNL     1       3.033  -5.623   0.349  0.00  0.00    -0.079 S 
ENDROOT
BRANCH   1   6
ATOM      2  N   UNL     1       2.439  -2.889   0.244  0.00  0.00    -0.270 N 
ATOM      3  C   UNL     1       1.322  -2.127  -0.022  0.00  0.00    +0.171 A 
ATOM      4  N   UNL     1       0.343  -2.959  -0.292  0.00  0.00    -0.128 NA
ATOM      5  N   UNL     1       0.761  -4.171  -0.208  0.00  0.00    -0.122 NA
ATOM      6  C   UNL     1       2.034  -4.190   0.120  0.00  0.00    +0.197 A 
BRANCH   2  13
ATOM      7  C   UNL     1       4.286  -2.412  -1.868  0.00  0.00    +0.046 C 
ATOM      8  C   UNL     1       4.652  -2.183  -0.424  0.00  0.00    -0.026 A 
ATOM      9  C   UNL     1       5.912  -1.724  -0.094  0.00  0.00    +0.005 A 
ATOM     10  C   UNL     1       6.250  -1.521   1.231  0.00  0.00    +0.000 A 
ATOM     11  C   UNL     1       5.326  -1.769   2.230  0.00  0.00    +0.002 A 
ATOM     12  C   UNL     1       4.063  -2.223   1.906  0.00  0.00    +0.026 A 
ATOM     13  C   UNL     1       3.720  -2.429   0.576  0.00  0.00    +0.053 A 
ENDBRANCH   2  13
BRANCH   3  14
ATOM     14  C   UNL     1       1.244  -0.651  -0.013  0.00  0.00    +0.038 A 
ATOM     15  C   UNL     1       0.002  -0.004   0.002  0.00  0.00    +0.014 A 
ATOM     16  C   UNL     1      -0.017   1.379   0.010  0.00  0.00    +0.020 A 
ATOM     17  C   UNL     1       1.180   2.073   0.002  0.00  0.00    +0.111 A 
ATOM     18  N   UNL     1       2.336   1.437  -0.013  0.00  0.00    -0.263 NA
ATOM     19  C   UNL     1       2.406   0.122  -0.020  0.00  0.00    +0.122 A 
ENDBRANCH   3  14
ENDBRANCH   1   6
BRANCH   1  20
ATOM     20  C   UNL     1       1.812  -6.915   0.009  0.00  0.00    +0.140 C 
BRANCH  20  21
ATOM     21  C   UNL     1       2.461  -8.268   0.150  0.00  0.00    +0.089 A 
ATOM     22  N   UNL     1       2.562  -9.018   1.216  0.00  0.00    -0.239 NA
ATOM     23  C   UNL     1       3.176 -10.200   1.144  0.00  0.00    +0.133 A 
ATOM     24  C   UNL     1       3.691 -10.574  -0.071  0.00  0.00    +0.080 A 
ATOM     25  S   UNL     1       3.265  -9.214  -1.061  0.00  0.00    -0.079 S 
BRANCH  23  26
ATOM     26  C   UNL     1       3.300 -11.070   2.326  0.00  0.00    +0.263 C 
ATOM     27  O   UNL     1       3.869 -12.141   2.236  0.00  0.00    -0.268 OA
ATOM     28  N   UNL     1       2.785 -10.678   3.508  0.00  0.00    -0.304 N 
ATOM     29  H   UNL     1       2.332  -9.823   3.580  0.00  0.00    +0.150 HD
BRANCH  28  30
ATOM     30  C   UNL     1       2.909 -11.542   4.684  0.00  0.00    +0.100 C 
ATOM     31  C   UNL     1       4.261 -11.296   5.358  0.00  0.00    +0.033 C 
BRANCH  30  32
ATOM     32  C   UNL     1       1.799 -11.232   5.655  0.00  0.00    -0.027 A 
ATOM     33  C   UNL     1       1.418  -9.921   5.874  0.00  0.00    +0.005 A 
ATOM     34  C   UNL     1       0.397  -9.637   6.761  0.00  0.00    +0.000 A 
ATOM     35  C   UNL     1      -0.236 -10.663   7.437  0.00  0.00    +0.000 A 
ATOM     36  C   UNL     1       0.148 -11.973   7.223  0.00  0.00    +0.000 A 
ATOM     37  C   UNL     1       1.166 -12.258   6.332  0.00  0.00    +0.005 A 
ENDBRANCH  30  32
ENDBRANCH  28  30
ENDBRANCH  23  26
ENDBRANCH  20  21
ENDBRANCH   1  20
TORSDOF 8
