REMARK  Name = ZINC29603752
REMARK  7 active torsions:
REMARK  status: ('A' for Active; 'I' for Inactive)
REMARK    1  A    between atoms: C_1  and  C_2
REMARK    2  A    between atoms: C_5  and  N_9
REMARK    3  A    between atoms: C_10  and  C_12
REMARK    4  A    between atoms: C_12  and  C_14
REMARK    5  A    between atoms: C_12  and  N_15
REMARK    6  A    between atoms: N_15  and  C_16
REMARK    7  A    between atoms: C_23  and  C_25
REMARK                            x       y       z     vdW  Elec       q    Type
REMARK                         _______ _______ _______ _____ _____    ______ ____
ROOT
ATOM      1  C   UNL     1       3.744  -0.965   0.176  0.00  0.00    +0.154 C 
ATOM      2  C   UNL     1       4.583  -0.666  -1.068  0.00  0.00    +0.038 C 
ENDROOT
BRANCH   1   4
ATOM      3  N   UNL     1       2.403   1.105  -0.015  0.00  0.00    -0.282 N 
ATOM      4  C   UNL     1       2.427  -0.239   0.079  0.00  0.00    +0.237 C 
ATOM      5  O   UNL     1       1.388  -0.865   0.086  0.00  0.00    -0.273 OA
ATOM      6  H   UNL     1       3.344   1.666  -0.113  0.00  0.00    +0.155 HD
BRANCH   3  11
ATOM      7  C   UNL     1      -2.554   3.868   0.091  0.00  0.00    +0.044 C 
ATOM      8  C   UNL     1      -1.237   3.135   0.063  0.00  0.00    -0.048 A 
ATOM      9  C   UNL     1      -1.130   1.886   0.646  0.00  0.00    +0.005 A 
ATOM     10  C   UNL     1       0.076   1.213   0.626  0.00  0.00    +0.026 A 
ATOM     11  C   UNL     1       1.180   1.787   0.011  0.00  0.00    +0.069 A 
ATOM     12  C   UNL     1       1.069   3.042  -0.579  0.00  0.00    +0.145 A 
ATOM     13  C   UNL     1      -0.140   3.712  -0.550  0.00  0.00    +0.043 A 
ATOM     14  F   UNL     1       2.141   3.605  -1.178  0.00  0.00    -0.204 F 
ENDBRANCH   3  11
ENDBRANCH   1   4
BRANCH   1  15
ATOM     15  N   UNL     1       3.502  -2.406   0.268  0.00  0.00    -0.333 N 
ATOM     16  H   UNL     1       2.574  -2.835  -0.139  0.00  0.00    +0.147 HD
BRANCH  15  17
ATOM     17  C   UNL     1       4.451  -3.238   0.873  0.00  0.00    +0.030 A 
ATOM     18  C   UNL     1       5.625  -2.692   1.387  0.00  0.00    +0.026 A 
ATOM     19  C   UNL     1       6.567  -3.501   1.986  0.00  0.00    +0.050 A 
ATOM     20  C   UNL     1       6.348  -4.867   2.078  0.00  0.00    +0.155 A 
ATOM     21  C   UNL     1       5.169  -5.424   1.563  0.00  0.00    +0.111 A 
ATOM     22  C   UNL     1       4.217  -4.598   0.963  0.00  0.00    +0.054 A 
ATOM     23  N   UNL     1       5.238  -6.763   1.797  0.00  0.00    -0.213 NA
ATOM     24  C   UNL     1       6.357  -7.024   2.404  0.00  0.00    +0.194 A 
ATOM     25  O   UNL     1       7.059  -5.896   2.592  0.00  0.00    -0.440 OA
ATOM     26  C   UNL     1       6.802  -8.398   2.834  0.00  0.00    +0.109 C 
ENDBRANCH  15  17
ENDBRANCH   1  15
TORSDOF 4
