REMARK  Name = ZINC40934889
REMARK  11 active torsions:
REMARK  status: ('A' for Active; 'I' for Inactive)
REMARK    1  A    between atoms: C_1  and  C_2
REMARK    2  A    between atoms: C_4  and  C_29
REMARK    3  A    between atoms: C_5  and  C_28
REMARK    4  A    between atoms: C_6  and  O_8
REMARK    5  A    between atoms: O_8  and  C_9
REMARK    6  A    between atoms: C_9  and  C_10
REMARK    7  A    between atoms: C_15  and  C_18
REMARK    8  A    between atoms: C_21  and  O_24
REMARK    9  A    between atoms: O_24  and  C_25
REMARK   10  A    between atoms: C_25  and  C_26
REMARK   11  A    between atoms: C_25  and  C_27
REMARK                            x       y       z     vdW  Elec       q    Type
REMARK                         _______ _______ _______ _____ _____    ______ ____
ROOT
ATOM      1  C   UNL     1       1.436  -2.961   4.845  0.00  0.00    +0.256 C 
ATOM      2  O   UNL     1       1.619  -4.152   4.704  0.00  0.00    -0.272 OA
ATOM      3  N   UNL     1       1.207  -2.455   6.072  0.00  0.00    -0.262 N 
ATOM      4  C   UNL     1       1.181  -3.297   7.177  0.00  0.00    +0.165 A 
ATOM      5  N   UNL     1       0.970  -3.003   8.447  0.00  0.00    -0.225 NA
ATOM      6  C   UNL     1       0.980  -3.942   9.381  0.00  0.00    +0.080 A 
ATOM      7  C   UNL     1       1.212  -5.241   9.024  0.00  0.00    +0.076 A 
ATOM      8  S   UNL     1       1.415  -5.067   7.256  0.00  0.00    -0.060 S 
ATOM      9  H   UNL     1       1.060  -1.503   6.185  0.00  0.00    +0.157 HD
ENDROOT
BRANCH   6  10
ATOM     10  C   UNL     1       0.741  -3.587  10.802  0.00  0.00    +0.001 A 
ATOM     11  C   UNL     1       0.759  -4.579  11.781  0.00  0.00    +0.013 A 
ATOM     12  C   UNL     1       0.537  -4.245  13.101  0.00  0.00    +0.046 A 
ATOM     13  C   UNL     1       0.297  -2.925  13.454  0.00  0.00    +0.121 A 
ATOM     14  C   UNL     1       0.279  -1.935  12.481  0.00  0.00    +0.046 A 
ATOM     15  C   UNL     1       0.505  -2.261  11.160  0.00  0.00    +0.013 A 
BRANCH  13  16
ATOM     16  O   UNL     1       0.078  -2.600  14.756  0.00  0.00    -0.489 OA
BRANCH  16  17
ATOM     17  C   UNL     1      -0.007  -3.679  15.689  0.00  0.00    +0.167 C 
ATOM     18  C   UNL     1       1.400  -4.073  16.143  0.00  0.00    +0.051 C 
ATOM     19  C   UNL     1      -0.831  -3.241  16.901  0.00  0.00    +0.051 C 
ENDBRANCH  16  17
ENDBRANCH  13  16
ENDBRANCH   6  10
BRANCH   1  20
ATOM     20  C   UNL     1       1.464  -2.048   3.646  0.00  0.00    +0.325 C 
BRANCH  20  21
ATOM     21  O   UNL     1       1.722  -2.815   2.469  0.00  0.00    -0.482 OA
BRANCH  21  27
ATOM     22  C   UNL     1       1.449   1.415   0.050  0.00  0.00    +0.044 C 
ATOM     23  C   UNL     1       1.653  -0.077   0.073  0.00  0.00    -0.047 A 
ATOM     24  C   UNL     1       1.899  -0.760  -1.104  0.00  0.00    +0.007 A 
ATOM     25  C   UNL     1       2.087  -2.129  -1.086  0.00  0.00    -0.044 A 
ATOM     26  C   UNL     1       2.028  -2.820   0.110  0.00  0.00    -0.006 A 
ATOM     27  C   UNL     1       1.781  -2.138   1.292  0.00  0.00    +0.125 A 
ATOM     28  C   UNL     1       1.599  -0.762   1.272  0.00  0.00    +0.049 A 
ATOM     29  C   UNL     1       2.232  -4.313   0.129  0.00  0.00    +0.048 C 
ATOM     30  C   UNL     1       2.356  -2.869  -2.371  0.00  0.00    +0.044 C 
ENDBRANCH  21  27
ENDBRANCH  20  21
ENDBRANCH   1  20
TORSDOF 6
