REMARK  Name = ZINC13393487
REMARK  8 active torsions:
REMARK  status: ('A' for Active; 'I' for Inactive)
REMARK    1  A    between atoms: C_1  and  C_2
REMARK    2  A    between atoms: C_4  and  C_16
REMARK    3  A    between atoms: C_12  and  C_13
REMARK    4  A    between atoms: C_16  and  S_17
REMARK    5  A    between atoms: S_17  and  C_18
REMARK    6  A    between atoms: N_30  and  C_31
REMARK    7  A    between atoms: C_31  and  C_32
REMARK    8  A    between atoms: C_31  and  C_33
REMARK                            x       y       z     vdW  Elec       q    Type
REMARK                         _______ _______ _______ _____ _____    ______ ____
ROOT
ATOM      1  S   UNL     1      -1.988   1.764  -2.046  0.00  0.00    -0.083 S 
ENDROOT
BRANCH   1   2
ATOM      2  C   UNL     1      -1.791   3.452  -2.512  0.00  0.00    +0.173 A 
ATOM      3  N   UNL     1      -0.714   3.821  -3.175  0.00  0.00    -0.216 NA
ATOM      4  C   UNL     1      -0.540   5.087  -3.539  0.00  0.00    +0.117 A 
ATOM      5  C   UNL     1      -1.480   6.083  -3.239  0.00  0.00    +0.076 A 
ATOM      6  C   UNL     1      -1.153   7.441  -3.706  0.00  0.00    -0.023 A 
ATOM      7  C   UNL     1       0.004   7.592  -4.370  0.00  0.00    -0.004 A 
ATOM      8  S   UNL     1       0.725   5.967  -4.415  0.00  0.00    -0.073 S 
ATOM      9  C   UNL     1       0.230   9.016  -4.801  0.00  0.00    +0.043 C 
ATOM     10  C   UNL     1      -1.160   9.680  -4.690  0.00  0.00    +0.010 C 
ATOM     11  C   UNL     1      -1.839   8.807  -3.617  0.00  0.00    +0.037 C 
ATOM     12  C   UNL     1      -2.640   5.657  -2.519  0.00  0.00    +0.263 A 
ATOM     13  O   UNL     1      -3.510   6.455  -2.216  0.00  0.00    -0.267 OA
ATOM     14  N   UNL     1      -2.758   4.358  -2.185  0.00  0.00    -0.285 N 
BRANCH  14  15
ATOM     15  C   UNL     1      -3.945   3.909  -1.452  0.00  0.00    +0.087 C 
ATOM     16  C   UNL     1      -4.018   4.636  -0.107  0.00  0.00    +0.031 C 
ATOM     17  C   UNL     1      -5.199   4.223  -2.270  0.00  0.00    +0.031 C 
ENDBRANCH  14  15
ENDBRANCH   1   2
BRANCH   1  18
ATOM     18  C   UNL     1      -0.492   0.957  -2.677  0.00  0.00    +0.113 C 
BRANCH  18  22
ATOM     19  C   UNL     1       0.517   1.309  -0.106  0.00  0.00    +0.046 C 
ATOM     20  C   UNL     1       0.389  -0.188   0.009  0.00  0.00    -0.020 A 
ATOM     21  C   UNL     1      -0.101  -0.965  -1.054  0.00  0.00    +0.014 A 
ATOM     22  C   UNL     1      -0.534  -0.512  -2.342  0.00  0.00    -0.022 A 
ATOM     23  C   UNL     1      -0.982  -1.402  -3.256  0.00  0.00    +0.075 A 
ATOM     24  C   UNL     1      -1.028  -2.777  -2.960  0.00  0.00    +0.250 A 
ATOM     25  O   UNL     1      -1.434  -3.568  -3.795  0.00  0.00    -0.268 OA
ATOM     26  N   UNL     1      -0.624  -3.218  -1.752  0.00  0.00    -0.317 N 
ATOM     27  H   UNL     1      -0.657  -4.166  -1.551  0.00  0.00    +0.169 HD
ATOM     28  C   UNL     1      -0.170  -2.346  -0.815  0.00  0.00    +0.089 A 
ATOM     29  S   UNL     1       0.396  -2.548   0.747  0.00  0.00    -0.064 S 
ATOM     30  C   UNL     1       0.749  -0.849   1.148  0.00  0.00    +0.106 A 
BRANCH  30  31
ATOM     31  C   UNL     1       1.272  -0.314   2.353  0.00  0.00    +0.393 C 
ATOM     32  O   UNL     1       1.453   0.892   2.460  0.00  0.00    -0.240 OA
ATOM     33  O   UNL     1       1.544  -1.060   3.287  0.00  0.00    -0.240 OA
ENDBRANCH  30  31
ENDBRANCH  18  22
ENDBRANCH   1  18
TORSDOF 5
