REMARK  Name = ZINC06057126
REMARK  10 active torsions:
REMARK  status: ('A' for Active; 'I' for Inactive)
REMARK    1  A    between atoms: C_1  and  O_2
REMARK    2  A    between atoms: O_2  and  C_3
REMARK    3  A    between atoms: C_6  and  N_9
REMARK    4  A    between atoms: N_9  and  S_10
REMARK    5  A    between atoms: S_10  and  C_13
REMARK    6  A    between atoms: C_26  and  C_29
REMARK    7  A    between atoms: C_33  and  O_37
REMARK    8  A    between atoms: C_34  and  O_35
REMARK    9  A    between atoms: O_35  and  C_36
REMARK   10  A    between atoms: O_37  and  C_38
REMARK                            x       y       z     vdW  Elec       q    Type
REMARK                         _______ _______ _______ _____ _____    ______ ____
ROOT
ATOM      1  C   UNL     1      -0.087  -2.933  -0.049  0.00  0.00    +0.109 A 
ATOM      2  C   UNL     1      -1.312  -2.505  -0.530  0.00  0.00    +0.030 A 
ATOM      3  C   UNL     1      -1.569  -1.153  -0.638  0.00  0.00    +0.025 A 
ATOM      4  C   UNL     1      -0.602  -0.229  -0.265  0.00  0.00    +0.031 A 
ATOM      5  C   UNL     1       0.626  -0.653   0.220  0.00  0.00    -0.018 A 
ATOM      6  C   UNL     1       0.874  -2.015   0.322  0.00  0.00    +0.034 A 
ATOM      7  C   UNL     1       1.695   0.305   0.640  0.00  0.00    +0.049 C 
ATOM      8  C   UNL     1       2.802   0.381  -0.385  0.00  0.00    -0.023 C 
ATOM      9  C   UNL     1       3.261   1.606  -0.467  0.00  0.00    -0.030 C 
ATOM     10  C   UNL     1       2.524   2.514   0.498  0.00  0.00    +0.033 C 
ATOM     11  C   UNL     1       1.189   1.756   0.759  0.00  0.00    +0.029 C 
ATOM     12  C   UNL     1       0.249   2.077  -0.406  0.00  0.00    +0.109 C 
ATOM     13  N   UNL     1      -0.877   1.138  -0.382  0.00  0.00    -0.336 N 
ATOM     14  H   UNL     1      -1.791   1.457  -0.450  0.00  0.00    +0.147 HD
ENDROOT
BRANCH  12  15
ATOM     15  C   UNL     1      -0.265   3.486  -0.267  0.00  0.00    +0.018 A 
ATOM     16  C   UNL     1      -0.171   4.139   0.949  0.00  0.00    +0.009 A 
ATOM     17  C   UNL     1      -0.642   5.432   1.080  0.00  0.00    +0.004 A 
ATOM     18  C   UNL     1      -1.209   6.078  -0.003  0.00  0.00    +0.049 A 
ATOM     19  C   UNL     1      -1.306   5.430  -1.223  0.00  0.00    +0.162 A 
ATOM     20  C   UNL     1      -0.828   4.130  -1.357  0.00  0.00    +0.166 A 
BRANCH  20  21
ATOM     21  O   UNL     1      -0.916   3.491  -2.554  0.00  0.00    -0.491 OA
ATOM     22  C   UNL     1      -2.157   2.849  -2.856  0.00  0.00    +0.277 C 
ENDBRANCH  20  21
BRANCH  19  23
ATOM     23  O   UNL     1      -1.863   6.064  -2.289  0.00  0.00    -0.491 OA
ATOM     24  C   UNL     1      -2.328   7.399  -2.079  0.00  0.00    +0.277 C 
ENDBRANCH  19  23
ENDBRANCH  12  15
BRANCH   1  25
ATOM     25  S   UNL     1       0.246  -4.657   0.089  0.00  0.00    +0.072 S 
ATOM     26  O   UNL     1      -0.694  -5.321  -0.745  0.00  0.00    -0.150 OA
ATOM     27  O   UNL     1       1.650  -4.814  -0.071  0.00  0.00    -0.150 OA
BRANCH  25  28
ATOM     28  N   UNL     1      -0.105  -5.101   1.645  0.00  0.00    -0.216 N 
ATOM     29  H   UNL     1       0.597  -5.434   2.225  0.00  0.00    +0.174 HD
BRANCH  28  33
ATOM     30  C   UNL     1      -4.009  -4.783   3.072  0.00  0.00    +0.120 A 
ATOM     31  C   UNL     1      -3.675  -5.797   2.186  0.00  0.00    +0.047 A 
ATOM     32  C   UNL     1      -2.382  -5.903   1.713  0.00  0.00    +0.028 A 
ATOM     33  C   UNL     1      -1.416  -4.994   2.124  0.00  0.00    +0.048 A 
ATOM     34  C   UNL     1      -1.750  -3.983   3.015  0.00  0.00    +0.028 A 
ATOM     35  C   UNL     1      -3.045  -3.875   3.483  0.00  0.00    +0.047 A 
BRANCH  30  37
ATOM     36  C   UNL     1      -5.556  -3.612   4.447  0.00  0.00    +0.277 C 
ATOM     37  O   UNL     1      -5.282  -4.680   3.538  0.00  0.00    -0.495 OA
ENDBRANCH  30  37
ENDBRANCH  28  33
ENDBRANCH  25  28
ENDBRANCH   1  25
TORSDOF 7
