REMARK  Name = ZINC05967818
REMARK  7 active torsions:
REMARK  status: ('A' for Active; 'I' for Inactive)
REMARK    1  A    between atoms: C_1  and  C_2
REMARK    2  A    between atoms: C_2  and  C_3
REMARK    3  A    between atoms: C_6  and  N_9
REMARK    4  A    between atoms: C_17  and  C_23
REMARK    5  A    between atoms: C_23  and  O_25
REMARK    6  A    between atoms: O_25  and  C_26
REMARK    7  A    between atoms: C_26  and  C_27
REMARK                            x       y       z     vdW  Elec       q    Type
REMARK                         _______ _______ _______ _____ _____    ______ ____
ROOT
ATOM      1  N   UNL     1      -0.739   5.234  -0.031  0.00  0.00    -0.268 N 
ATOM      2  C   UNL     1      -0.820   4.384  -1.260  0.00  0.00    +0.153 C 
ATOM      3  C   UNL     1      -0.372   3.051  -0.744  0.00  0.00    +0.116 C 
ATOM      4  C   UNL     1       1.113   3.009  -0.433  0.00  0.00    +0.008 C 
ATOM      5  C   UNL     1       1.355   1.780  -0.001  0.00  0.00    +0.004 C 
ATOM      6  C   UNL     1      -0.013   1.086   0.008  0.00  0.00    +0.157 C 
ATOM      7  O   UNL     1      -0.679   1.739  -1.152  0.00  0.00    -0.359 OA
ATOM      8  C   UNL     1      -0.720   1.763   1.246  0.00  0.00    +0.145 C 
ATOM      9  C   UNL     1      -1.172   3.082   0.619  0.00  0.00    +0.129 C 
ATOM     10  C   UNL     1      -0.844   4.441   1.087  0.00  0.00    +0.227 C 
ATOM     11  O   UNL     1      -0.695   4.792   2.238  0.00  0.00    -0.275 OA
ENDROOT
BRANCH   1  15
ATOM     12  C   UNL     1      -0.269   9.373  -0.001  0.00  0.00    -0.048 A 
ATOM     13  C   UNL     1      -0.364   8.681   1.193  0.00  0.00    +0.005 A 
ATOM     14  C   UNL     1      -0.520   7.309   1.186  0.00  0.00    +0.024 A 
ATOM     15  C   UNL     1      -0.582   6.624  -0.021  0.00  0.00    +0.036 A 
ATOM     16  C   UNL     1      -0.481   7.322  -1.217  0.00  0.00    +0.024 A 
ATOM     17  C   UNL     1      -0.331   8.694  -1.204  0.00  0.00    +0.005 A 
BRANCH  12  19
ATOM     18  C   UNL     1       1.393  11.213   0.033  0.00  0.00    +0.009 C 
ATOM     19  C   UNL     1      -0.098  10.870   0.010  0.00  0.00    +0.032 C 
ENDBRANCH  12  19
ENDBRANCH   1  15
BRANCH   8  20
ATOM     20  C   UNL     1      -1.888   0.937   1.720  0.00  0.00    +0.314 C 
ATOM     21  O   UNL     1      -3.003   1.400   1.700  0.00  0.00    -0.250 OA
BRANCH  20  22
ATOM     22  O   UNL     1      -1.688  -0.314   2.164  0.00  0.00    -0.460 OA
BRANCH  22  23
ATOM     23  C   UNL     1      -2.859  -1.052   2.606  0.00  0.00    +0.267 C 
BRANCH  23  24
ATOM     24  C   UNL     1      -2.443  -2.425   3.066  0.00  0.00    -0.010 A 
ATOM     25  C   UNL     1      -2.413  -3.475   2.168  0.00  0.00    +0.007 A 
ATOM     26  C   UNL     1      -2.028  -4.734   2.589  0.00  0.00    +0.000 A 
ATOM     27  C   UNL     1      -1.682  -4.945   3.911  0.00  0.00    +0.000 A 
ATOM     28  C   UNL     1      -1.717  -3.896   4.810  0.00  0.00    +0.000 A 
ATOM     29  C   UNL     1      -2.098  -2.636   4.388  0.00  0.00    +0.007 A 
ENDBRANCH  23  24
ENDBRANCH  22  23
ENDBRANCH  20  22
ENDBRANCH   8  20
TORSDOF 6
