REMARK  Name = ZINC34687635
REMARK  7 active torsions:
REMARK  status: ('A' for Active; 'I' for Inactive)
REMARK    1  A    between atoms: C_1  and  C_2
REMARK    2  A    between atoms: C_10  and  C_14
REMARK    3  A    between atoms: C_18  and  C_20
REMARK    4  A    between atoms: C_20  and  N_21
REMARK    5  A    between atoms: N_24  and  C_27
REMARK    6  A    between atoms: C_27  and  C_29
REMARK    7  A    between atoms: C_27  and  C_35
REMARK                            x       y       z     vdW  Elec       q    Type
REMARK                         _______ _______ _______ _____ _____    ______ ____
ROOT
ATOM      1  N   UNL     1      -3.001   1.212   4.649  0.00  0.00    +0.382 N 
ATOM      2  C   UNL     1      -1.658   1.722   4.339  0.00  0.00    -0.063 C 
ATOM      3  C   UNL     1      -1.004   2.250   5.618  0.00  0.00    +0.067 C 
ATOM      4  N   UNL     1      -1.836   3.322   6.183  0.00  0.00    -0.295 NA
ATOM      5  C   UNL     1      -3.191   2.833   6.476  0.00  0.00    +0.067 C 
ATOM      6  C   UNL     1      -3.826   2.300   5.189  0.00  0.00    -0.063 C 
ATOM      7  H   UNL     1      -2.930   0.473   5.332  0.00  0.00    -0.082 HD
ENDROOT
BRANCH   1   8
ATOM      8  C   UNL     1      -3.621   0.689   3.425  0.00  0.00    -0.064 C 
BRANCH   8  24
ATOM      9  C   UNL     1      -0.464   1.187   0.061  0.00  0.00    +0.039 C 
ATOM     10  C   UNL     1      -0.226  -0.299   0.131  0.00  0.00    -0.073 C 
ATOM     11  C   UNL     1      -1.246  -1.086   0.296  0.00  0.00    -0.064 C 
ATOM     12  C   UNL     1      -2.632  -0.479   0.391  0.00  0.00    +0.039 C 
ATOM     13  C   UNL     1      -3.380  -1.019   1.581  0.00  0.00    +0.046 C 
ATOM     14  C   UNL     1      -3.266  -2.546   1.764  0.00  0.00    +0.181 C 
ATOM     15  C   UNL     1      -1.807  -3.004   1.696  0.00  0.00    +0.056 C 
ATOM     16  C   UNL     1      -1.155  -2.583   0.392  0.00  0.00    -0.007 C 
ATOM     17  C   UNL     1       0.276  -3.093   0.353  0.00  0.00    +0.011 C 
ATOM     18  C   UNL     1       1.140  -2.230  -0.565  0.00  0.00    +0.005 C 
ATOM     19  C   UNL     1       1.182  -0.809   0.001  0.00  0.00    +0.030 C 
ATOM     20  C   UNL     1      -1.916  -3.201  -0.783  0.00  0.00    +0.016 C 
ATOM     21  O   UNL     1      -3.668  -2.682   3.158  0.00  0.00    -0.461 OA
ATOM     22  C   UNL     1      -3.051  -1.701   3.853  0.00  0.00    +0.309 C 
ATOM     23  O   UNL     1      -2.720  -1.760   5.013  0.00  0.00    -0.251 OA
ATOM     24  C   UNL     1      -2.830  -0.524   2.930  0.00  0.00    +0.088 C 
ENDBRANCH   8  24
ENDBRANCH   1   8
BRANCH   4  25
ATOM     25  C   UNL     1      -1.212   3.894   7.383  0.00  0.00    +0.117 C 
BRANCH  25  26
ATOM     26  C   UNL     1      -2.057   5.033   7.894  0.00  0.00    -0.026 A 
ATOM     27  C   UNL     1      -2.568   5.965   7.010  0.00  0.00    +0.007 A 
ATOM     28  C   UNL     1      -3.343   7.009   7.478  0.00  0.00    +0.020 A 
ATOM     29  C   UNL     1      -3.607   7.122   8.831  0.00  0.00    +0.041 A 
ATOM     30  C   UNL     1      -3.095   6.190   9.715  0.00  0.00    +0.020 A 
ATOM     31  C   UNL     1      -2.325   5.142   9.246  0.00  0.00    +0.007 A 
ATOM     32 CL   UNL     1      -4.580   8.434   9.419  0.00  0.00    -0.084 Cl
ENDBRANCH  25  26
BRANCH  25  33
ATOM     33  C   UNL     1       0.164   4.404   7.040  0.00  0.00    -0.026 A 
ATOM     34  C   UNL     1       0.363   5.129   5.880  0.00  0.00    +0.005 A 
ATOM     35  C   UNL     1       1.625   5.597   5.564  0.00  0.00    +0.000 A 
ATOM     36  C   UNL     1       2.688   5.340   6.410  0.00  0.00    +0.000 A 
ATOM     37  C   UNL     1       2.489   4.617   7.571  0.00  0.00    +0.000 A 
ATOM     38  C   UNL     1       1.226   4.153   7.888  0.00  0.00    +0.005 A 
ENDBRANCH  25  33
ENDBRANCH   4  25
TORSDOF 5
