REMARK  Name = ZINC20181277
REMARK  10 active torsions:
REMARK  status: ('A' for Active; 'I' for Inactive)
REMARK    1  A    between atoms: C_1  and  C_2
REMARK    2  A    between atoms: C_2  and  C_3
REMARK    3  A    between atoms: N_9  and  C_10
REMARK    4  A    between atoms: C_10  and  C_11
REMARK    5  A    between atoms: C_11  and  C_12
REMARK    6  A    between atoms: C_12  and  N_13
REMARK    7  A    between atoms: C_14  and  C_16
REMARK    8  A    between atoms: C_16  and  N_17
REMARK    9  A    between atoms: C_26  and  C_27
REMARK   10  A    between atoms: C_30  and  C_33
REMARK                            x       y       z     vdW  Elec       q    Type
REMARK                         _______ _______ _______ _____ _____    ______ ____
ROOT
ATOM      1  N   UNL     1      -1.903  10.263   4.025  0.00  0.00    -0.257 N 
ATOM      2  C   UNL     1      -3.281  10.306   3.856  0.00  0.00    +0.051 A 
ATOM      3  C   UNL     1      -3.813   9.906   2.631  0.00  0.00    +0.024 A 
ATOM      4  C   UNL     1      -5.176   9.931   2.420  0.00  0.00    +0.002 A 
ATOM      5  C   UNL     1      -6.035  10.353   3.419  0.00  0.00    +0.001 A 
ATOM      6  C   UNL     1      -5.524  10.754   4.639  0.00  0.00    +0.017 A 
ATOM      7  C   UNL     1      -4.155  10.732   4.857  0.00  0.00    +0.034 A 
ATOM      8  S   UNL     1      -3.502  11.248   6.417  0.00  0.00    -0.082 S 
ATOM      9  C   UNL     1      -1.972  10.352   6.469  0.00  0.00    +0.076 C 
ATOM     10  C   UNL     1      -1.499   9.808   7.616  0.00  0.00    +0.028 C 
ATOM     11  C   UNL     1      -1.243  10.228   5.186  0.00  0.00    +0.258 C 
ATOM     12  O   UNL     1      -0.033  10.098   5.189  0.00  0.00    -0.269 OA
ENDROOT
BRANCH  10  13
ATOM     13  C   UNL     1      -0.339   8.905   7.577  0.00  0.00    -0.024 A 
ATOM     14  C   UNL     1      -0.182   8.006   6.517  0.00  0.00    +0.008 A 
ATOM     15  C   UNL     1       0.911   7.167   6.485  0.00  0.00    +0.004 A 
ATOM     16  C   UNL     1       1.847   7.204   7.505  0.00  0.00    -0.050 A 
ATOM     17  C   UNL     1       1.697   8.087   8.560  0.00  0.00    +0.004 A 
ATOM     18  C   UNL     1       0.612   8.937   8.604  0.00  0.00    +0.008 A 
ATOM     19  C   UNL     1       3.036   6.279   7.465  0.00  0.00    +0.044 C 
ENDBRANCH  10  13
BRANCH   1  20
ATOM     20  C   UNL     1      -1.090  10.249   2.806  0.00  0.00    +0.209 C 
BRANCH  20  22
ATOM     21  N   UNL     1      -0.050   8.565   1.323  0.00  0.00    -0.314 N 
ATOM     22  C   UNL     1      -0.788   8.824   2.420  0.00  0.00    +0.231 C 
ATOM     23  O   UNL     1      -1.210   7.910   3.097  0.00  0.00    -0.274 OA
ATOM     24  H   UNL     1       0.333   9.394   0.710  0.00  0.00    +0.149 HD
BRANCH  21  25
ATOM     25  C   UNL     1       0.244   7.180   0.948  0.00  0.00    +0.102 C 
BRANCH  25  26
ATOM     26  C   UNL     1       1.092   7.165  -0.325  0.00  0.00    +0.000 C 
BRANCH  26  27
ATOM     27  C   UNL     1       1.399   5.718  -0.717  0.00  0.00    -0.077 C 
BRANCH  27  33
ATOM     28  C   UNL     1       2.659   4.342  -2.259  0.00  0.00    -0.069 C 
ATOM     29  C   UNL     1       3.620   4.384  -3.449  0.00  0.00    -0.015 C 
ATOM     30  C   UNL     1       2.907   5.004  -4.654  0.00  0.00    -0.003 C 
ATOM     31  C   UNL     1       2.411   6.403  -4.279  0.00  0.00    -0.019 C 
ATOM     32  C   UNL     1       1.484   6.302  -3.065  0.00  0.00    -0.078 C 
ATOM     33  N   UNL     1       2.213   5.704  -1.939  0.00  0.00    +0.382 N 
ATOM     34  H   UNL     1       3.110   6.316  -1.757  0.00  0.00    -0.081 HD
BRANCH  28  36
ATOM     35  C   UNL     1       4.525   4.659  -0.628  0.00  0.00    +0.002 C 
ATOM     36  C   UNL     1       3.374   3.742  -1.047  0.00  0.00    -0.019 C 
ENDBRANCH  28  36
ENDBRANCH  27  33
ENDBRANCH  26  27
ENDBRANCH  25  26
ENDBRANCH  21  25
ENDBRANCH  20  22
ENDBRANCH   1  20
TORSDOF 8
