REMARK  Name = ZINC35712291
REMARK  14 active torsions:
REMARK  status: ('A' for Active; 'I' for Inactive)
REMARK    1  A    between atoms: C_1  and  C_2
REMARK    2  A    between atoms: C_2  and  C_3
REMARK    3  A    between atoms: C_3  and  N_4
REMARK    4  A    between atoms: C_5  and  C_36
REMARK    5  A    between atoms: C_6  and  C_30
REMARK    6  A    between atoms: C_7  and  C_12
REMARK    7  A    between atoms: C_16  and  N_18
REMARK    8  A    between atoms: N_21  and  C_22
REMARK    9  A    between atoms: C_23  and  C_29
REMARK   10  A    between atoms: C_27  and  C_28
REMARK   11  A    between atoms: C_30  and  O_32
REMARK   12  A    between atoms: O_32  and  C_33
REMARK   13  A    between atoms: C_33  and  C_34
REMARK   14  A    between atoms: C_33  and  C_35
REMARK                            x       y       z     vdW  Elec       q    Type
REMARK                         _______ _______ _______ _____ _____    ______ ____
ROOT
ATOM      1  C   UNL     1      -3.947  -5.807  -2.089  0.00  0.00    -0.021 A 
ATOM      2  C   UNL     1      -5.103  -5.697  -2.840  0.00  0.00    +0.006 A 
ATOM      3  C   UNL     1      -6.034  -6.719  -2.835  0.00  0.00    +0.002 A 
ATOM      4  C   UNL     1      -5.812  -7.853  -2.079  0.00  0.00    +0.023 A 
ATOM      5  C   UNL     1      -4.653  -7.967  -1.324  0.00  0.00    +0.035 A 
ATOM      6  C   UNL     1      -3.717  -6.941  -1.335  0.00  0.00    +0.029 A 
ENDROOT
BRANCH   1  10
ATOM      7  N   UNL     1      -2.801  -2.627  -3.934  0.00  0.00    -0.259 N 
ATOM      8  C   UNL     1      -2.097  -3.764  -4.210  0.00  0.00    +0.024 C 
ATOM      9  C   UNL     1      -2.112  -4.816  -3.363  0.00  0.00    +0.078 C 
ATOM     10  C   UNL     1      -2.935  -4.690  -2.097  0.00  0.00    +0.144 C 
ATOM     11  N   UNL     1      -3.657  -3.423  -1.893  0.00  0.00    -0.288 N 
ATOM     12  C   UNL     1      -3.540  -2.461  -2.830  0.00  0.00    +0.307 C 
ATOM     13  O   UNL     1      -4.129  -1.409  -2.669  0.00  0.00    -0.252 OA
ATOM     14  C   UNL     1      -1.291  -3.847  -5.480  0.00  0.00    +0.061 C 
ATOM     15  H   UNL     1      -4.201  -3.282  -1.103  0.00  0.00    +0.151 HD
BRANCH   9  16
ATOM     16  C   UNL     1      -1.383  -5.994  -3.647  0.00  0.00    +0.339 C 
ATOM     17  O   UNL     1      -0.729  -6.073  -4.670  0.00  0.00    -0.245 OA
BRANCH  16  18
ATOM     18  O   UNL     1      -1.414  -7.032  -2.785  0.00  0.00    -0.459 OA
BRANCH  18  19
ATOM     19  C   UNL     1      -0.655  -8.190  -3.136  0.00  0.00    +0.171 C 
ATOM     20  C   UNL     1      -0.182  -8.895  -1.863  0.00  0.00    +0.052 C 
ATOM     21  C   UNL     1      -1.530  -9.144  -3.952  0.00  0.00    +0.052 C 
ENDBRANCH  18  19
ENDBRANCH  16  18
ENDBRANCH   9  16
BRANCH   7  22
ATOM     22  C   UNL     1      -2.740  -1.525  -4.897  0.00  0.00    +0.114 C 
BRANCH  22  24
ATOM     23  C   UNL     1      -3.717  -0.599  -7.002  0.00  0.00    +0.005 C 
ATOM     24  C   UNL     1      -3.781  -1.749  -5.996  0.00  0.00    +0.016 C 
ENDBRANCH  22  24
ENDBRANCH   7  22
ENDBRANCH   1  10
BRANCH   5  25
ATOM     25  N   UNL     1      -4.425  -9.115  -0.557  0.00  0.00    -0.269 N 
ATOM     26  C   UNL     1      -5.462  -9.764   0.010  0.00  0.00    +0.308 C 
ATOM     27  O   UNL     1      -6.584  -9.303  -0.071  0.00  0.00    -0.252 OA
ATOM     28  N   UNL     1      -5.254 -10.923   0.666  0.00  0.00    -0.269 N 
ATOM     29  H   UNL     1      -3.521  -9.444  -0.433  0.00  0.00    +0.156 HD
ATOM     30  H   UNL     1      -4.354 -11.269   0.765  0.00  0.00    +0.156 HD
BRANCH  28  31
ATOM     31  C   UNL     1      -6.338 -11.626   1.203  0.00  0.00    +0.041 A 
ATOM     32  C   UNL     1      -6.587 -12.932   0.804  0.00  0.00    -0.029 A 
ATOM     33  C   UNL     1      -7.657 -13.624   1.336  0.00  0.00    +0.005 A 
ATOM     34  C   UNL     1      -8.481 -13.016   2.266  0.00  0.00    +0.001 A 
ATOM     35  C   UNL     1      -8.236 -11.715   2.666  0.00  0.00    +0.005 A 
ATOM     36  C   UNL     1      -7.164 -11.021   2.142  0.00  0.00    -0.029 A 
ATOM     37  C   UNL     1      -6.894  -9.605   2.583  0.00  0.00    +0.045 C 
ATOM     38  C   UNL     1      -5.690 -13.595  -0.210  0.00  0.00    +0.045 C 
ENDBRANCH  28  31
ENDBRANCH   5  25
TORSDOF 8
