REMARK  Name = ZINC19799814
REMARK  4 active torsions:
REMARK  status: ('A' for Active; 'I' for Inactive)
REMARK    1  A    between atoms: C_4  and  C_7
REMARK    2  A    between atoms: C_13  and  C_14
REMARK    3  A    between atoms: N_16  and  C_23
REMARK    4  A    between atoms: C_23  and  C_24
REMARK                            x       y       z     vdW  Elec       q    Type
REMARK                         _______ _______ _______ _____ _____    ______ ____
ROOT
ATOM      1  C   UNL     1       1.012  -6.811  -4.253  0.00  0.00    +0.130 C 
ATOM      2  N   UNL     1       1.586  -5.800  -4.858  0.00  0.00    -0.164 NA
ATOM      3  N   UNL     1       1.383  -4.506  -4.428  0.00  0.00    -0.152 N 
ATOM      4  C   UNL     1       1.897  -3.344  -5.043  0.00  0.00    +0.153 C 
ATOM      5  N   UNL     1       2.281  -3.304  -6.293  0.00  0.00    -0.283 NA
ATOM      6  C   UNL     1       1.961  -2.170  -4.131  0.00  0.00    +0.081 C 
ATOM      7  C   UNL     1       2.957  -1.217  -4.240  0.00  0.00    +0.026 C 
ATOM      8  C   UNL     1       0.904  -2.079  -3.097  0.00  0.00    +0.273 C 
ATOM      9  O   UNL     1       0.576  -1.002  -2.626  0.00  0.00    -0.268 OA
ATOM     10  N   UNL     1       0.310  -3.218  -2.694  0.00  0.00    -0.152 NA
ATOM     11  C   UNL     1       0.591  -4.338  -3.312  0.00  0.00    +0.181 C 
ATOM     12  S   UNL     1       0.104  -6.003  -2.942  0.00  0.00    -0.033 S 
ATOM     13  H   UNL     1       2.675  -2.369  -6.717  0.00  0.00    +0.188 HD
ENDROOT
BRANCH   7  14
ATOM     14  C   UNL     1       3.084  -0.212  -3.255  0.00  0.00    +0.001 A 
ATOM     15  C   UNL     1       2.836  -0.340  -1.901  0.00  0.00    +0.095 A 
ATOM     16  N   UNL     1       3.065   0.838  -1.287  0.00  0.00    -0.342 N 
ATOM     17  C   UNL     1       3.481   1.790  -2.196  0.00  0.00    +0.050 A 
ATOM     18  C   UNL     1       3.514   1.186  -3.463  0.00  0.00    +0.007 A 
ATOM     19  C   UNL     1       3.902   1.921  -4.578  0.00  0.00    +0.010 A 
ATOM     20  C   UNL     1       4.255   3.245  -4.434  0.00  0.00    +0.001 A 
ATOM     21  C   UNL     1       4.224   3.845  -3.184  0.00  0.00    +0.002 A 
ATOM     22  C   UNL     1       3.841   3.128  -2.071  0.00  0.00    +0.026 A 
BRANCH  16  23
ATOM     23  C   UNL     1       2.900   1.073   0.149  0.00  0.00    +0.159 C 
BRANCH  23  24
ATOM     24  C   UNL     1       1.534   1.654   0.410  0.00  0.00    +0.007 A 
ATOM     25  C   UNL     1       1.371   3.023   0.501  0.00  0.00    +0.008 A 
ATOM     26  C   UNL     1       0.117   3.556   0.740  0.00  0.00    +0.000 A 
ATOM     27  C   UNL     1      -0.974   2.720   0.887  0.00  0.00    +0.003 A 
ATOM     28  C   UNL     1      -0.814   1.351   0.791  0.00  0.00    +0.039 A 
ATOM     29  C   UNL     1       0.442   0.816   0.557  0.00  0.00    +0.128 A 
ATOM     30  F   UNL     1       0.601  -0.523   0.468  0.00  0.00    -0.205 F 
ENDBRANCH  23  24
ENDBRANCH  16  23
ENDBRANCH   7  14
BRANCH   1  34
ATOM     31  C   UNL     1       1.246 -10.952  -5.173  0.00  0.00    +0.000 A 
ATOM     32  C   UNL     1       0.479 -10.527  -4.103  0.00  0.00    +0.001 A 
ATOM     33  C   UNL     1       0.399  -9.183  -3.799  0.00  0.00    +0.010 A 
ATOM     34  C   UNL     1       1.093  -8.253  -4.573  0.00  0.00    +0.009 A 
ATOM     35  C   UNL     1       1.860  -8.688  -5.654  0.00  0.00    +0.010 A 
ATOM     36  C   UNL     1       1.937 -10.035  -5.945  0.00  0.00    +0.001 A 
ENDBRANCH   1  34
TORSDOF 4
