REMARK  Name = ZINC38717855
REMARK  7 active torsions:
REMARK  status: ('A' for Active; 'I' for Inactive)
REMARK    1  A    between atoms: C_1  and  C_2
REMARK    2  A    between atoms: C_2  and  C_4
REMARK    3  A    between atoms: C_2  and  O_24
REMARK    4  A    between atoms: N_6  and  C_7
REMARK    5  A    between atoms: C_21  and  O_22
REMARK    6  A    between atoms: O_22  and  C_23
REMARK    7  A    between atoms: O_24  and  C_25
REMARK                            x       y       z     vdW  Elec       q    Type
REMARK                         _______ _______ _______ _____ _____    ______ ____
ROOT
ATOM      1  C   UNL     1      -3.516  -0.792  -0.394  0.00  0.00    +0.037 A 
ATOM      2  C   UNL     1      -3.888  -0.902   0.945  0.00  0.00    +0.024 A 
ATOM      3  C   UNL     1      -5.194  -1.118   1.281  0.00  0.00    +0.017 A 
ATOM      4  C   UNL     1      -6.157  -1.229   0.277  0.00  0.00    +0.065 A 
ATOM      5  C   UNL     1      -5.795  -1.129  -1.077  0.00  0.00    +0.141 A 
ATOM      6  C   UNL     1      -4.464  -0.899  -1.401  0.00  0.00    +0.070 A 
ATOM      7  O   UNL     1      -6.714  -1.255  -2.055  0.00  0.00    -0.451 OA
ATOM      8  C   UNL     1      -8.037  -1.165  -1.807  0.00  0.00    +0.181 A 
ATOM      9  C   UNL     1      -8.538  -1.261  -0.501  0.00  0.00    +0.068 A 
ATOM     10  C   UNL     1      -7.579  -1.452   0.609  0.00  0.00    +0.200 A 
ATOM     11  O   UNL     1      -7.939  -1.773   1.727  0.00  0.00    -0.286 OA
ATOM     12  C   UNL     1      -9.908  -1.174  -0.260  0.00  0.00    +0.015 A 
ATOM     13  C   UNL     1     -10.776  -0.988  -1.314  0.00  0.00    +0.004 A 
ATOM     14  C   UNL     1     -10.289  -0.888  -2.608  0.00  0.00    +0.049 A 
ATOM     15  C   UNL     1      -8.933  -0.975  -2.861  0.00  0.00    +0.163 A 
ENDROOT
BRANCH   1  18
ATOM     16  C   UNL     1      -1.200  -1.108   0.025  0.00  0.00    +0.258 C 
ATOM     17  O   UNL     1      -1.477  -1.875   0.923  0.00  0.00    -0.271 OA
ATOM     18  N   UNL     1      -2.180  -0.566  -0.725  0.00  0.00    -0.282 N 
ATOM     19  H   UNL     1      -1.957  -0.019  -1.494  0.00  0.00    +0.155 HD
BRANCH  16  21
ATOM     20  C   UNL     1       0.470   0.725   0.029  0.00  0.00    +0.062 C 
ATOM     21  C   UNL     1       0.240  -0.761  -0.253  0.00  0.00    +0.256 C 
BRANCH  21  22
ATOM     22  O   UNL     1       1.089  -1.543   0.589  0.00  0.00    -0.480 OA
BRANCH  22  23
ATOM     23  C   UNL     1       2.358  -1.762   0.154  0.00  0.00    +0.122 A 
ATOM     24  C   UNL     1       3.198  -2.610   0.860  0.00  0.00    +0.047 A 
ATOM     25  C   UNL     1       4.488  -2.830   0.416  0.00  0.00    +0.023 A 
ATOM     26  C   UNL     1       4.941  -2.205  -0.732  0.00  0.00    +0.041 A 
ATOM     27  C   UNL     1       4.105  -1.359  -1.438  0.00  0.00    +0.023 A 
ATOM     28  C   UNL     1       2.813  -1.141  -1.001  0.00  0.00    +0.047 A 
ATOM     29 CL   UNL     1       6.562  -2.484  -1.288  0.00  0.00    -0.084 Cl
ENDBRANCH  22  23
ENDBRANCH  21  22
ENDBRANCH  16  21
ENDBRANCH   1  18
BRANCH  15  30
ATOM     30  O   UNL     1      -8.471  -0.875  -4.136  0.00  0.00    -0.491 OA
ATOM     31  C   UNL     1      -9.444  -0.681  -5.165  0.00  0.00    +0.277 C 
ENDBRANCH  15  30
TORSDOF 5
