REMARK  Name = ZINC39708687
REMARK  6 active torsions:
REMARK  status: ('A' for Active; 'I' for Inactive)
REMARK    1  A    between atoms: C_1  and  C_2
REMARK    2  A    between atoms: C_5  and  C_8
REMARK    3  A    between atoms: C_12  and  S_20
REMARK    4  A    between atoms: N_13  and  C_14
REMARK    5  A    between atoms: S_20  and  C_21
REMARK    6  A    between atoms: C_21  and  C_22
REMARK                            x       y       z     vdW  Elec       q    Type
REMARK                         _______ _______ _______ _____ _____    ______ ____
ROOT
ATOM      1  C   UNL     1       0.051  -4.288  -0.021  0.00  0.00    +0.213 C 
ATOM      2  N   UNL     1       0.711  -4.784  -1.241  0.00  0.00    -0.242 N 
ATOM      3  N   UNL     1       1.837  -5.497  -0.814  0.00  0.00    -0.162 NA
ATOM      4  C   UNL     1       1.938  -5.494   0.473  0.00  0.00    +0.180 C 
ATOM      5  N   UNL     1       0.902  -4.787   1.073  0.00  0.00    -0.254 N 
ATOM      6  H   UNL     1       0.422  -4.644  -2.157  0.00  0.00    +0.170 HD
ENDROOT
BRANCH   1  11
ATOM      7  C   UNL     1      -0.100   1.489   0.001  0.00  0.00    +0.044 C 
ATOM      8  C   UNL     1      -0.061  -0.018  -0.005  0.00  0.00    -0.050 A 
ATOM      9  C   UNL     1      -0.023  -0.704  -1.205  0.00  0.00    +0.004 A 
ATOM     10  C   UNL     1       0.013  -2.086  -1.210  0.00  0.00    +0.007 A 
ATOM     11  C   UNL     1       0.013  -2.782  -0.015  0.00  0.00    -0.008 A 
ATOM     12  C   UNL     1      -0.024  -2.095   1.184  0.00  0.00    +0.007 A 
ATOM     13  C   UNL     1      -0.056  -0.714   1.190  0.00  0.00    +0.004 A 
ENDBRANCH   1  11
BRANCH   5  14
ATOM     14  C   UNL     1       0.705  -4.588   2.442  0.00  0.00    +0.038 A 
ATOM     15  C   UNL     1      -0.413  -5.124   3.069  0.00  0.00    +0.023 A 
ATOM     16  C   UNL     1      -0.604  -4.926   4.423  0.00  0.00    +0.002 A 
ATOM     17  C   UNL     1       0.315  -4.195   5.153  0.00  0.00    +0.000 A 
ATOM     18  C   UNL     1       1.429  -3.660   4.531  0.00  0.00    +0.002 A 
ATOM     19  C   UNL     1       1.629  -3.860   3.179  0.00  0.00    +0.023 A 
ENDBRANCH   5  14
BRANCH   4  20
ATOM     20  S   UNL     1       3.233  -6.292   1.363  0.00  0.00    -0.084 S 
BRANCH  20  21
ATOM     21  C   UNL     1       4.264  -7.033   0.068  0.00  0.00    +0.109 C 
BRANCH  21  22
ATOM     22  C   UNL     1       5.424  -7.757   0.702  0.00  0.00    -0.042 C 
ATOM     23  C   UNL     1       5.373  -9.095   0.954  0.00  0.00    -0.003 A 
ATOM     24  C   UNL     1       4.183  -9.878   0.616  0.00  0.00    +0.010 A 
ATOM     25  C   UNL     1       4.177 -11.209   0.885  0.00  0.00    +0.001 A 
ATOM     26  C   UNL     1       5.275 -11.836   1.475  0.00  0.00    +0.002 A 
ATOM     27  C   UNL     1       6.408 -11.166   1.813  0.00  0.00    +0.024 A 
ATOM     28  C   UNL     1       6.518  -9.784   1.575  0.00  0.00    +0.041 A 
ATOM     29  N   UNL     1       7.634  -9.137   1.910  0.00  0.00    -0.285 N 
ATOM     30  C   UNL     1       7.803  -7.840   1.716  0.00  0.00    +0.221 C 
ATOM     31  O   UNL     1       8.845  -7.304   2.043  0.00  0.00    -0.275 OA
ATOM     32  C   UNL     1       6.698  -7.027   1.079  0.00  0.00    +0.128 C 
ATOM     33  H   UNL     1       8.356  -9.641   2.317  0.00  0.00    +0.155 HD
ENDBRANCH  21  22
ENDBRANCH  20  21
ENDBRANCH   4  20
TORSDOF 5
