REMARK  Name = ZINC36299010
REMARK  9 active torsions:
REMARK  status: ('A' for Active; 'I' for Inactive)
REMARK    1  A    between atoms: C_1  and  C_2
REMARK    2  A    between atoms: C_2  and  C_3
REMARK    3  A    between atoms: C_2  and  C_4
REMARK    4  A    between atoms: C_4  and  C_5
REMARK    5  A    between atoms: C_5  and  C_7
REMARK    6  A    between atoms: C_5  and  N_21
REMARK    7  A    between atoms: C_7  and  N_8
REMARK    8  A    between atoms: N_8  and  S_9
REMARK    9  A    between atoms: S_9  and  C_12
REMARK                            x       y       z     vdW  Elec       q    Type
REMARK                         _______ _______ _______ _____ _____    ______ ____
ROOT
ATOM      1  N   UNL     1      -0.397  -0.609   4.892  0.00  0.00    -0.191 NA
ATOM      2  H   UNL     1      -1.038   0.116   4.820  0.00  0.00    +0.148 HD
ENDROOT
BRANCH   1   3
ATOM      3  S   UNL     1      -0.233  -1.431   6.319  0.00  0.00    +0.061 S 
ATOM      4  O   UNL     1      -1.135  -0.833   7.240  0.00  0.00    -0.153 OA
ATOM      5  O   UNL     1      -0.279  -2.815   5.998  0.00  0.00    -0.153 OA
BRANCH   3   6
ATOM      6  C   UNL     1       1.391  -1.108   6.923  0.00  0.00    +0.142 A 
ATOM      7  C   UNL     1       2.441  -1.931   6.558  0.00  0.00    +0.070 A 
ATOM      8  C   UNL     1       3.716  -1.678   7.032  0.00  0.00    +0.042 A 
ATOM      9  C   UNL     1       3.940  -0.600   7.871  0.00  0.00    +0.044 A 
ATOM     10  C   UNL     1       2.890   0.224   8.235  0.00  0.00    +0.042 A 
ATOM     11  C   UNL     1       1.616  -0.028   7.757  0.00  0.00    +0.070 A 
ATOM     12 CL   UNL     1       0.300   1.010   8.209  0.00  0.00    -0.081 Cl
ATOM     13 CL   UNL     1       5.540  -0.282   8.466  0.00  0.00    -0.083 Cl
ATOM     14 CL   UNL     1       2.159  -3.283   5.507  0.00  0.00    -0.081 Cl
ENDBRANCH   3   6
ENDBRANCH   1   3
BRANCH   1  15
ATOM     15  C   UNL     1       0.426  -0.974   3.736  0.00  0.00    +0.090 C 
BRANCH  15  16
ATOM     16  C   UNL     1      -0.161  -0.344   2.472  0.00  0.00    -0.059 C 
BRANCH  16  17
ATOM     17  N   UNL     1      -0.290   1.107   2.663  0.00  0.00    +0.381 N 
ATOM     18  H   UNL     1       0.616   1.503   2.861  0.00  0.00    -0.090 HD
ATOM     19  H   UNL     1      -0.664   1.525   1.824  0.00  0.00    -0.090 HD
ATOM     20  H   UNL     1      -0.913   1.290   3.435  0.00  0.00    -0.090 HD
ENDBRANCH  16  17
BRANCH  16  21
ATOM     21  C   UNL     1       0.766  -0.621   1.286  0.00  0.00    -0.012 C 
BRANCH  21  23
ATOM     22  C   UNL     1       1.096  -0.262  -1.164  0.00  0.00    +0.007 C 
ATOM     23  C   UNL     1       0.114  -0.112  -0.001  0.00  0.00    -0.019 C 
ATOM     24  C   UNL     1      -1.148  -0.928  -0.290  0.00  0.00    +0.007 C 
ENDBRANCH  21  23
ENDBRANCH  16  21
ENDBRANCH  15  16
ENDBRANCH   1  15
TORSDOF 7
