REMARK  Name = ZINC63845594
REMARK  7 active torsions:
REMARK  status: ('A' for Active; 'I' for Inactive)
REMARK    1  A    between atoms: C_1  and  C_2
REMARK    2  A    between atoms: C_5  and  C_8
REMARK    3  A    between atoms: C_11  and  C_13
REMARK    4  A    between atoms: C_14  and  C_15
REMARK    5  A    between atoms: C_14  and  C_17
REMARK    6  A    between atoms: N_23  and  C_24
REMARK    7  A    between atoms: N_23  and  C_25
REMARK                            x       y       z     vdW  Elec       q    Type
REMARK                         _______ _______ _______ _____ _____    ______ ____
ROOT
ATOM      1  C   UNL     1       0.037  -8.222  -1.011  0.00  0.00    +0.037 C 
ATOM      2  C   UNL     1       0.017  -8.445  -2.375  0.00  0.00    +0.097 C 
ENDROOT
BRANCH   2   3
ATOM      3  C   UNL     1       0.141  -7.310  -3.311  0.00  0.00    +0.177 A 
ATOM      4  N   UNL     1       1.347  -6.855  -3.650  0.00  0.00    -0.194 NA
ATOM      5  C   UNL     1       1.458  -5.834  -4.493  0.00  0.00    +0.217 A 
ATOM      6  N   UNL     1       0.366  -5.266  -4.997  0.00  0.00    -0.181 NA
ATOM      7  C   UNL     1      -0.837  -5.718  -4.659  0.00  0.00    +0.222 A 
ATOM      8  N   UNL     1      -0.951  -6.743  -3.821  0.00  0.00    -0.194 NA
ATOM      9  N   UNL     1      -1.969  -5.127  -5.183  0.00  0.00    -0.306 N 
ATOM     10  C   UNL     1      -1.843  -4.000  -6.112  0.00  0.00    +0.132 C 
ATOM     11  C   UNL     1      -3.295  -5.625  -4.811  0.00  0.00    +0.132 C 
ATOM     12  N   UNL     1       2.706  -5.362  -4.845  0.00  0.00    -0.327 N 
ATOM     13  H   UNL     1       3.503  -5.821  -4.536  0.00  0.00    +0.145 HD
ATOM     14  H   UNL     1       2.787  -4.572  -5.402  0.00  0.00    +0.145 HD
ENDBRANCH   2   3
BRANCH   1  18
ATOM     15  C   UNL     1       0.034  -4.251  -0.018  0.00  0.00    +0.020 A 
ATOM     16  C   UNL     1       0.175  -5.126   1.050  0.00  0.00    +0.017 A 
ATOM     17  C   UNL     1       0.185  -6.467   0.804  0.00  0.00    +0.016 A 
ATOM     18  C   UNL     1       0.054  -6.905  -0.513  0.00  0.00    +0.014 A 
ATOM     19  S   UNL     1      -0.095  -5.366  -1.406  0.00  0.00    -0.089 S 
BRANCH  15  24
ATOM     20  C   UNL     1      -0.124   1.500   0.021  0.00  0.00    +0.044 C 
ATOM     21  C   UNL     1      -0.083  -0.006   0.011  0.00  0.00    -0.050 A 
ATOM     22  C   UNL     1      -0.094  -0.688  -1.194  0.00  0.00    +0.004 A 
ATOM     23  C   UNL     1      -0.056  -2.066  -1.210  0.00  0.00    +0.009 A 
ATOM     24  C   UNL     1      -0.006  -2.775  -0.008  0.00  0.00    -0.011 A 
ATOM     25  C   UNL     1       0.005  -2.081   1.204  0.00  0.00    +0.009 A 
ATOM     26  C   UNL     1      -0.028  -0.702   1.206  0.00  0.00    +0.004 A 
ENDBRANCH  15  24
ENDBRANCH   1  18
BRANCH   2  27
ATOM     27  C   UNL     1      -0.125  -9.777  -2.881  0.00  0.00    +0.103 C 
ATOM     28  N   UNL     1      -0.238 -10.834  -3.282  0.00  0.00    -0.191 NA
ENDBRANCH   2  27
TORSDOF 4
