REMARK  Name = ZINC63581963
REMARK  7 active torsions:
REMARK  status: ('A' for Active; 'I' for Inactive)
REMARK    1  A    between atoms: C_1  and  O_2
REMARK    2  A    between atoms: O_2  and  C_3
REMARK    3  A    between atoms: C_10  and  C_18
REMARK    4  A    between atoms: C_21  and  O_36
REMARK    5  A    between atoms: C_22  and  C_24
REMARK    6  A    between atoms: C_24  and  N_25
REMARK    7  A    between atoms: O_36  and  C_37
REMARK                            x       y       z     vdW  Elec       q    Type
REMARK                         _______ _______ _______ _____ _____    ______ ____
ROOT
ATOM      1  C   UNL     1       4.411  -4.084  -2.934  0.00  0.00    -0.028 A 
ATOM      2  C   UNL     1       4.231  -4.077  -1.563  0.00  0.00    +0.009 A 
ATOM      3  C   UNL     1       5.148  -3.442  -0.748  0.00  0.00    +0.046 A 
ATOM      4  C   UNL     1       6.251  -2.811  -1.306  0.00  0.00    +0.125 A 
ATOM      5  C   UNL     1       6.429  -2.820  -2.682  0.00  0.00    +0.012 A 
ATOM      6  C   UNL     1       5.512  -3.461  -3.492  0.00  0.00    +0.014 A 
ENDROOT
BRANCH   1  13
ATOM      7  C   UNL     1       0.451  -2.190   0.356  0.00  0.00    +0.121 A 
ATOM      8  C   UNL     1       0.627  -1.061  -0.463  0.00  0.00    +0.047 A 
ATOM      9  C   UNL     1       1.097  -1.148  -1.726  0.00  0.00    +0.029 A 
ATOM     10  C   UNL     1       1.445  -2.456  -2.287  0.00  0.00    +0.043 A 
ATOM     11  N   UNL     1       1.934  -2.807  -3.454  0.00  0.00    -0.376 N 
ATOM     12  C   UNL     1       2.001  -4.263  -3.508  0.00  0.00    +0.128 C 
ATOM     13  C   UNL     1       3.409  -4.777  -3.821  0.00  0.00    +0.111 C 
ATOM     14  N   UNL     1       3.440  -6.226  -3.567  0.00  0.00    -0.307 NA
ATOM     15  C   UNL     1       3.281  -6.569  -2.150  0.00  0.00    +0.086 C 
ATOM     16  C   UNL     1       1.877  -6.163  -1.663  0.00  0.00    +0.048 C 
ATOM     17  C   UNL     1       1.654  -4.733  -2.104  0.00  0.00    -0.035 C 
ATOM     18  C   UNL     1       1.270  -3.649  -1.420  0.00  0.00    +0.003 A 
ATOM     19  C   UNL     1       0.752  -3.442  -0.062  0.00  0.00    +0.055 A 
ATOM     20  H   UNL     1       2.758  -6.707  -4.133  0.00  0.00    +0.123 HD
ATOM     21  H   UNL     1       2.204  -2.200  -4.161  0.00  0.00    +0.160 HD
BRANCH   7  23
ATOM     22  C   UNL     1      -0.336  -0.680   2.016  0.00  0.00    +0.277 C 
ATOM     23  O   UNL     1      -0.032  -2.018   1.615  0.00  0.00    -0.495 OA
ENDBRANCH   7  23
ENDBRANCH   1  13
BRANCH   4  24
ATOM     24  O   UNL     1       7.154  -2.186  -0.507  0.00  0.00    -0.495 OA
ATOM     25  C   UNL     1       6.906  -2.216   0.900  0.00  0.00    +0.277 C 
ENDBRANCH   4  24
BRANCH   5  26
ATOM     26  C   UNL     1       7.626  -2.136  -3.292  0.00  0.00    +0.155 C 
BRANCH  26  27
ATOM     27  N   UNL     1       7.427  -0.685  -3.261  0.00  0.00    -0.230 N 
ATOM     28  C   UNL     1       6.835   0.023  -4.241  0.00  0.00    +0.254 C 
ATOM     29  O   UNL     1       6.390  -0.433  -5.274  0.00  0.00    -0.270 OA
ATOM     30  C   UNL     1       6.819   1.448  -3.848  0.00  0.00    +0.049 A 
ATOM     31  C   UNL     1       6.353   2.610  -4.441  0.00  0.00    +0.014 A 
ATOM     32  C   UNL     1       6.498   3.822  -3.786  0.00  0.00    +0.001 A 
ATOM     33  C   UNL     1       7.106   3.880  -2.545  0.00  0.00    +0.001 A 
ATOM     34  C   UNL     1       7.577   2.725  -1.940  0.00  0.00    +0.014 A 
ATOM     35  C   UNL     1       7.439   1.506  -2.583  0.00  0.00    +0.049 A 
ATOM     36  C   UNL     1       7.806   0.114  -2.248  0.00  0.00    +0.254 C 
ATOM     37  O   UNL     1       8.359  -0.247  -1.229  0.00  0.00    -0.270 OA
ENDBRANCH  26  27
ENDBRANCH   5  26
TORSDOF 5
