REMARK  Name = ZINC40015288
REMARK  12 active torsions:
REMARK  status: ('A' for Active; 'I' for Inactive)
REMARK    1  A    between atoms: C_1  and  C_2
REMARK    2  A    between atoms: C_2  and  N_3
REMARK    3  A    between atoms: C_13  and  C_23
REMARK    4  A    between atoms: N_17  and  C_18
REMARK    5  A    between atoms: C_18  and  C_19
REMARK    6  A    between atoms: C_19  and  O_20
REMARK    7  A    between atoms: O_20  and  C_21
REMARK    8  A    between atoms: C_23  and  C_25
REMARK    9  A    between atoms: C_29  and  S_31
REMARK   10  A    between atoms: S_31  and  N_34
REMARK   11  A    between atoms: N_34  and  C_35
REMARK   12  A    between atoms: N_34  and  C_36
REMARK                            x       y       z     vdW  Elec       q    Type
REMARK                         _______ _______ _______ _____ _____    ______ ____
ROOT
ATOM      1  N   UNL     1      -1.186  -0.869   0.564  0.00  0.00    -0.269 N 
ATOM      2  C   UNL     1      -2.022  -1.292   1.599  0.00  0.00    +0.042 A 
ATOM      3  C   UNL     1      -1.769  -1.482   2.956  0.00  0.00    +0.024 A 
ATOM      4  C   UNL     1      -2.774  -1.915   3.795  0.00  0.00    +0.002 A 
ATOM      5  C   UNL     1      -4.040  -2.163   3.299  0.00  0.00    +0.000 A 
ATOM      6  C   UNL     1      -4.301  -1.977   1.953  0.00  0.00    +0.008 A 
ATOM      7  C   UNL     1      -3.300  -1.545   1.111  0.00  0.00    +0.011 A 
ATOM      8  C   UNL     1      -3.248  -1.250  -0.364  0.00  0.00    +0.174 C 
ATOM      9  C   UNL     1      -1.828  -0.812  -0.617  0.00  0.00    +0.253 C 
ATOM     10  O   UNL     1      -1.354  -0.475  -1.682  0.00  0.00    -0.272 OA
ATOM     11  C   UNL     1      -3.601  -2.465  -1.177  0.00  0.00    +0.089 C 
ATOM     12  C   UNL     1      -4.666  -2.120  -1.942  0.00  0.00    +0.250 C 
ATOM     13  C   UNL     1      -5.029  -0.714  -1.660  0.00  0.00    +0.288 C 
ATOM     14  O   UNL     1      -5.943  -0.111  -2.186  0.00  0.00    -0.266 OA
ATOM     15  N   UNL     1      -4.196  -0.201  -0.733  0.00  0.00    -0.271 N 
ATOM     16  O   UNL     1      -5.296  -2.932  -2.821  0.00  0.00    -0.282 OA
ENDROOT
BRANCH   1  18
ATOM     17  C   UNL     1       0.339   0.940   1.186  0.00  0.00    +0.025 C 
ATOM     18  C   UNL     1       0.226  -0.521   0.745  0.00  0.00    +0.110 C 
ENDBRANCH   1  18
BRANCH  11  19
ATOM     19  C   UNL     1      -2.925  -3.766  -1.149  0.00  0.00    +0.196 C 
ATOM     20  O   UNL     1      -3.115  -4.530  -0.222  0.00  0.00    -0.287 OA
BRANCH  19  21
ATOM     21  C   UNL     1      -2.013  -4.149  -2.248  0.00  0.00    +0.024 A 
ATOM     22  C   UNL     1      -1.844  -3.303  -3.347  0.00  0.00    +0.012 A 
ATOM     23  C   UNL     1      -0.992  -3.667  -4.368  0.00  0.00    +0.003 A 
ATOM     24  C   UNL     1      -0.304  -4.867  -4.306  0.00  0.00    +0.028 A 
ATOM     25  C   UNL     1      -0.468  -5.709  -3.221  0.00  0.00    +0.106 A 
ATOM     26  C   UNL     1      -1.313  -5.356  -2.190  0.00  0.00    +0.040 A 
BRANCH  25  27
ATOM     27  S   UNL     1       0.412  -7.235  -3.153  0.00  0.00    +0.060 S 
ATOM     28  O   UNL     1      -0.329  -8.093  -2.296  0.00  0.00    -0.153 OA
ATOM     29  O   UNL     1       0.725  -7.583  -4.494  0.00  0.00    -0.153 OA
BRANCH  27  30
ATOM     30  N   UNL     1       1.852  -6.936  -2.393  0.00  0.00    -0.183 NA
ATOM     31  C   UNL     1       1.953  -7.063  -0.937  0.00  0.00    +0.131 C 
ATOM     32  C   UNL     1       3.027  -6.545  -3.177  0.00  0.00    +0.131 C 
ENDBRANCH  27  30
ENDBRANCH  25  27
ENDBRANCH  19  21
ENDBRANCH  11  19
BRANCH  15  33
ATOM     33  C   UNL     1      -4.235   1.160  -0.192  0.00  0.00    +0.138 C 
BRANCH  33  34
ATOM     34  C   UNL     1      -3.356   2.073  -1.049  0.00  0.00    +0.178 C 
BRANCH  34  35
ATOM     35  O   UNL     1      -3.909   2.172  -2.363  0.00  0.00    -0.381 OA
ATOM     36  C   UNL     1      -3.160   3.007  -3.248  0.00  0.00    +0.194 C 
ENDBRANCH  34  35
ENDBRANCH  33  34
ENDBRANCH  15  33
TORSDOF 8
