REMARK  Name = ZINC41353823
REMARK  6 active torsions:
REMARK  status: ('A' for Active; 'I' for Inactive)
REMARK    1  A    between atoms: C_1  and  C_2
REMARK    2  A    between atoms: C_2  and  O_3
REMARK    3  A    between atoms: O_3  and  C_4
REMARK    4  A    between atoms: C_9  and  C_10
REMARK    5  A    between atoms: C_12  and  O_13
REMARK    6  A    between atoms: C_22  and  C_24
REMARK                            x       y       z     vdW  Elec       q    Type
REMARK                         _______ _______ _______ _____ _____    ______ ____
ROOT
ATOM      1  C   UNL     1       1.452  -1.888  -3.887  0.00  0.00    +0.143 A 
ATOM      2  C   UNL     1       1.038  -0.571  -3.822  0.00  0.00    +0.093 A 
ATOM      3  C   UNL     1       1.540   0.358  -4.732  0.00  0.00    +0.131 A 
ATOM      4  C   UNL     1       2.471  -0.086  -5.705  0.00  0.00    +0.059 A 
ATOM      5  C   UNL     1       3.009   0.807  -6.645  0.00  0.00    +0.017 A 
ATOM      6  C   UNL     1       3.900   0.364  -7.570  0.00  0.00    +0.024 A 
ATOM      7  C   UNL     1       4.288  -0.988  -7.592  0.00  0.00    +0.037 A 
ATOM      8  C   UNL     1       3.760  -1.888  -6.662  0.00  0.00    +0.070 A 
ATOM      9  C   UNL     1       2.853  -1.445  -5.718  0.00  0.00    +0.141 A 
ATOM     10  O   UNL     1       2.338  -2.299  -4.808  0.00  0.00    -0.454 OA
ATOM     11  N   UNL     1       5.179  -1.421  -8.522  0.00  0.00    -0.279 N 
ATOM     12  C   UNL     1       5.769  -2.603  -8.377  0.00  0.00    +0.284 C 
ATOM     13  O   UNL     1       5.605  -3.245  -7.351  0.00  0.00    -0.266 OA
ATOM     14  H   UNL     1       5.385  -0.867  -9.291  0.00  0.00    +0.155 HD
ENDROOT
BRANCH  12  15
ATOM     15  C   UNL     1       6.620  -3.139  -9.455  0.00  0.00    +0.191 A 
ATOM     16  C   UNL     1       7.265  -4.332  -9.420  0.00  0.00    +0.063 A 
ATOM     17  C   UNL     1       7.980  -4.444 -10.692  0.00  0.00    +0.022 A 
ATOM     18  C   UNL     1       8.809  -5.413 -11.260  0.00  0.00    +0.027 A 
ATOM     19  C   UNL     1       9.335  -5.210 -12.505  0.00  0.00    +0.019 A 
ATOM     20  C   UNL     1       9.049  -4.046 -13.207  0.00  0.00    +0.019 A 
ATOM     21  C   UNL     1       8.233  -3.078 -12.663  0.00  0.00    +0.048 A 
ATOM     22  C   UNL     1       7.686  -3.264 -11.399  0.00  0.00    +0.136 A 
ATOM     23  O   UNL     1       6.870  -2.520 -10.627  0.00  0.00    -0.450 OA
ATOM     24 BR   UNL     1      10.459  -6.520 -13.277  0.00  0.00    -0.050 Br
ENDBRANCH  12  15
BRANCH   1  30
ATOM     25  C   UNL     1       1.216  -4.224  -3.051  0.00  0.00    +0.131 A 
ATOM     26  C   UNL     1       0.709  -5.130  -2.131  0.00  0.00    +0.046 A 
ATOM     27  C   UNL     1      -0.093  -4.690  -1.097  0.00  0.00    +0.004 A 
ATOM     28  C   UNL     1      -0.398  -3.345  -0.968  0.00  0.00    +0.001 A 
ATOM     29  C   UNL     1       0.097  -2.430  -1.871  0.00  0.00    +0.015 A 
ATOM     30  C   UNL     1       0.915  -2.860  -2.921  0.00  0.00    +0.059 A 
BRANCH  25  31
ATOM     31  O   UNL     1       2.004  -4.655  -4.068  0.00  0.00    -0.492 OA
BRANCH  31  33
ATOM     32  C   UNL     1       3.167  -6.350  -5.338  0.00  0.00    +0.048 C 
ATOM     33  C   UNL     1       2.267  -6.058  -4.136  0.00  0.00    +0.226 C 
ENDBRANCH  31  33
ENDBRANCH  25  31
ENDBRANCH   1  30
BRANCH   3  34
ATOM     34  O   UNL     1       1.150   1.651  -4.687  0.00  0.00    -0.506 OA
ATOM     35  H   UNL     1       0.514   1.846  -3.986  0.00  0.00    +0.292 HD
ENDBRANCH   3  34
TORSDOF 5
