REMARK  Name = ZINC62580304
REMARK  11 active torsions:
REMARK  status: ('A' for Active; 'I' for Inactive)
REMARK    1  A    between atoms: C_1  and  C_2
REMARK    2  A    between atoms: C_5  and  C_8
REMARK    3  A    between atoms: C_8  and  C_10
REMARK    4  A    between atoms: C_8  and  N_30
REMARK    5  A    between atoms: C_10  and  N_11
REMARK    6  A    between atoms: C_12  and  C_14
REMARK    7  A    between atoms: C_17  and  S_20
REMARK    8  A    between atoms: S_20  and  N_23
REMARK    9  A    between atoms: C_26  and  C_29
REMARK   10  A    between atoms: N_30  and  C_31
REMARK   11  A    between atoms: N_30  and  C_32
REMARK                            x       y       z     vdW  Elec       q    Type
REMARK                         _______ _______ _______ _____ _____    ______ ____
ROOT
ATOM      1  N   UNL     1      -1.116  -6.359   0.374  0.00  0.00    -0.313 N 
ATOM      2  C   UNL     1      -2.198  -7.131   0.595  0.00  0.00    +0.244 C 
ATOM      3  O   UNL     1      -3.280  -6.617   0.800  0.00  0.00    -0.270 OA
ATOM      4  H   UNL     1      -0.252  -6.769   0.210  0.00  0.00    +0.149 HD
ENDROOT
BRANCH   2   5
ATOM      5  C   UNL     1      -2.068  -8.604   0.586  0.00  0.00    +0.037 A 
ATOM      6  C   UNL     1      -0.826  -9.197   0.356  0.00  0.00    +0.015 A 
ATOM      7  C   UNL     1      -0.712 -10.572   0.350  0.00  0.00    +0.029 A 
ATOM      8  C   UNL     1      -1.826 -11.363   0.572  0.00  0.00    +0.106 A 
ATOM      9  C   UNL     1      -3.060 -10.781   0.800  0.00  0.00    +0.029 A 
ATOM     10  C   UNL     1      -3.187  -9.407   0.815  0.00  0.00    +0.015 A 
BRANCH   8  11
ATOM     11  S   UNL     1      -1.671 -13.118   0.562  0.00  0.00    +0.061 S 
ATOM     12  O   UNL     1      -2.957 -13.637   0.252  0.00  0.00    -0.153 OA
ATOM     13  O   UNL     1      -0.520 -13.420  -0.215  0.00  0.00    -0.153 OA
BRANCH  11  14
ATOM     14  N   UNL     1      -1.332 -13.588   2.113  0.00  0.00    -0.177 NA
ATOM     15  C   UNL     1       0.058 -13.685   2.579  0.00  0.00    +0.110 C 
ATOM     16  C   UNL     1       0.285 -15.082   3.165  0.00  0.00    +0.020 C 
ATOM     17  C   UNL     1      -0.761 -15.353   4.248  0.00  0.00    -0.012 C 
ATOM     18  C   UNL     1      -2.160 -15.311   3.630  0.00  0.00    +0.020 C 
ATOM     19  C   UNL     1      -2.416 -13.911   3.051  0.00  0.00    +0.110 C 
ATOM     20  C   UNL     1      -0.516 -16.734   4.860  0.00  0.00    +0.007 C 
ENDBRANCH  11  14
ENDBRANCH   8  11
ENDBRANCH   2   5
BRANCH   1  21
ATOM     21  C   UNL     1      -1.244  -4.899   0.382  0.00  0.00    +0.094 C 
BRANCH  21  22
ATOM     22  C   UNL     1       0.090  -4.268  -0.022  0.00  0.00    -0.021 C 
BRANCH  22  27
ATOM     23  C   UNL     1       1.298  -5.663  -5.498  0.00  0.00    +0.044 C 
ATOM     24  C   UNL     1       0.983  -5.299  -4.070  0.00  0.00    -0.050 A 
ATOM     25  C   UNL     1       1.585  -5.987  -3.033  0.00  0.00    +0.003 A 
ATOM     26  C   UNL     1       1.296  -5.653  -1.722  0.00  0.00    +0.002 A 
ATOM     27  C   UNL     1       0.406  -4.631  -1.450  0.00  0.00    -0.059 A 
ATOM     28  C   UNL     1      -0.195  -3.943  -2.487  0.00  0.00    +0.002 A 
ATOM     29  C   UNL     1       0.097  -4.274  -3.797  0.00  0.00    +0.003 A 
ENDBRANCH  22  27
BRANCH  22  30
ATOM     30  N   UNL     1      -0.002  -2.807   0.103  0.00  0.00    +0.382 N 
ATOM     31  C   UNL     1      -0.292  -2.452   1.498  0.00  0.00    -0.096 C 
ATOM     32  C   UNL     1       1.273  -2.200  -0.302  0.00  0.00    -0.096 C 
ATOM     33  H   UNL     1      -0.742  -2.465  -0.492  0.00  0.00    -0.082 HD
ENDBRANCH  22  30
ENDBRANCH  21  22
ENDBRANCH   1  21
TORSDOF 7
