REMARK  Name = ZINC40033320
REMARK  11 active torsions:
REMARK  status: ('A' for Active; 'I' for Inactive)
REMARK    1  A    between atoms: C_1  and  C_2
REMARK    2  A    between atoms: C_2  and  N_3
REMARK    3  A    between atoms: N_3  and  C_4
REMARK    4  A    between atoms: N_3  and  C_6
REMARK    5  A    between atoms: C_4  and  C_5
REMARK    6  A    between atoms: C_9  and  C_12
REMARK    7  A    between atoms: N_13  and  N_14
REMARK    8  A    between atoms: N_21  and  C_22
REMARK    9  A    between atoms: C_25  and  C_28
REMARK   10  A    between atoms: C_29  and  C_37
REMARK   11  A    between atoms: C_29  and  C_38
REMARK                            x       y       z     vdW  Elec       q    Type
REMARK                         _______ _______ _______ _____ _____    ______ ____
ROOT
ATOM      1  N   UNL     1      -6.185  -1.726   5.773  0.00  0.00    -0.206 N 
ATOM      2  C   UNL     1      -7.510  -2.073   5.839  0.00  0.00    +0.223 A 
ATOM      3  N   UNL     1      -8.095  -2.585   4.776  0.00  0.00    -0.214 NA
ATOM      4  C   UNL     1      -9.385  -2.935   4.805  0.00  0.00    +0.084 A 
ATOM      5  C   UNL     1     -10.124  -2.766   5.967  0.00  0.00    +0.049 A 
ATOM      6  C   UNL     1      -9.496  -2.219   7.093  0.00  0.00    +0.264 A 
ATOM      7  O   UNL     1     -10.115  -2.053   8.132  0.00  0.00    -0.267 OA
ATOM      8  N   UNL     1      -8.191  -1.884   7.006  0.00  0.00    -0.248 N 
ATOM      9  C   UNL     1     -11.570  -3.171   6.011  0.00  0.00    +0.001 C 
ATOM     10  C   UNL     1     -12.247  -2.897   4.670  0.00  0.00    +0.047 C 
ATOM     11  C   UNL     1     -11.446  -3.488   3.542  0.00  0.00    -0.037 A 
ATOM     12  C   UNL     1     -10.051  -3.501   3.610  0.00  0.00    +0.004 A 
ATOM     13  C   UNL     1      -9.307  -4.042   2.566  0.00  0.00    +0.010 A 
ATOM     14  C   UNL     1      -9.954  -4.567   1.465  0.00  0.00    +0.001 A 
ATOM     15  C   UNL     1     -11.336  -4.556   1.402  0.00  0.00    +0.000 A 
ATOM     16  C   UNL     1     -12.080  -4.017   2.437  0.00  0.00    +0.004 A 
ATOM     17  C   UNL     1     -11.666  -4.665   6.327  0.00  0.00    +0.016 C 
ATOM     18  C   UNL     1     -12.284  -2.378   7.107  0.00  0.00    +0.016 C 
ATOM     19  H   UNL     1      -5.763  -1.280   6.524  0.00  0.00    +0.177 HD
ENDROOT
BRANCH   8  20
ATOM     20  C   UNL     1      -7.536  -1.337   8.116  0.00  0.00    +0.053 A 
ATOM     21  C   UNL     1      -7.521   0.038   8.308  0.00  0.00    +0.026 A 
ATOM     22  C   UNL     1      -6.875   0.574   9.404  0.00  0.00    +0.005 A 
ATOM     23  C   UNL     1      -6.242  -0.257  10.310  0.00  0.00    -0.050 A 
ATOM     24  C   UNL     1      -6.254  -1.627  10.123  0.00  0.00    +0.005 A 
ATOM     25  C   UNL     1      -6.904  -2.169   9.031  0.00  0.00    +0.026 A 
ATOM     26  C   UNL     1      -5.537   0.332  11.505  0.00  0.00    +0.044 C 
ENDBRANCH   8  20
BRANCH   1  28
ATOM     27  C   UNL     1      -4.187  -1.689   4.559  0.00  0.00    +0.138 C 
ATOM     28  N   UNL     1      -5.442  -2.017   4.622  0.00  0.00    -0.188 NA
BRANCH  27  32
ATOM     29  C   UNL     1      -1.934  -2.570   1.070  0.00  0.00    +0.030 A 
ATOM     30  C   UNL     1      -1.327  -1.930   2.145  0.00  0.00    +0.024 A 
ATOM     31  C   UNL     1      -2.054  -1.642   3.279  0.00  0.00    +0.011 A 
ATOM     32  C   UNL     1      -3.405  -1.994   3.348  0.00  0.00    -0.005 A 
ATOM     33  C   UNL     1      -4.012  -2.638   2.266  0.00  0.00    +0.011 A 
ATOM     34  C   UNL     1      -3.279  -2.918   1.133  0.00  0.00    +0.024 A 
BRANCH  29  35
ATOM     35  N   UNL     1      -1.194  -2.860  -0.076  0.00  0.00    -0.330 N 
BRANCH  35  37
ATOM     36  C   UNL     1       0.359  -1.085  -0.723  0.00  0.00    +0.024 C 
ATOM     37  C   UNL     1       0.223  -2.494  -0.145  0.00  0.00    +0.102 C 
ENDBRANCH  35  37
BRANCH  35  38
ATOM     38  C   UNL     1      -1.834  -3.529  -1.212  0.00  0.00    +0.102 C 
ATOM     39  C   UNL     1      -1.699  -5.045  -1.052  0.00  0.00    +0.024 C 
ENDBRANCH  35  38
ENDBRANCH  29  35
ENDBRANCH  27  32
ENDBRANCH   1  28
TORSDOF 6
