REMARK  Name = ZINC14951413
REMARK  5 active torsions:
REMARK  status: ('A' for Active; 'I' for Inactive)
REMARK    1  A    between atoms: C_2  and  C_19
REMARK    2  A    between atoms: C_4  and  S_13
REMARK    3  A    between atoms: C_6  and  S_7
REMARK    4  A    between atoms: S_7  and  C_9
REMARK    5  A    between atoms: S_13  and  C_15
REMARK                            x       y       z     vdW  Elec       q    Type
REMARK                         _______ _______ _______ _____ _____    ______ ____
ROOT
ATOM      1  C   UNL     1      -3.678   1.546   0.028  0.00  0.00    +0.030 A 
ATOM      2  C   UNL     1      -2.458   0.867   0.018  0.00  0.00    +0.039 A 
ATOM      3  C   UNL     1      -2.442  -0.528   0.005  0.00  0.00    +0.030 A 
ATOM      4  C   UNL     1      -3.631  -1.228   0.012  0.00  0.00    +0.049 A 
ATOM      5  C   UNL     1      -4.837  -0.550   0.021  0.00  0.00    +0.035 A 
ATOM      6  C   UNL     1      -4.859   0.834   0.029  0.00  0.00    +0.049 A 
ENDROOT
BRANCH   2   7
ATOM      7  C   UNL     1      -1.187   1.624   0.017  0.00  0.00    +0.242 C 
ATOM      8  O   UNL     1      -1.204   2.839   0.023  0.00  0.00    -0.270 OA
ATOM      9  N   UNL     1      -0.011   0.966   0.007  0.00  0.00    -0.325 N 
ATOM     10  H   UNL     1       0.934   1.529   0.006  0.00  0.00    +0.145 HD
ATOM     11  H   UNL     1       0.004  -0.134   0.001  0.00  0.00    +0.145 HD
ENDBRANCH   2   7
BRANCH   6  12
ATOM     12  S   UNL     1      -6.400   1.688   0.041  0.00  0.00    +0.157 S 
ATOM     13  O   UNL     1      -7.306   0.755   0.614  0.00  0.00    -0.244 OA
BRANCH  12  14
ATOM     14  C   UNL     1      -6.792   1.911  -1.716  0.00  0.00    +0.477 C 
ATOM     15  F   UNL     1      -6.888   0.660  -2.335  0.00  0.00    -0.158 F 
ATOM     16  F   UNL     1      -8.010   2.587  -1.840  0.00  0.00    -0.158 F 
ATOM     17  F   UNL     1      -5.780   2.658  -2.328  0.00  0.00    -0.158 F 
ENDBRANCH  12  14
ENDBRANCH   6  12
BRANCH   4  18
ATOM     18  S   UNL     1      -3.614  -2.990   0.001  0.00  0.00    +0.157 S 
ATOM     19  O   UNL     1      -4.862  -3.349   0.578  0.00  0.00    -0.244 OA
BRANCH  18  20
ATOM     20  C   UNL     1      -3.617  -3.419  -1.761  0.00  0.00    +0.477 C 
ATOM     21  F   UNL     1      -2.482  -2.877  -2.375  0.00  0.00    -0.158 F 
ATOM     22  F   UNL     1      -3.604  -4.811  -1.903  0.00  0.00    -0.158 F 
ATOM     23  F   UNL     1      -4.767  -2.899  -2.365  0.00  0.00    -0.158 F 
ENDBRANCH  18  20
ENDBRANCH   4  18
TORSDOF 5
