REMARK  Name = ZINC18333600
REMARK  6 active torsions:
REMARK  status: ('A' for Active; 'I' for Inactive)
REMARK    1  A    between atoms: C_1  and  C_2
REMARK    2  A    between atoms: C_2  and  C_4
REMARK    3  A    between atoms: C_2  and  S_20
REMARK    4  A    between atoms: C_10  and  C_15
REMARK    5  A    between atoms: S_20  and  C_21
REMARK    6  A    between atoms: C_27  and  C_31
REMARK                            x       y       z     vdW  Elec       q    Type
REMARK                         _______ _______ _______ _____ _____    ______ ____
ROOT
ATOM      1  C   UNL     1       6.529  -1.190   1.242  0.00  0.00    +0.027 C 
ATOM      2  C   UNL     1       6.074  -1.842  -0.065  0.00  0.00    +0.117 C 
ENDROOT
BRANCH   2   3
ATOM      3  C   UNL     1       6.719  -3.196  -0.202  0.00  0.00    +0.124 A 
ATOM      4  N   UNL     1       7.868  -3.319  -0.916  0.00  0.00    -0.309 N 
ATOM      5  H   UNL     1       8.258  -2.532  -1.328  0.00  0.00    +0.170 HD
ATOM      6  C   UNL     1       8.476  -4.510  -1.063  0.00  0.00    +0.260 A 
ATOM      7  O   UNL     1       9.508  -4.603  -1.706  0.00  0.00    -0.267 OA
ATOM      8  C   UNL     1       7.895  -5.666  -0.452  0.00  0.00    +0.083 A 
ATOM      9  C   UNL     1       8.358  -7.050  -0.466  0.00  0.00    +0.039 A 
ATOM     10  C   UNL     1       7.631  -7.986   0.195  0.00  0.00    +0.059 A 
ATOM     11  S   UNL     1       6.274  -7.052   0.875  0.00  0.00    -0.076 S 
ATOM     12  C   UNL     1       6.708  -5.443   0.266  0.00  0.00    +0.116 A 
ATOM     13  N   UNL     1       6.168  -4.232   0.371  0.00  0.00    -0.225 NA
BRANCH   9  14
ATOM     14  C   UNL     1       9.594  -7.423  -1.184  0.00  0.00    +0.136 A 
ATOM     15  C   UNL     1      10.624  -8.150  -0.675  0.00  0.00    +0.050 A 
ATOM     16  C   UNL     1      11.584  -8.268  -1.701  0.00  0.00    +0.042 A 
ATOM     17  C   UNL     1      11.101  -7.607  -2.771  0.00  0.00    +0.196 A 
ATOM     18  O   UNL     1       9.898  -7.097  -2.455  0.00  0.00    -0.463 OA
ENDBRANCH   9  14
ENDBRANCH   2   3
BRANCH   2  19
ATOM     19  S   UNL     1       4.269  -2.031  -0.050  0.00  0.00    -0.075 S 
BRANCH  19  20
ATOM     20  C   UNL     1       3.668  -0.375  -0.035  0.00  0.00    +0.197 A 
ATOM     21  N   UNL     1       4.396   0.719  -0.035  0.00  0.00    -0.122 NA
ATOM     22  N   UNL     1       3.640   1.759  -0.023  0.00  0.00    -0.127 NA
ATOM     23  C   UNL     1       2.373   1.388  -0.013  0.00  0.00    +0.180 A 
ATOM     24  N   UNL     1       2.359   0.009  -0.020  0.00  0.00    -0.276 N 
ATOM     25  C   UNL     1       1.173  -0.671  -0.013  0.00  0.00    +0.107 A 
ATOM     26  C   UNL     1       0.002  -0.004   0.002  0.00  0.00    +0.073 A 
ATOM     27  C   UNL     1      -0.017   1.403   0.010  0.00  0.00    +0.037 A 
ATOM     28  C   UNL     1       1.153   2.096   0.002  0.00  0.00    +0.086 A 
ATOM     29 CL   UNL     1       1.146   3.832   0.011  0.00  0.00    -0.080 Cl
BRANCH  26  30
ATOM     30  C   UNL     1      -1.296  -0.770   0.010  0.00  0.00    +0.419 C 
ATOM     31  F   UNL     1      -2.368   0.129   0.025  0.00  0.00    -0.166 F 
ATOM     32  F   UNL     1      -1.373  -1.569  -1.136  0.00  0.00    -0.166 F 
ATOM     33  F   UNL     1      -1.351  -1.581   1.148  0.00  0.00    -0.166 F 
ENDBRANCH  26  30
ENDBRANCH  19  20
ENDBRANCH   2  19
TORSDOF 5
