REMARK  Name = ZINC08791491
REMARK  9 active torsions:
REMARK  status: ('A' for Active; 'I' for Inactive)
REMARK    1  A    between atoms: C_1  and  C_2
REMARK    2  A    between atoms: C_2  and  C_3
REMARK    3  A    between atoms: C_2  and  C_4
REMARK    4  A    between atoms: C_7  and  N_10
REMARK    5  A    between atoms: C_13  and  C_20
REMARK    6  A    between atoms: C_14  and  O_19
REMARK    7  A    between atoms: C_27  and  O_28
REMARK    8  A    between atoms: O_28  and  C_29
REMARK    9  A    between atoms: C_35  and  N_61
REMARK                            x       y       z     vdW  Elec       q    Type
REMARK                         _______ _______ _______ _____ _____    ______ ____
ROOT
ATOM      1  N   UNL     1      -0.700  -2.884   3.160  0.00  0.00    -0.256 N 
ATOM      2  C   UNL     1      -0.079  -2.069   2.285  0.00  0.00    +0.265 A 
ATOM      3  O   UNL     1       0.592  -1.133   2.687  0.00  0.00    -0.267 OA
ATOM      4  C   UNL     1      -0.209  -2.305   0.905  0.00  0.00    +0.068 A 
ATOM      5  C   UNL     1      -0.969  -3.356   0.482  0.00  0.00    +0.199 A 
ATOM      6  N   UNL     1      -1.579  -4.163   1.407  0.00  0.00    -0.306 N 
ATOM      7  H   UNL     1      -2.118  -4.913   1.111  0.00  0.00    +0.171 HD
ATOM      8  C   UNL     1      -1.441  -3.918   2.723  0.00  0.00    +0.168 A 
ATOM      9  S   UNL     1      -2.219  -4.938   3.857  0.00  0.00    -0.012 S 
ENDROOT
BRANCH   4  10
ATOM     10  C   UNL     1       0.476  -1.407  -0.092  0.00  0.00    +0.007 C 
ATOM     11  C   UNL     1      -0.114  -0.024  -0.002  0.00  0.00    -0.008 A 
ATOM     12  C   UNL     1       0.674   1.107  -0.043  0.00  0.00    -0.040 A 
ATOM     13  C   UNL     1       0.090   2.362   0.036  0.00  0.00    +0.053 A 
ATOM     14  C   UNL     1      -1.284   2.492   0.161  0.00  0.00    +0.170 A 
ATOM     15  C   UNL     1      -2.082   1.354   0.204  0.00  0.00    +0.208 A 
ATOM     16  C   UNL     1      -1.494   0.099   0.122  0.00  0.00    +0.167 A 
ATOM     17  O   UNL     1      -3.386   1.739   0.335  0.00  0.00    -0.449 OA
ATOM     18  C   UNL     1      -3.341   3.109   0.773  0.00  0.00    +0.467 C 
ATOM     19  O   UNL     1      -2.086   3.592   0.258  0.00  0.00    -0.452 OA
ATOM     20  C   UNL     1       2.174   1.022  -0.171  0.00  0.00    +0.017 C 
ATOM     21  C   UNL     1       2.578  -0.371  -0.654  0.00  0.00    -0.073 C 
ATOM     22  C   UNL     1       2.519  -2.698   0.019  0.00  0.00    -0.095 C 
ATOM     23  N   UNL     1       1.915  -1.363   0.218  0.00  0.00    +0.386 N 
ATOM     24  H   UNL     1       2.039  -1.083   1.198  0.00  0.00    -0.081 HD
BRANCH  16  25
ATOM     25  O   UNL     1      -2.271  -1.016   0.163  0.00  0.00    -0.491 OA
ATOM     26  C   UNL     1      -2.753  -1.517  -1.086  0.00  0.00    +0.277 C 
ENDBRANCH  16  25
ENDBRANCH   4  10
BRANCH   1  30
ATOM     27  C   UNL     1      -0.324  -2.196   7.254  0.00  0.00    -0.045 A 
ATOM     28  C   UNL     1      -1.356  -1.606   6.547  0.00  0.00    +0.006 A 
ATOM     29  C   UNL     1      -1.483  -1.832   5.190  0.00  0.00    +0.026 A 
ATOM     30  C   UNL     1      -0.573  -2.652   4.536  0.00  0.00    +0.052 A 
ATOM     31  C   UNL     1       0.459  -3.247   5.250  0.00  0.00    +0.026 A 
ATOM     32  C   UNL     1       0.583  -3.013   6.606  0.00  0.00    +0.006 A 
BRANCH  27  34
ATOM     33  C   UNL     1      -0.286  -3.277   9.485  0.00  0.00    +0.012 C 
ATOM     34  C   UNL     1      -0.189  -1.947   8.734  0.00  0.00    +0.013 C 
ATOM     35  C   UNL     1       1.166  -1.297   9.020  0.00  0.00    +0.012 C 
ENDBRANCH  27  34
ENDBRANCH   1  30
BRANCH   5  36
ATOM     36  O   UNL     1      -1.115  -3.601  -0.838  0.00  0.00    -0.493 OA
ATOM     37  H   UNL     1      -1.671  -4.367  -1.036  0.00  0.00    +0.294 HD
ENDBRANCH   5  36
TORSDOF 5
