REMARK  Name = ZINC11855095
REMARK  6 active torsions:
REMARK  status: ('A' for Active; 'I' for Inactive)
REMARK    1  A    between atoms: C_1  and  C_2
REMARK    2  A    between atoms: C_2  and  C_3
REMARK    3  A    between atoms: C_4  and  C_32
REMARK    4  A    between atoms: C_12  and  N_21
REMARK    5  A    between atoms: C_14  and  C_16
REMARK    6  A    between atoms: C_22  and  C_24
REMARK                            x       y       z     vdW  Elec       q    Type
REMARK                         _______ _______ _______ _____ _____    ______ ____
ROOT
ATOM      1  C   UNL     1       1.878   8.258   0.032  0.00  0.00    +0.038 A 
ATOM      2  C   UNL     1       1.657   6.912   0.026  0.00  0.00    +0.050 A 
ATOM      3  N   UNL     1       2.685   6.066   0.007  0.00  0.00    -0.217 NA
ATOM      4  C   UNL     1       3.928   6.498   0.003  0.00  0.00    +0.234 A 
ATOM      5  N   UNL     1       4.211   7.828   0.008  0.00  0.00    -0.291 N 
ATOM      6  H   UNL     1       5.133   8.129   0.001  0.00  0.00    +0.172 HD
ATOM      7  C   UNL     1       3.205   8.728   0.022  0.00  0.00    +0.256 A 
ATOM      8  O   UNL     1       3.441   9.925   0.027  0.00  0.00    -0.267 OA
ATOM      9  N   UNL     1       4.963   5.584  -0.012  0.00  0.00    -0.185 N 
ATOM     10  C   UNL     1       4.834   4.224  -0.019  0.00  0.00    +0.132 A 
ATOM     11  C   UNL     1       6.082   3.692  -0.027  0.00  0.00    +0.074 A 
ATOM     12  C   UNL     1       7.006   4.758  -0.035  0.00  0.00    +0.102 A 
ATOM     13  N   UNL     1       6.330   5.889  -0.023  0.00  0.00    -0.162 NA
ATOM     14  C   UNL     1       0.246   6.382   0.037  0.00  0.00    +0.066 C 
ENDROOT
BRANCH  12  15
ATOM     15  C   UNL     1       8.479   4.629  -0.049  0.00  0.00    +0.039 A 
ATOM     16  C   UNL     1       9.431   5.613  -0.051  0.00  0.00    +0.018 A 
ATOM     17  C   UNL     1      10.760   5.248  -0.064  0.00  0.00    +0.008 A 
ATOM     18  C   UNL     1      11.084   3.929  -0.074  0.00  0.00    +0.046 A 
ATOM     19  S   UNL     1       9.478   3.150  -0.058  0.00  0.00    -0.095 S 
ENDBRANCH  12  15
BRANCH  10  20
ATOM     20  N   UNL     1       3.637   3.513  -0.012  0.00  0.00    -0.266 N 
ATOM     21  C   UNL     1       3.655   2.165  -0.020  0.00  0.00    +0.249 C 
ATOM     22  O   UNL     1       4.715   1.571  -0.033  0.00  0.00    -0.270 OA
ATOM     23  H   UNL     1       2.791   3.987  -0.002  0.00  0.00    +0.157 HD
BRANCH  21  24
ATOM     24  C   UNL     1       2.385   1.410  -0.013  0.00  0.00    +0.040 A 
ATOM     25  C   UNL     1       1.166   2.090   0.002  0.00  0.00    +0.016 A 
ATOM     26  C   UNL     1      -0.017   1.382   0.010  0.00  0.00    +0.042 A 
ATOM     27  C   UNL     1       0.002  -0.004   0.002  0.00  0.00    +0.158 A 
ATOM     28  C   UNL     1       1.211  -0.686  -0.014  0.00  0.00    +0.159 A 
ATOM     29  C   UNL     1       2.401   0.014  -0.021  0.00  0.00    +0.054 A 
ATOM     30  F   UNL     1       1.223  -2.038  -0.021  0.00  0.00    -0.202 F 
ATOM     31  F   UNL     1      -1.160  -0.693   0.009  0.00  0.00    -0.202 F 
ENDBRANCH  21  24
ENDBRANCH  10  20
BRANCH   1  33
ATOM     32  C   UNL     1       0.426   9.640   1.492  0.00  0.00    +0.009 C 
ATOM     33  C   UNL     1       0.723   9.225   0.049  0.00  0.00    +0.039 C 
ENDBRANCH   1  33
TORSDOF 4
