REMARK  Name = ZINC44023479
REMARK  3 active torsions:
REMARK  status: ('A' for Active; 'I' for Inactive)
REMARK    1  A    between atoms: C_10  and  N_11
REMARK    2  A    between atoms: N_11  and  C_12
REMARK    3  A    between atoms: N_16  and  C_21
REMARK                            x       y       z     vdW  Elec       q    Type
REMARK                         _______ _______ _______ _____ _____    ______ ____
ROOT
ATOM      1  C   UNL     1       6.025  -0.644   0.003  0.00  0.00    +0.109 A 
ATOM      2  C   UNL     1       7.240  -0.022   0.083  0.00  0.00    +0.112 A 
ATOM      3  C   UNL     1       8.405  -0.805   0.129  0.00  0.00    +0.259 A 
ATOM      4  O   UNL     1       9.499  -0.273   0.201  0.00  0.00    -0.267 OA
ATOM      5  N   UNL     1       8.305  -2.149   0.093  0.00  0.00    -0.258 N 
ATOM      6  C   UNL     1       7.101  -2.744   0.014  0.00  0.00    +0.331 A 
ATOM      7  O   UNL     1       7.034  -3.958  -0.018  0.00  0.00    -0.246 OA
ATOM      8  N   UNL     1       5.970  -2.017  -0.026  0.00  0.00    -0.296 N 
ATOM      9  H   UNL     1       5.111  -2.464  -0.079  0.00  0.00    +0.172 HD
ENDROOT
BRANCH   5  10
ATOM     10  C   UNL     1       9.519  -2.968   0.140  0.00  0.00    +0.095 C 
ATOM     11  C   UNL     1       9.471  -3.880   1.368  0.00  0.00    +0.025 C 
ATOM     12  C   UNL     1      10.739  -4.736   1.418  0.00  0.00    +0.002 C 
ATOM     13  C   UNL     1      10.827  -5.590   0.152  0.00  0.00    +0.000 C 
ATOM     14  C   UNL     1      10.874  -4.679  -1.077  0.00  0.00    +0.002 C 
ATOM     15  C   UNL     1       9.607  -3.823  -1.126  0.00  0.00    +0.025 C 
ENDBRANCH   5  10
BRANCH   1  16
ATOM     16  N   UNL     1       4.870   0.097  -0.044  0.00  0.00    -0.300 N 
ATOM     17  H   UNL     1       4.670   0.728   0.665  0.00  0.00    +0.154 HD
BRANCH  16  27
ATOM     18  C   UNL     1       0.282   1.891  -1.139  0.00  0.00    +0.001 A 
ATOM     19  C   UNL     1       1.151   2.058  -0.063  0.00  0.00    +0.001 A 
ATOM     20  C   UNL     1       2.361   1.433  -0.035  0.00  0.00    +0.010 A 
ATOM     21  C   UNL     1       2.740   0.607  -1.105  0.00  0.00    +0.003 A 
ATOM     22  C   UNL     1       1.857   0.436  -2.200  0.00  0.00    -0.016 A 
ATOM     23  C   UNL     1       0.617   1.098  -2.193  0.00  0.00    +0.008 A 
ATOM     24  C   UNL     1       2.236  -0.391  -3.271  0.00  0.00    +0.008 A 
ATOM     25  C   UNL     1       3.443  -1.020  -3.251  0.00  0.00    +0.002 A 
ATOM     26  C   UNL     1       4.319  -0.860  -2.181  0.00  0.00    +0.024 A 
ATOM     27  C   UNL     1       3.985  -0.057  -1.111  0.00  0.00    +0.040 A 
ENDBRANCH  16  27
ENDBRANCH   1  16
TORSDOF 3
