REMARK  Name = ZINC36342642
REMARK  9 active torsions:
REMARK  status: ('A' for Active; 'I' for Inactive)
REMARK    1  A    between atoms: C_1  and  C_2
REMARK    2  A    between atoms: C_2  and  O_3
REMARK    3  A    between atoms: O_3  and  C_4
REMARK    4  A    between atoms: C_4  and  C_6
REMARK    5  A    between atoms: N_12  and  C_13
REMARK    6  A    between atoms: C_13  and  C_14
REMARK    7  A    between atoms: C_17  and  C_29
REMARK    8  A    between atoms: C_20  and  C_22
REMARK    9  A    between atoms: C_25  and  C_28
REMARK                            x       y       z     vdW  Elec       q    Type
REMARK                         _______ _______ _______ _____ _____    ______ ____
ROOT
ATOM      1  C   UNL     1       2.347  -5.661  -1.065  0.00  0.00    +0.219 C 
ATOM      2  O   UNL     1       1.877  -6.370  -1.930  0.00  0.00    -0.276 OA
ATOM      3  N   UNL     1       2.950  -6.214   0.006  0.00  0.00    -0.187 N 
ATOM      4  C   UNL     1       3.114  -7.657   0.246  0.00  0.00    +0.137 C 
ATOM      5  C   UNL     1       3.861  -7.716   1.593  0.00  0.00    +0.087 C 
ATOM      6  C   UNL     1       4.041  -6.264   1.974  0.00  0.00    +0.069 C 
ATOM      7  N   UNL     1       3.527  -5.513   1.063  0.00  0.00    -0.181 NA
ENDROOT
BRANCH   4   8
ATOM      8  C   UNL     1       1.771  -8.332   0.350  0.00  0.00    -0.021 A 
ATOM      9  C   UNL     1       0.725  -7.694   0.990  0.00  0.00    +0.009 A 
ATOM     10  C   UNL     1      -0.508  -8.310   1.087  0.00  0.00    +0.050 A 
ATOM     11  C   UNL     1      -0.700  -9.570   0.544  0.00  0.00    +0.166 A 
ATOM     12  C   UNL     1       0.354 -10.213  -0.101  0.00  0.00    +0.167 A 
ATOM     13  C   UNL     1       1.586  -9.587  -0.200  0.00  0.00    +0.055 A 
ATOM     14  O   UNL     1      -0.082 -11.428  -0.545  0.00  0.00    -0.453 OA
ATOM     15  C   UNL     1      -1.292 -11.693   0.190  0.00  0.00    +0.466 C 
ATOM     16  O   UNL     1      -1.796 -10.382   0.504  0.00  0.00    -0.453 OA
ENDBRANCH   4   8
BRANCH   6  17
ATOM     17  C   UNL     1       4.708  -5.782   3.199  0.00  0.00    -0.002 A 
ATOM     18  C   UNL     1       5.239  -6.694   4.114  0.00  0.00    +0.010 A 
ATOM     19  C   UNL     1       5.861  -6.236   5.256  0.00  0.00    +0.004 A 
ATOM     20  C   UNL     1       5.959  -4.877   5.497  0.00  0.00    -0.050 A 
ATOM     21  C   UNL     1       5.434  -3.968   4.596  0.00  0.00    +0.004 A 
ATOM     22  C   UNL     1       4.815  -4.411   3.446  0.00  0.00    +0.010 A 
ATOM     23  C   UNL     1       6.640  -4.384   6.748  0.00  0.00    +0.044 C 
ENDBRANCH   6  17
BRANCH   1  24
ATOM     24  C   UNL     1       2.255  -4.162  -1.187  0.00  0.00    +0.022 C 
BRANCH  24  30
ATOM     25  C   UNL     1       1.319  -2.366  -2.470  0.00  0.00    +0.043 C 
ATOM     26  C   UNL     1       0.521  -2.010  -3.726  0.00  0.00    -0.004 C 
ATOM     27  C   UNL     1       1.316  -2.430  -4.965  0.00  0.00    -0.003 C 
ATOM     28  C   UNL     1       1.623  -3.928  -4.879  0.00  0.00    -0.019 C 
ATOM     29  C   UNL     1       2.380  -4.213  -3.580  0.00  0.00    -0.077 C 
ATOM     30  N   UNL     1       1.557  -3.814  -2.432  0.00  0.00    +0.394 N 
ATOM     31  H   UNL     1       0.673  -4.300  -2.467  0.00  0.00    -0.080 HD
BRANCH  25  32
ATOM     32  C   UNL     1       0.541  -1.953  -1.247  0.00  0.00    +0.293 C 
ATOM     33  O   UNL     1      -0.211  -2.737  -0.717  0.00  0.00    -0.253 OA
BRANCH  32  34
ATOM     34  O   UNL     1       0.682  -0.716  -0.747  0.00  0.00    -0.466 OA
BRANCH  34  36
ATOM     35  C   UNL     1       0.206   1.049   0.833  0.00  0.00    +0.048 C 
ATOM     36  C   UNL     1      -0.086  -0.393   0.413  0.00  0.00    +0.228 C 
ENDBRANCH  34  36
ENDBRANCH  32  34
ENDBRANCH  25  32
ENDBRANCH  24  30
ENDBRANCH   1  24
TORSDOF 7
