REMARK  Name = ZINC43666653
REMARK  4 active torsions:
REMARK  status: ('A' for Active; 'I' for Inactive)
REMARK    1  A    between atoms: C_1  and  C_2
REMARK    2  A    between atoms: C_2  and  C_4
REMARK    3  A    between atoms: C_2  and  N_15
REMARK    4  A    between atoms: C_16  and  N_21
REMARK                            x       y       z     vdW  Elec       q    Type
REMARK                         _______ _______ _______ _____ _____    ______ ____
ROOT
ATOM      1  C   UNL     1      -0.019   1.526   0.010  0.00  0.00    +0.038 C 
ATOM      2  C   UNL     1       0.002  -0.004   0.002  0.00  0.00    +0.136 C 
ENDROOT
BRANCH   2   3
ATOM      3  C   UNL     1       0.731  -0.503   1.223  0.00  0.00    -0.020 A 
ATOM      4  C   UNL     1       2.050  -0.146   1.432  0.00  0.00    +0.009 A 
ATOM      5  C   UNL     1       2.726  -0.601   2.550  0.00  0.00    +0.050 A 
ATOM      6  C   UNL     1       2.075  -1.415   3.462  0.00  0.00    +0.162 A 
ATOM      7  C   UNL     1       0.750  -1.772   3.252  0.00  0.00    +0.162 A 
ATOM      8  C   UNL     1       0.076  -1.312   2.134  0.00  0.00    +0.055 A 
ATOM      9  O   UNL     1       0.117  -2.574   4.157  0.00  0.00    -0.488 OA
ATOM     10  C   UNL     1       0.581  -3.924   4.228  0.00  0.00    +0.232 C 
ATOM     11  C   UNL     1       1.790  -4.032   5.144  0.00  0.00    +0.082 C 
ATOM     12  C   UNL     1       2.993  -3.272   4.609  0.00  0.00    +0.232 C 
ATOM     13  O   UNL     1       2.729  -1.868   4.570  0.00  0.00    -0.488 OA
ENDBRANCH   2   3
BRANCH   2  14
ATOM     14  N   UNL     1       0.688  -0.476  -1.203  0.00  0.00    -0.243 N 
ATOM     15  C   UNL     1       0.150  -1.258  -2.175  0.00  0.00    +0.128 A 
ATOM     16  C   UNL     1       1.115  -1.466  -3.113  0.00  0.00    +0.072 A 
ATOM     17  C   UNL     1       2.268  -0.793  -2.698  0.00  0.00    +0.150 A 
ATOM     18  N   UNL     1       2.013  -0.198  -1.562  0.00  0.00    -0.176 NA
ATOM     19  I   UNL     1       0.910  -2.596  -4.865  0.00  0.00    -0.039 I 
BRANCH  15  20
ATOM     20  N   UNL     1      -1.150  -1.755  -2.207  0.00  0.00    -0.342 N 
ATOM     21  H   UNL     1      -1.766  -1.549  -1.486  0.00  0.00    +0.144 HD
ATOM     22  H   UNL     1      -1.440  -2.308  -2.950  0.00  0.00    +0.144 HD
ENDBRANCH  15  20
ENDBRANCH   2  14
TORSDOF 3
