REMARK  Name = ZINC08400393
REMARK  8 active torsions:
REMARK  status: ('A' for Active; 'I' for Inactive)
REMARK    1  A    between atoms: C_1  and  C_2
REMARK    2  A    between atoms: C_5  and  C_8
REMARK    3  A    between atoms: C_11  and  C_34
REMARK    4  A    between atoms: C_13  and  C_28
REMARK    5  A    between atoms: C_14  and  C_15
REMARK    6  A    between atoms: N_16  and  C_17
REMARK    7  A    between atoms: C_17  and  C_18
REMARK    8  A    between atoms: C_18  and  C_19
REMARK                            x       y       z     vdW  Elec       q    Type
REMARK                         _______ _______ _______ _____ _____    ______ ____
ROOT
ATOM      1  C   UNL     1      -0.054  -3.967   0.260  0.00  0.00    +0.080 C 
ATOM      2  C   UNL     1       1.229  -4.705   0.522  0.00  0.00    +0.033 C 
ATOM      3  C   UNL     1       1.341  -5.556   1.533  0.00  0.00    +0.133 C 
ATOM      4  O   UNL     1       0.314  -5.805   2.376  0.00  0.00    -0.455 OA
ATOM      5  C   UNL     1      -0.944  -5.495   2.007  0.00  0.00    +0.141 C 
ATOM      6  C   UNL     1      -1.186  -4.623   1.003  0.00  0.00    +0.022 C 
ENDROOT
BRANCH   1  11
ATOM      7  C   UNL     1       0.482   1.506   2.035  0.00  0.00    +0.044 C 
ATOM      8  C   UNL     1       0.342   0.079   1.572  0.00  0.00    -0.050 A 
ATOM      9  C   UNL     1       0.070  -0.193   0.244  0.00  0.00    +0.003 A 
ATOM     10  C   UNL     1      -0.058  -1.502  -0.180  0.00  0.00    +0.005 A 
ATOM     11  C   UNL     1       0.086  -2.539   0.722  0.00  0.00    -0.036 A 
ATOM     12  C   UNL     1       0.359  -2.267   2.050  0.00  0.00    +0.005 A 
ATOM     13  C   UNL     1       0.491  -0.958   2.474  0.00  0.00    +0.003 A 
ENDBRANCH   1  11
BRANCH   5  14
ATOM     14  C   UNL     1      -2.080  -6.119   2.714  0.00  0.00    +0.018 A 
ATOM     15  C   UNL     1      -3.075  -6.784   1.993  0.00  0.00    +0.011 A 
ATOM     16  C   UNL     1      -4.133  -7.365   2.660  0.00  0.00    +0.001 A 
ATOM     17  C   UNL     1      -4.211  -7.291   4.040  0.00  0.00    +0.000 A 
ATOM     18  C   UNL     1      -3.228  -6.634   4.760  0.00  0.00    +0.001 A 
ATOM     19  C   UNL     1      -2.162  -6.053   4.107  0.00  0.00    +0.011 A 
ENDBRANCH   5  14
BRANCH   3  20
ATOM     20  C   UNL     1       2.630  -6.254   1.744  0.00  0.00    +0.017 A 
ATOM     21  C   UNL     1       3.706  -6.010   0.891  0.00  0.00    +0.011 A 
ATOM     22  C   UNL     1       4.904  -6.664   1.092  0.00  0.00    +0.001 A 
ATOM     23  C   UNL     1       5.039  -7.559   2.138  0.00  0.00    +0.000 A 
ATOM     24  C   UNL     1       3.975  -7.806   2.987  0.00  0.00    +0.001 A 
ATOM     25  C   UNL     1       2.774  -7.154   2.799  0.00  0.00    +0.011 A 
ENDBRANCH   3  20
BRANCH   6  26
ATOM     26  C   UNL     1      -2.519  -4.325   0.648  0.00  0.00    +0.086 C 
ATOM     27  N   UNL     1      -2.765  -3.539  -0.361  0.00  0.00    -0.390 N 
ATOM     28  H   UNL     1      -2.036  -3.222  -0.917  0.00  0.00    +0.159 HD
BRANCH  27  29
ATOM     29  C   UNL     1      -4.141  -3.134  -0.656  0.00  0.00    +0.117 C 
BRANCH  29  30
ATOM     30  C   UNL     1      -4.282  -1.623  -0.455  0.00  0.00    +0.058 C 
BRANCH  30  31
ATOM     31  C   UNL     1      -5.722  -1.223  -0.646  0.00  0.00    -0.021 A 
ATOM     32  C   UNL     1      -6.779  -1.260   0.368  0.00  0.00    +0.003 A 
ATOM     33  C   UNL     1      -6.820  -1.634   1.712  0.00  0.00    +0.010 A 
ATOM     34  C   UNL     1      -7.996  -1.550   2.404  0.00  0.00    +0.001 A 
ATOM     35  C   UNL     1      -9.150  -1.095   1.780  0.00  0.00    +0.002 A 
ATOM     36  C   UNL     1      -9.131  -0.721   0.454  0.00  0.00    +0.026 A 
ATOM     37  C   UNL     1      -7.945  -0.798  -0.269  0.00  0.00    +0.047 A 
ATOM     38  N   UNL     1      -7.608  -0.506  -1.572  0.00  0.00    -0.360 N 
ATOM     39  C   UNL     1      -6.279  -0.760  -1.776  0.00  0.00    +0.087 A 
ATOM     40  H   UNL     1      -8.220  -0.167  -2.243  0.00  0.00    +0.165 HD
ENDBRANCH  30  31
ENDBRANCH  29  30
ENDBRANCH  27  29
ENDBRANCH   6  26
TORSDOF 7
