REMARK  Name = ZINC08821016
REMARK  3 active torsions:
REMARK  status: ('A' for Active; 'I' for Inactive)
REMARK    1  A    between atoms: C_6  and  C_7
REMARK    2  A    between atoms: C_10  and  C_12
REMARK    3  A    between atoms: N_18  and  C_19
REMARK                            x       y       z     vdW  Elec       q    Type
REMARK                         _______ _______ _______ _____ _____    ______ ____
ROOT
ATOM      1  C   UNL     1      -5.062  -0.861  -1.296  0.00  0.00    +0.066 C 
ATOM      2  C   UNL     1      -5.534   0.335  -0.835  0.00  0.00    +0.081 C 
ATOM      3  C   UNL     1      -4.802   1.579  -0.552  0.00  0.00    +0.257 C 
ATOM      4  O   UNL     1      -3.599   1.661  -0.719  0.00  0.00    -0.269 OA
ATOM      5  N   UNL     1      -5.509   2.605  -0.109  0.00  0.00    -0.260 N 
ATOM      6  C   UNL     1      -6.870   2.493   0.073  0.00  0.00    +0.166 C 
ATOM      7  N   UNL     1      -7.715   3.404   0.502  0.00  0.00    -0.224 NA
ATOM      8  S   UNL     1      -7.205   0.811  -0.422  0.00  0.00    -0.049 S 
ATOM      9  H   UNL     1      -5.065   3.445   0.090  0.00  0.00    +0.157 HD
ENDROOT
BRANCH   7  10
ATOM     10  C   UNL     1      -9.031   3.079   0.697  0.00  0.00    +0.085 A 
ATOM     11  C   UNL     1      -9.370   1.958   1.458  0.00  0.00    +0.031 A 
ATOM     12  C   UNL     1     -10.698   1.636   1.651  0.00  0.00    +0.022 A 
ATOM     13  C   UNL     1     -11.693   2.420   1.092  0.00  0.00    +0.042 A 
ATOM     14  C   UNL     1     -11.364   3.533   0.337  0.00  0.00    +0.042 A 
ATOM     15  C   UNL     1     -10.039   3.870   0.141  0.00  0.00    +0.068 A 
ATOM     16 CL   UNL     1      -9.628   5.270  -0.800  0.00  0.00    -0.081 Cl
ATOM     17 CL   UNL     1     -13.361   2.006   1.339  0.00  0.00    -0.083 Cl
ENDBRANCH   7  10
BRANCH   1  21
ATOM     18  C   UNL     1      -1.502  -0.714  -1.401  0.00  0.00    +0.136 A 
ATOM     19  C   UNL     1      -1.683  -2.007  -1.805  0.00  0.00    +0.050 A 
ATOM     20  C   UNL     1      -3.060  -2.245  -1.821  0.00  0.00    +0.050 A 
ATOM     21  C   UNL     1      -3.672  -1.070  -1.422  0.00  0.00    +0.130 A 
ATOM     22  O   UNL     1      -2.707  -0.162  -1.168  0.00  0.00    -0.455 OA
BRANCH  18  28
ATOM     23  C   UNL     1      -0.149   1.292  -0.814  0.00  0.00    +0.013 A 
ATOM     24  C   UNL     1       1.071   1.919  -0.666  0.00  0.00    +0.022 A 
ATOM     25  C   UNL     1       2.243   1.234  -0.940  0.00  0.00    +0.059 A 
ATOM     26  C   UNL     1       2.199  -0.085  -1.364  0.00  0.00    +0.060 A 
ATOM     27  C   UNL     1       0.985  -0.724  -1.516  0.00  0.00    +0.033 A 
ATOM     28  C   UNL     1      -0.201  -0.038  -1.241  0.00  0.00    +0.019 A 
ATOM     29 CL   UNL     1       3.674  -0.935  -1.705  0.00  0.00    -0.082 Cl
ATOM     30 CL   UNL     1       3.773   2.031  -0.751  0.00  0.00    -0.082 Cl
ENDBRANCH  18  28
ENDBRANCH   1  21
TORSDOF 3
