REMARK  Name = ZINC25810861
REMARK  8 active torsions:
REMARK  status: ('A' for Active; 'I' for Inactive)
REMARK    1  A    between atoms: C_1  and  C_2
REMARK    2  A    between atoms: C_2  and  C_3
REMARK    3  A    between atoms: C_10  and  C_12
REMARK    4  A    between atoms: C_15  and  S_18
REMARK    5  A    between atoms: N_16  and  C_17
REMARK    6  A    between atoms: S_18  and  C_19
REMARK    7  A    between atoms: C_19  and  C_20
REMARK    8  A    between atoms: N_25  and  C_26
REMARK                            x       y       z     vdW  Elec       q    Type
REMARK                         _______ _______ _______ _____ _____    ______ ____
ROOT
ATOM      1  S   UNL     1       8.521  -4.689   5.514  0.00  0.00    -0.077 S 
ENDROOT
BRANCH   1   5
ATOM      2  C   UNL     1      11.995  -4.839   7.298  0.00  0.00    +0.171 A 
ATOM      3  N   UNL     1      11.968  -3.615   6.818  0.00  0.00    -0.128 NA
ATOM      4  N   UNL     1      10.866  -3.416   6.188  0.00  0.00    -0.122 NA
ATOM      5  C   UNL     1      10.117  -4.494   6.234  0.00  0.00    +0.192 A 
ATOM      6  N   UNL     1      10.810  -5.440   6.938  0.00  0.00    -0.305 N 
ATOM      7  C   UNL     1      10.380  -6.806   7.245  0.00  0.00    +0.153 C 
BRANCH   2  14
ATOM      8  C   UNL     1      17.238  -6.083  10.480  0.00  0.00    -0.007 C 
ATOM      9  C   UNL     1      16.992  -7.589  10.350  0.00  0.00    +0.009 C 
ATOM     10  C   UNL     1      15.484  -7.855  10.479  0.00  0.00    +0.043 C 
ATOM     11  C   UNL     1      14.760  -6.891   9.596  0.00  0.00    -0.006 A 
ATOM     12  C   UNL     1      15.257  -5.762   9.015  0.00  0.00    -0.036 A 
ATOM     13  C   UNL     1      14.379  -5.026   8.229  0.00  0.00    +0.023 A 
ATOM     14  C   UNL     1      13.087  -5.451   8.073  0.00  0.00    +0.057 A 
ATOM     15  S   UNL     1      13.069  -6.938   9.063  0.00  0.00    -0.090 S 
ATOM     16  C   UNL     1      16.711  -5.358   9.241  0.00  0.00    +0.039 C 
BRANCH   8  18
ATOM     17  C   UNL     1      18.979  -4.335  10.871  0.00  0.00    +0.004 C 
ATOM     18  C   UNL     1      18.739  -5.824  10.617  0.00  0.00    +0.000 C 
ENDBRANCH   8  18
ENDBRANCH   2  14
ENDBRANCH   1   5
BRANCH   1  19
ATOM     19  C   UNL     1       8.304  -3.048   4.781  0.00  0.00    +0.173 C 
BRANCH  19  20
ATOM     20  C   UNL     1       6.967  -2.979   4.090  0.00  0.00    +0.231 C 
ATOM     21  O   UNL     1       6.232  -3.944   4.093  0.00  0.00    -0.274 OA
ATOM     22  N   UNL     1       6.587  -1.845   3.469  0.00  0.00    -0.239 N 
ATOM     23  C   UNL     1       5.391  -1.783   2.852  0.00  0.00    +0.310 C 
ATOM     24  O   UNL     1       4.654  -2.750   2.854  0.00  0.00    -0.252 OA
ATOM     25  N   UNL     1       5.011  -0.649   2.230  0.00  0.00    -0.269 N 
ATOM     26  H   UNL     1       7.253  -0.970   3.467  0.00  0.00    +0.159 HD
ATOM     27  H   UNL     1       5.711   0.196   2.152  0.00  0.00    +0.156 HD
BRANCH  25  28
ATOM     28  C   UNL     1       3.724  -0.546   1.685  0.00  0.00    +0.038 A 
ATOM     29  C   UNL     1       2.657  -1.190   2.296  0.00  0.00    +0.027 A 
ATOM     30  C   UNL     1       1.388  -1.089   1.760  0.00  0.00    +0.051 A 
ATOM     31  C   UNL     1       1.176  -0.346   0.610  0.00  0.00    +0.166 A 
ATOM     32  C   UNL     1       2.245   0.301  -0.006  0.00  0.00    +0.168 A 
ATOM     33  C   UNL     1       3.517   0.200   0.533  0.00  0.00    +0.073 A 
ATOM     34  O   UNL     1       1.780   0.960  -1.108  0.00  0.00    -0.453 OA
ATOM     35  C   UNL     1       0.353   1.046  -0.931  0.00  0.00    +0.466 C 
ATOM     36  O   UNL     1       0.041  -0.093  -0.107  0.00  0.00    -0.453 OA
ENDBRANCH  25  28
ENDBRANCH  19  20
ENDBRANCH   1  19
TORSDOF 6
