REMARK  Name = ZINC63628327
REMARK  6 active torsions:
REMARK  status: ('A' for Active; 'I' for Inactive)
REMARK    1  A    between atoms: C_1  and  C_2
REMARK    2  A    between atoms: C_5  and  N_9
REMARK    3  A    between atoms: C_7  and  C_8
REMARK    4  A    between atoms: C_14  and  N_17
REMARK    5  A    between atoms: C_23  and  C_25
REMARK    6  A    between atoms: C_28  and  C_31
REMARK                            x       y       z     vdW  Elec       q    Type
REMARK                         _______ _______ _______ _____ _____    ______ ____
ROOT
ATOM      1  N   UNL     1      -0.762  -6.802  -2.361  0.00  0.00    -0.280 NA
ATOM      2  C   UNL     1      -1.589  -8.014  -2.309  0.00  0.00    +0.105 C 
ATOM      3  C   UNL     1      -1.330  -8.859  -3.561  0.00  0.00    +0.123 C 
ATOM      4  N   UNL     1      -1.539  -8.014  -4.746  0.00  0.00    -0.297 N 
ATOM      5  C   UNL     1      -0.848  -6.717  -4.806  0.00  0.00    +0.123 C 
ATOM      6  C   UNL     1      -1.126  -5.957  -3.506  0.00  0.00    +0.105 C 
ATOM      7  C   UNL     1      -2.341  -8.418  -5.751  0.00  0.00    +0.246 C 
ATOM      8  O   UNL     1      -2.903  -9.490  -5.685  0.00  0.00    -0.273 OA
ENDROOT
BRANCH   1  14
ATOM      9  N   UNL     1       0.059  -4.169  -0.021  0.00  0.00    -0.200 N 
ATOM     10  C   UNL     1       0.171  -4.840   1.143  0.00  0.00    +0.257 C 
ATOM     11  O   UNL     1       0.294  -4.239   2.194  0.00  0.00    -0.269 OA
ATOM     12  C   UNL     1       0.141  -6.315   1.121  0.00  0.00    +0.068 C 
ATOM     13  C   UNL     1      -0.353  -6.911   0.032  0.00  0.00    +0.014 C 
ATOM     14  C   UNL     1      -0.850  -6.050  -1.102  0.00  0.00    +0.166 C 
ATOM     15  N   UNL     1      -0.041  -4.836  -1.204  0.00  0.00    -0.212 NA
ATOM     16  H   UNL     1       0.872  -5.045  -1.579  0.00  0.00    +0.147 HD
BRANCH   9  21
ATOM     17  C   UNL     1      -0.017   1.503   0.011  0.00  0.00    +0.044 C 
ATOM     18  C   UNL     1       0.004  -0.004   0.003  0.00  0.00    -0.047 A 
ATOM     19  C   UNL     1      -0.808  -0.710   0.872  0.00  0.00    +0.005 A 
ATOM     20  C   UNL     1      -0.792  -2.091   0.867  0.00  0.00    +0.025 A 
ATOM     21  C   UNL     1       0.041  -2.771  -0.013  0.00  0.00    +0.053 A 
ATOM     22  C   UNL     1       0.854  -2.059  -0.885  0.00  0.00    +0.028 A 
ATOM     23  C   UNL     1       0.830  -0.678  -0.878  0.00  0.00    -0.046 A 
ATOM     24  C   UNL     1       1.708   0.095  -1.827  0.00  0.00    +0.044 C 
ENDBRANCH   9  21
ENDBRANCH   1  14
BRANCH   7  25
ATOM     25  C   UNL     1      -2.541  -7.535  -6.956  0.00  0.00    +0.238 C 
ATOM     26  C   UNL     1      -1.397  -7.706  -7.940  0.00  0.00    +0.041 C 
ATOM     27  C   UNL     1      -1.998  -8.174  -9.055  0.00  0.00    +0.098 C 
ATOM     28  N   UNL     1      -3.337  -8.299  -8.854  0.00  0.00    -0.153 NA
ATOM     29  N   UNL     1      -3.719  -7.967  -7.726  0.00  0.00    -0.170 NA
BRANCH  27  30
ATOM     30  C   UNL     1      -1.299  -8.502 -10.316  0.00  0.00    +0.039 A 
ATOM     31  C   UNL     1      -1.817  -8.973 -11.492  0.00  0.00    +0.018 A 
ATOM     32  C   UNL     1      -0.962  -9.210 -12.546  0.00  0.00    +0.008 A 
ATOM     33  C   UNL     1       0.365  -8.970 -12.386  0.00  0.00    +0.046 A 
ATOM     34  S   UNL     1       0.440  -8.381 -10.703  0.00  0.00    -0.095 S 
ENDBRANCH  27  30
ENDBRANCH   7  25
TORSDOF 4
