REMARK  Name = ZINC10645676
REMARK  9 active torsions:
REMARK  status: ('A' for Active; 'I' for Inactive)
REMARK    1  A    between atoms: C_1  and  C_2
REMARK    2  A    between atoms: C_5  and  C_35
REMARK    3  A    between atoms: C_6  and  N_8
REMARK    4  A    between atoms: C_21  and  S_22
REMARK    5  A    between atoms: S_22  and  C_23
REMARK    6  A    between atoms: C_23  and  C_25
REMARK    7  A    between atoms: C_23  and  C_26
REMARK    8  A    between atoms: N_28  and  C_29
REMARK    9  A    between atoms: C_31  and  C_34
REMARK                            x       y       z     vdW  Elec       q    Type
REMARK                         _______ _______ _______ _____ _____    ______ ____
ROOT
ATOM      1  N   UNL     1      -2.324  -5.700   1.286  0.00  0.00    -0.245 N 
ATOM      2  C   UNL     1      -3.602  -5.680   1.719  0.00  0.00    +0.268 A 
ATOM      3  O   UNL     1      -4.174  -6.716   2.004  0.00  0.00    -0.267 OA
ATOM      4  C   UNL     1      -4.294  -4.385   1.843  0.00  0.00    +0.064 A 
ATOM      5  C   UNL     1      -5.613  -4.309   2.286  0.00  0.00    +0.015 A 
ATOM      6  C   UNL     1      -6.228  -3.079   2.389  0.00  0.00    +0.001 A 
ATOM      7  C   UNL     1      -5.541  -1.923   2.055  0.00  0.00    +0.002 A 
ATOM      8  C   UNL     1      -4.234  -1.984   1.615  0.00  0.00    +0.027 A 
ATOM      9  C   UNL     1      -3.599  -3.212   1.505  0.00  0.00    +0.064 A 
ATOM     10  N   UNL     1      -2.284  -3.308   1.065  0.00  0.00    -0.255 N 
ATOM     11  C   UNL     1      -1.664  -4.526   0.959  0.00  0.00    +0.245 A 
ATOM     12  N   UNL     1      -0.448  -4.297   0.525  0.00  0.00    -0.109 NA
ATOM     13  N   UNL     1      -0.271  -3.036   0.350  0.00  0.00    -0.120 NA
ATOM     14  C   UNL     1      -1.360  -2.379   0.671  0.00  0.00    +0.198 A 
ENDROOT
BRANCH   1  20
ATOM     15  C   UNL     1       0.500  -9.197   3.277  0.00  0.00    +0.044 C 
ATOM     16  C   UNL     1      -0.280  -8.643   2.113  0.00  0.00    -0.048 A 
ATOM     17  C   UNL     1      -0.336  -9.344   0.923  0.00  0.00    +0.004 A 
ATOM     18  C   UNL     1      -1.050  -8.838  -0.148  0.00  0.00    +0.005 A 
ATOM     19  C   UNL     1      -1.715  -7.633  -0.029  0.00  0.00    -0.026 A 
ATOM     20  C   UNL     1      -1.656  -6.924   1.163  0.00  0.00    +0.056 A 
ATOM     21  C   UNL     1      -0.938  -7.435   2.237  0.00  0.00    +0.030 A 
ATOM     22  C   UNL     1      -2.498  -7.085  -1.194  0.00  0.00    +0.046 C 
ENDBRANCH   1  20
BRANCH  14  23
ATOM     23  S   UNL     1      -1.591  -0.634   0.599  0.00  0.00    -0.073 S 
BRANCH  23  24
ATOM     24  C   UNL     1       0.002  -0.004   0.002  0.00  0.00    +0.137 C 
ATOM     25  C   UNL     1       0.246  -0.503  -1.424  0.00  0.00    +0.029 C 
BRANCH  24  26
ATOM     26  C   UNL     1      -0.018   1.503   0.010  0.00  0.00    +0.233 C 
ATOM     27  O   UNL     1      -1.077   2.095   0.018  0.00  0.00    -0.274 OA
ATOM     28  N   UNL     1       1.139   2.192   0.003  0.00  0.00    -0.253 N 
ATOM     29  H   UNL     1       1.986   1.719  -0.008  0.00  0.00    +0.158 HD
BRANCH  28  30
ATOM     30  C   UNL     1       1.121   3.580   0.011  0.00  0.00    +0.224 A 
ATOM     31  C   UNL     1       2.201   4.414   0.005  0.00  0.00    +0.092 A 
ATOM     32  C   UNL     1       1.634   5.704   0.017  0.00  0.00    +0.082 A 
ATOM     33  N   UNL     1       0.341   5.540   0.028  0.00  0.00    -0.081 NA
ATOM     34  O   UNL     1       0.036   4.371   0.019  0.00  0.00    -0.339 OA
ATOM     35  C   UNL     1       2.377   7.015   0.016  0.00  0.00    +0.069 C 
ENDBRANCH  28  30
ENDBRANCH  24  26
ENDBRANCH  23  24
ENDBRANCH  14  23
TORSDOF 5
