REMARK  Name = ZINC00989237
REMARK  3 active torsions:
REMARK  status: ('A' for Active; 'I' for Inactive)
REMARK    1  A    between atoms: C_3  and  C_6
REMARK    2  A    between atoms: C_8  and  C_21
REMARK    3  A    between atoms: C_12  and  N_17
REMARK                            x       y       z     vdW  Elec       q    Type
REMARK                         _______ _______ _______ _____ _____    ______ ____
ROOT
ATOM      1  C   UNL     1      -2.301  -0.172   0.023  0.00  0.00    +0.079 A 
ATOM      2  C   UNL     1      -2.432   1.218   0.032  0.00  0.00    +0.038 A 
ATOM      3  C   UNL     1      -1.302   2.020   0.031  0.00  0.00    -0.004 A 
ATOM      4  C   UNL     1      -0.017   1.402   0.010  0.00  0.00    +0.042 A 
ATOM      5  C   UNL     1       1.298   2.065   0.001  0.00  0.00    +0.095 A 
ATOM      6  C   UNL     1       2.412   1.217  -0.014  0.00  0.00    +0.080 A 
ATOM      7  C   UNL     1       3.701   1.729  -0.024  0.00  0.00    +0.136 A 
ATOM      8  N   UNL     1       3.858   3.053  -0.018  0.00  0.00    -0.199 NA
ATOM      9  C   UNL     1       2.795   3.846  -0.003  0.00  0.00    +0.215 A 
ATOM     10  N   UNL     1       1.560   3.393   0.006  0.00  0.00    -0.213 NA
ATOM     11  N   UNL     1       2.995   5.218   0.002  0.00  0.00    -0.327 N 
ATOM     12  S   UNL     1       1.730  -0.418  -0.017  0.00  0.00    -0.064 S 
ATOM     13  C   UNL     1       0.002  -0.004   0.002  0.00  0.00    +0.112 A 
ATOM     14  N   UNL     1      -1.094  -0.732   0.009  0.00  0.00    -0.239 NA
ATOM     15  H   UNL     1       3.897   5.577  -0.004  0.00  0.00    +0.145 HD
ATOM     16  H   UNL     1       2.234   5.819   0.013  0.00  0.00    +0.145 HD
ENDROOT
BRANCH   3  17
ATOM     17  C   UNL     1      -1.427   3.497   0.041  0.00  0.00    -0.017 A 
ATOM     18  C   UNL     1      -0.705   4.253   0.963  0.00  0.00    +0.011 A 
ATOM     19  C   UNL     1      -0.821   5.628   0.966  0.00  0.00    +0.039 A 
ATOM     20  C   UNL     1      -1.661   6.256   0.061  0.00  0.00    +0.123 A 
ATOM     21  C   UNL     1      -2.384   5.508  -0.855  0.00  0.00    +0.039 A 
ATOM     22  C   UNL     1      -2.271   4.133  -0.868  0.00  0.00    +0.011 A 
ATOM     23  F   UNL     1      -1.776   7.602   0.071  0.00  0.00    -0.205 F 
ENDBRANCH   3  17
BRANCH   1  26
ATOM     24  C   UNL     1      -4.846  -2.972   0.035  0.00  0.00    +0.008 A 
ATOM     25  C   UNL     1      -3.598  -2.392   0.025  0.00  0.00    +0.017 A 
ATOM     26  C   UNL     1      -3.507  -1.024   0.031  0.00  0.00    +0.038 A 
ATOM     27  S   UNL     1      -5.225  -0.542   0.058  0.00  0.00    -0.095 S 
ATOM     28  C   UNL     1      -5.946  -2.175   0.050  0.00  0.00    +0.046 A 
ENDBRANCH   1  26
BRANCH   7  29
ATOM     29  N   UNL     1       4.801   0.885  -0.039  0.00  0.00    -0.342 N 
ATOM     30  H   UNL     1       4.673  -0.077  -0.044  0.00  0.00    +0.144 HD
ATOM     31  H   UNL     1       5.697   1.255  -0.045  0.00  0.00    +0.144 HD
ENDBRANCH   7  29
TORSDOF 3
