REMARK  Name = ZINC36489984
REMARK  9 active torsions:
REMARK  status: ('A' for Active; 'I' for Inactive)
REMARK    1  A    between atoms: C_1  and  C_2
REMARK    2  A    between atoms: C_2  and  C_3
REMARK    3  A    between atoms: C_2  and  O_25
REMARK    4  A    between atoms: C_6  and  S_8
REMARK    5  A    between atoms: S_8  and  C_9
REMARK    6  A    between atoms: C_9  and  C_10
REMARK    7  A    between atoms: C_12  and  O_13
REMARK    8  A    between atoms: C_22  and  C_24
REMARK    9  A    between atoms: O_25  and  C_26
REMARK                            x       y       z     vdW  Elec       q    Type
REMARK                         _______ _______ _______ _____ _____    ______ ____
ROOT
ATOM      1  C   UNL     1      -6.251  -2.568  -0.003  0.00  0.00    +0.115 C 
ENDROOT
BRANCH   1   2
ATOM      2  C   UNL     1      -7.230  -3.059   1.033  0.00  0.00    -0.020 A 
ATOM      3  C   UNL     1      -7.069  -4.296   1.625  0.00  0.00    +0.092 A 
ATOM      4  C   UNL     1      -7.980  -4.731   2.576  0.00  0.00    +0.285 A 
ATOM      5  O   UNL     1      -9.021  -3.975   2.941  0.00  0.00    -0.425 OA
ATOM      6  C   UNL     1      -9.225  -2.759   2.394  0.00  0.00    +0.141 A 
ATOM      7  C   UNL     1      -8.326  -2.262   1.424  0.00  0.00    +0.022 A 
ATOM      8  C   UNL     1      -8.533  -0.993   0.857  0.00  0.00    +0.013 A 
ATOM      9  C   UNL     1      -9.595  -0.240   1.246  0.00  0.00    +0.024 A 
ATOM     10  C   UNL     1     -10.492  -0.723   2.215  0.00  0.00    +0.037 A 
ATOM     11  C   UNL     1     -10.307  -1.986   2.780  0.00  0.00    +0.070 A 
ATOM     12  N   UNL     1     -11.552   0.040   2.597  0.00  0.00    -0.286 N 
ATOM     13  C   UNL     1     -12.209  -0.249   3.703  0.00  0.00    +0.214 C 
ATOM     14  O   UNL     1     -11.796  -1.122   4.446  0.00  0.00    -0.276 OA
ATOM     15  C   UNL     1     -13.471   0.498   4.047  0.00  0.00    +0.109 C 
ATOM     16  H   UNL     1     -11.825   0.797   2.055  0.00  0.00    +0.155 HD
BRANCH   4  17
ATOM     17  O   UNL     1      -7.812  -5.940   3.146  0.00  0.00    -0.480 OA
ATOM     18  H   UNL     1      -8.490  -6.166   3.797  0.00  0.00    +0.295 HD
ENDBRANCH   4  17
ENDBRANCH   1   2
BRANCH   1  19
ATOM     19  S   UNL     1      -4.710  -2.066   0.811  0.00  0.00    -0.061 S 
BRANCH  19  23
ATOM     20  C   UNL     1      -2.028  -0.761  -1.665  0.00  0.00    +0.258 A 
ATOM     21  N   UNL     1      -3.011  -1.049  -2.467  0.00  0.00    -0.108 NA
ATOM     22  N   UNL     1      -4.003  -1.505  -1.787  0.00  0.00    -0.101 NA
ATOM     23  C   UNL     1      -3.684  -1.525  -0.515  0.00  0.00    +0.278 A 
ATOM     24  O   UNL     1      -2.425  -1.059  -0.412  0.00  0.00    -0.412 OA
BRANCH  20  26
ATOM     25  C   UNL     1      -0.835   1.282  -2.407  0.00  0.00    +0.062 C 
ATOM     26  C   UNL     1      -0.687  -0.202  -2.065  0.00  0.00    +0.257 C 
BRANCH  26  27
ATOM     27  O   UNL     1      -0.199  -0.907  -3.208  0.00  0.00    -0.477 OA
BRANCH  27  28
ATOM     28  C   UNL     1       1.148  -0.925  -3.393  0.00  0.00    +0.157 A 
ATOM     29  C   UNL     1       1.973  -0.185  -2.560  0.00  0.00    +0.048 A 
ATOM     30  C   UNL     1       3.342  -0.204  -2.749  0.00  0.00    +0.004 A 
ATOM     31  C   UNL     1       3.890  -0.959  -3.770  0.00  0.00    +0.003 A 
ATOM     32  C   UNL     1       3.071  -1.698  -4.603  0.00  0.00    +0.042 A 
ATOM     33  C   UNL     1       1.700  -1.688  -4.414  0.00  0.00    +0.165 A 
ATOM     34  F   UNL     1       0.900  -2.414  -5.224  0.00  0.00    -0.202 F 
ENDBRANCH  27  28
ENDBRANCH  26  27
ENDBRANCH  20  26
ENDBRANCH  19  23
ENDBRANCH   1  19
TORSDOF 7
