REMARK  Name = ZINC39749509
REMARK  14 active torsions:
REMARK  status: ('A' for Active; 'I' for Inactive)
REMARK    1  A    between atoms: C_1  and  C_2
REMARK    2  A    between atoms: C_2  and  O_3
REMARK    3  A    between atoms: O_3  and  C_4
REMARK    4  A    between atoms: C_7  and  C_13
REMARK    5  A    between atoms: C_9  and  N_10
REMARK    6  A    between atoms: C_13  and  C_15
REMARK    7  A    between atoms: C_15  and  S_16
REMARK    8  A    between atoms: S_16  and  C_17
REMARK    9  A    between atoms: C_20  and  C_25
REMARK   10  A    between atoms: N_21  and  C_22
REMARK   11  A    between atoms: C_22  and  C_23
REMARK   12  A    between atoms: C_22  and  C_24
REMARK   13  A    between atoms: C_25  and  N_26
REMARK   14  A    between atoms: C_27  and  C_29
REMARK                            x       y       z     vdW  Elec       q    Type
REMARK                         _______ _______ _______ _____ _____    ______ ____
ROOT
ATOM      1  C   UNL     1       0.207  -9.592  -0.041  0.00  0.00    +0.192 A 
ATOM      2  N   UNL     1       1.420  -9.090  -0.039  0.00  0.00    -0.122 NA
ATOM      3  N   UNL     1       2.285 -10.040  -0.050  0.00  0.00    -0.132 NA
ATOM      4  C   UNL     1       1.682 -11.195  -0.060  0.00  0.00    +0.152 A 
ATOM      5  N   UNL     1       0.337 -10.951  -0.049  0.00  0.00    -0.302 N 
ENDROOT
BRANCH   5   6
ATOM      6  C   UNL     1      -0.742 -11.943  -0.049  0.00  0.00    +0.085 C 
ATOM      7  C   UNL     1      -1.600 -11.763   1.206  0.00  0.00    +0.030 C 
ATOM      8  C   UNL     1      -1.611 -11.751  -1.293  0.00  0.00    +0.030 C 
ENDBRANCH   5   6
BRANCH   1   9
ATOM      9  S   UNL     1      -1.303  -8.684  -0.029  0.00  0.00    -0.078 S 
BRANCH   9  10
ATOM     10  C   UNL     1      -0.772  -6.950  -0.023  0.00  0.00    +0.157 C 
BRANCH  10  11
ATOM     11  C   UNL     1      -1.983  -6.053  -0.012  0.00  0.00    +0.173 C 
ATOM     12  O   UNL     1      -3.096  -6.537  -0.009  0.00  0.00    -0.291 OA
BRANCH  11  16
ATOM     13  C   UNL     1      -1.498  -1.846   0.006  0.00  0.00    +0.151 A 
ATOM     14  C   UNL     1      -0.382  -2.676  -0.003  0.00  0.00    +0.048 A 
ATOM     15  C   UNL     1      -0.534  -4.033  -0.009  0.00  0.00    +0.015 A 
ATOM     16  C   UNL     1      -1.817  -4.594  -0.005  0.00  0.00    +0.021 A 
ATOM     17  C   UNL     1      -2.941  -3.759   0.004  0.00  0.00    +0.047 A 
ATOM     18  C   UNL     1      -2.777  -2.392   0.016  0.00  0.00    +0.168 A 
BRANCH  18  19
ATOM     19  N   UNL     1      -3.961  -1.504   0.032  0.00  0.00    +0.060 N 
ATOM     20  O   UNL     1      -5.073  -1.980   0.040  0.00  0.00    -0.126 OA
ATOM     21  O   UNL     1      -3.817  -0.304   0.038  0.00  0.00    -0.126 OA
ENDBRANCH  18  19
BRANCH  13  22
ATOM     22  O   UNL     1      -1.339  -0.499   0.012  0.00  0.00    -0.490 OA
BRANCH  22  24
ATOM     23  C   UNL     1      -0.019   1.526   0.010  0.00  0.00    +0.048 C 
ATOM     24  C   UNL     1       0.002  -0.004   0.002  0.00  0.00    +0.226 C 
ENDBRANCH  22  24
ENDBRANCH  13  22
ENDBRANCH  11  16
ENDBRANCH  10  11
ENDBRANCH   9  10
ENDBRANCH   1   9
BRANCH   4  25
ATOM     25  C   UNL     1       2.345 -12.548  -0.075  0.00  0.00    +0.181 C 
BRANCH  25  26
ATOM     26  N   UNL     1       2.562 -13.001   1.302  0.00  0.00    -0.304 N 
ATOM     27  C   UNL     1       3.145 -14.193   1.535  0.00  0.00    +0.247 C 
ATOM     28  O   UNL     1       3.491 -14.893   0.603  0.00  0.00    -0.270 OA
ATOM     29  H   UNL     1       2.286 -12.442   2.045  0.00  0.00    +0.149 HD
BRANCH  27  30
ATOM     30  C   UNL     1       3.364 -14.649   2.922  0.00  0.00    +0.072 A 
ATOM     31  C   UNL     1       2.963 -13.850   3.995  0.00  0.00    +0.016 A 
ATOM     32  C   UNL     1       3.170 -14.282   5.288  0.00  0.00    +0.001 A 
ATOM     33  C   UNL     1       3.774 -15.505   5.526  0.00  0.00    +0.003 A 
ATOM     34  C   UNL     1       4.175 -16.303   4.471  0.00  0.00    +0.039 A 
ATOM     35  C   UNL     1       3.969 -15.886   3.168  0.00  0.00    +0.135 A 
ATOM     36  F   UNL     1       4.355 -16.668   2.137  0.00  0.00    -0.205 F 
ENDBRANCH  27  30
ENDBRANCH  25  26
ENDBRANCH   4  25
TORSDOF 11
