REMARK  Name = ZINC20912254
REMARK  9 active torsions:
REMARK  status: ('A' for Active; 'I' for Inactive)
REMARK    1  A    between atoms: C_10  and  C_11
REMARK    2  A    between atoms: N_12  and  N_13
REMARK    3  A    between atoms: C_17  and  S_20
REMARK    4  A    between atoms: N_18  and  N_19
REMARK    5  A    between atoms: S_20  and  C_21
REMARK    6  A    between atoms: C_21  and  C_22
REMARK    7  A    between atoms: N_24  and  C_25
REMARK    8  A    between atoms: C_25  and  C_26
REMARK    9  A    between atoms: C_29  and  C_32
REMARK                            x       y       z     vdW  Elec       q    Type
REMARK                         _______ _______ _______ _____ _____    ______ ____
ROOT
ATOM      1  N   UNL     1       1.433   5.003   0.022  0.00  0.00    -0.204 N 
ATOM      2  C   UNL     1       0.632   3.870   0.032  0.00  0.00    +0.254 A 
ATOM      3  N   UNL     1      -0.678   3.852   0.053  0.00  0.00    -0.109 NA
ATOM      4  N   UNL     1      -1.093   2.514   0.050  0.00  0.00    -0.119 NA
ATOM      5  C   UNL     1      -0.021   1.758   0.037  0.00  0.00    +0.210 A 
ATOM      6  N   UNL     1       1.072   2.575   0.022  0.00  0.00    -0.211 N 
ATOM      7  H   UNL     1       2.528   4.903   0.005  0.00  0.00    +0.177 HD
ENDROOT
BRANCH   6   8
ATOM      8  N   UNL     1       2.377   2.171   0.001  0.00  0.00    -0.294 N 
ATOM      9  H   UNL     1       2.620   1.098  -0.005  0.00  0.00    +0.163 HD
ATOM     10  H   UNL     1       3.184   2.918  -0.009  0.00  0.00    +0.163 HD
ENDBRANCH   6   8
BRANCH   1  12
ATOM     11  C   UNL     1       1.596   7.337   0.025  0.00  0.00    +0.139 C 
ATOM     12  N   UNL     1       0.846   6.275   0.035  0.00  0.00    -0.187 NA
BRANCH  11  22
ATOM     13  C   UNL     1      -3.213   9.186  -0.214  0.00  0.00    +0.001 A 
ATOM     14  C   UNL     1      -2.667   7.905  -0.230  0.00  0.00    +0.001 A 
ATOM     15  C   UNL     1      -1.320   7.717  -0.150  0.00  0.00    +0.009 A 
ATOM     16  C   UNL     1      -0.471   8.826  -0.050  0.00  0.00    -0.009 A 
ATOM     17  C   UNL     1      -1.023  10.130  -0.033  0.00  0.00    -0.017 A 
ATOM     18  C   UNL     1      -2.417  10.287  -0.117  0.00  0.00    +0.008 A 
ATOM     19  C   UNL     1      -0.168  11.241   0.067  0.00  0.00    +0.008 A 
ATOM     20  C   UNL     1       1.181  11.074   0.147  0.00  0.00    +0.001 A 
ATOM     21  C   UNL     1       1.765   9.815   0.141  0.00  0.00    +0.010 A 
ATOM     22  C   UNL     1       0.980   8.672   0.039  0.00  0.00    +0.002 A 
ENDBRANCH  11  22
ENDBRANCH   1  12
BRANCH   5  23
ATOM     23  S   UNL     1       0.003  -0.004   0.032  0.00  0.00    -0.075 S 
BRANCH  23  24
ATOM     24  C   UNL     1      -1.775  -0.343   0.059  0.00  0.00    +0.173 C 
BRANCH  24  25
ATOM     25  C   UNL     1      -2.003  -1.833   0.059  0.00  0.00    +0.224 C 
ATOM     26  O   UNL     1      -1.057  -2.591   0.042  0.00  0.00    -0.275 OA
ATOM     27  N   UNL     1      -3.259  -2.322   0.077  0.00  0.00    -0.311 N 
ATOM     28  H   UNL     1      -4.117  -1.635   0.092  0.00  0.00    +0.149 HD
BRANCH  27  29
ATOM     29  C   UNL     1      -3.480  -3.770   0.077  0.00  0.00    +0.139 C 
BRANCH  29  30
ATOM     30  C   UNL     1      -4.960  -4.052   0.099  0.00  0.00    -0.030 A 
ATOM     31  C   UNL     1      -5.619  -4.190   1.306  0.00  0.00    +0.006 A 
ATOM     32  C   UNL     1      -6.978  -4.445   1.327  0.00  0.00    +0.013 A 
ATOM     33  C   UNL     1      -7.676  -4.570   0.140  0.00  0.00    +0.055 A 
ATOM     34  C   UNL     1      -7.016  -4.437  -1.067  0.00  0.00    +0.013 A 
ATOM     35  C   UNL     1      -5.658  -4.178  -1.088  0.00  0.00    +0.006 A 
BRANCH  33  36
ATOM     36  C   UNL     1      -9.156  -4.852   0.162  0.00  0.00    +0.417 C 
ATOM     37  F   UNL     1      -9.367  -6.235   0.161  0.00  0.00    -0.166 F 
ATOM     38  F   UNL     1      -9.719  -4.295   1.315  0.00  0.00    -0.166 F 
ATOM     39  F   UNL     1      -9.755  -4.288  -0.969  0.00  0.00    -0.166 F 
ENDBRANCH  33  36
ENDBRANCH  29  30
ENDBRANCH  27  29
ENDBRANCH  24  25
ENDBRANCH  23  24
ENDBRANCH   5  23
TORSDOF 9
