REMARK  Name = ZINC21225017
REMARK  11 active torsions:
REMARK  status: ('A' for Active; 'I' for Inactive)
REMARK    1  A    between atoms: C_1  and  C_2
REMARK    2  A    between atoms: C_2  and  O_3
REMARK    3  A    between atoms: O_3  and  C_4
REMARK    4  A    between atoms: C_7  and  C_12
REMARK    5  A    between atoms: C_9  and  O_10
REMARK    6  A    between atoms: O_10  and  C_11
REMARK    7  A    between atoms: C_17  and  C_27
REMARK    8  A    between atoms: C_29  and  O_35
REMARK    9  A    between atoms: C_32  and  O_33
REMARK   10  A    between atoms: O_33  and  C_34
REMARK   11  A    between atoms: O_35  and  C_36
REMARK                            x       y       z     vdW  Elec       q    Type
REMARK                         _______ _______ _______ _____ _____    ______ ____
ROOT
ATOM      1  C   UNL     1       0.368   0.908  -0.233  0.00  0.00    +0.032 C 
ATOM      2  C   UNL     1      -0.406   1.522   0.933  0.00  0.00    +0.059 C 
ATOM      3  C   UNL     1       0.212   1.082   2.251  0.00  0.00    +0.017 C 
ATOM      4  C   UNL     1       1.534   0.870   2.344  0.00  0.00    +0.037 C 
ATOM      5  C   UNL     1       2.283   0.469   3.593  0.00  0.00    +0.140 C 
ATOM      6  N   UNL     1       1.435   0.056   4.691  0.00  0.00    -0.331 N 
ATOM      7  C   UNL     1       0.557   0.951   5.301  0.00  0.00    +0.049 A 
ATOM      8  C   UNL     1       0.718   1.336   6.622  0.00  0.00    +0.025 A 
ATOM      9  C   UNL     1      -0.151   2.262   7.171  0.00  0.00    +0.002 A 
ATOM     10  C   UNL     1      -1.171   2.802   6.410  0.00  0.00    +0.002 A 
ATOM     11  C   UNL     1      -1.345   2.407   5.094  0.00  0.00    +0.025 A 
ATOM     12  C   UNL     1      -0.489   1.466   4.550  0.00  0.00    +0.052 A 
ATOM     13  N   UNL     1      -0.671   0.948   3.272  0.00  0.00    -0.316 N 
ATOM     14  C   UNL     1       2.362   1.022   1.206  0.00  0.00    +0.163 C 
ATOM     15  O   UNL     1       3.559   0.841   1.325  0.00  0.00    -0.292 OA
ATOM     16  C   UNL     1       1.818   1.396  -0.139  0.00  0.00    +0.088 C 
ATOM     17  H   UNL     1       1.476  -0.981   5.058  0.00  0.00    +0.147 HD
ATOM     18  H   UNL     1      -1.611   0.397   3.119  0.00  0.00    +0.152 HD
ENDROOT
BRANCH   1  22
ATOM     19  C   UNL     1      -1.348   2.179  -3.939  0.00  0.00    +0.162 A 
ATOM     20  C   UNL     1      -0.861   3.115  -3.041  0.00  0.00    +0.050 A 
ATOM     21  C   UNL     1      -0.307   2.701  -1.844  0.00  0.00    +0.008 A 
ATOM     22  C   UNL     1      -0.237   1.354  -1.540  0.00  0.00    -0.040 A 
ATOM     23  C   UNL     1      -0.717   0.415  -2.434  0.00  0.00    +0.053 A 
ATOM     24  C   UNL     1      -1.278   0.823  -3.633  0.00  0.00    +0.162 A 
BRANCH  24  25
ATOM     25  O   UNL     1      -1.754  -0.100  -4.511  0.00  0.00    -0.491 OA
ATOM     26  C   UNL     1      -1.649  -1.473  -4.131  0.00  0.00    +0.277 C 
ENDBRANCH  24  25
BRANCH  19  27
ATOM     27  O   UNL     1      -1.893   2.584  -5.117  0.00  0.00    -0.489 OA
BRANCH  27  29
ATOM     28  C   UNL     1      -2.574   4.252  -6.728  0.00  0.00    +0.048 C 
ATOM     29  C   UNL     1      -1.931   3.991  -5.364  0.00  0.00    +0.226 C 
ENDBRANCH  27  29
ENDBRANCH  19  27
ENDBRANCH   1  22
BRANCH   5  30
ATOM     30  C   UNL     1       3.117   1.639   4.047  0.00  0.00    +0.022 A 
ATOM     31  C   UNL     1       2.845   2.907   3.571  0.00  0.00    +0.055 A 
ATOM     32  C   UNL     1       3.610   3.985   3.992  0.00  0.00    +0.121 A 
ATOM     33  C   UNL     1       4.654   3.788   4.884  0.00  0.00    +0.049 A 
ATOM     34  C   UNL     1       4.929   2.519   5.356  0.00  0.00    +0.049 A 
ATOM     35  C   UNL     1       4.161   1.442   4.938  0.00  0.00    +0.126 A 
BRANCH  35  36
ATOM     36  O   UNL     1       4.431   0.193   5.403  0.00  0.00    -0.495 OA
ATOM     37  C   UNL     1       5.521   0.064   6.318  0.00  0.00    +0.277 C 
ENDBRANCH  35  36
BRANCH  32  38
ATOM     38  O   UNL     1       3.339   5.234   3.527  0.00  0.00    -0.495 OA
ATOM     39  C   UNL     1       4.170   6.296   3.999  0.00  0.00    +0.277 C 
ENDBRANCH  32  38
ENDBRANCH   5  30
TORSDOF 7
