REMARK  Name = ZINC37561038
REMARK  3 active torsions:
REMARK  status: ('A' for Active; 'I' for Inactive)
REMARK    1  A    between atoms: C_1  and  N_2
REMARK    2  A    between atoms: N_7  and  C_8
REMARK    3  A    between atoms: C_17  and  O_18
REMARK                            x       y       z     vdW  Elec       q    Type
REMARK                         _______ _______ _______ _____ _____    ______ ____
ROOT
ATOM      1  C   UNL     1       0.071  -4.551   0.946  0.00  0.00    +0.103 C 
ATOM      2  C   UNL     1       0.670  -5.573   1.935  0.00  0.00    +0.032 C 
ATOM      3  C   UNL     1      -0.148  -6.846   1.633  0.00  0.00    +0.041 C 
ATOM      4  C   UNL     1      -1.468  -6.347   1.085  0.00  0.00    -0.001 A 
ATOM      5  C   UNL     1      -1.343  -5.028   0.688  0.00  0.00    -0.021 A 
ATOM      6  C   UNL     1      -2.430  -4.361   0.150  0.00  0.00    +0.006 A 
ATOM      7  C   UNL     1      -3.644  -5.006   0.006  0.00  0.00    +0.004 A 
ATOM      8  C   UNL     1      -3.776  -6.324   0.399  0.00  0.00    +0.046 A 
ATOM      9  C   UNL     1      -2.688  -6.998   0.943  0.00  0.00    +0.120 A 
ENDROOT
BRANCH   1  16
ATOM     10  C   UNL     1      -0.018   1.461   0.010  0.00  0.00    +0.172 C 
ATOM     11  N   UNL     1       0.002  -0.004   0.002  0.00  0.00    -0.273 N 
ATOM     12  C   UNL     1       0.008  -0.791  -1.095  0.00  0.00    +0.110 A 
ATOM     13  C   UNL     1       0.028  -2.078  -0.681  0.00  0.00    +0.064 A 
ATOM     14  C   UNL     1       0.035  -2.080   0.723  0.00  0.00    +0.141 A 
ATOM     15  N   UNL     1       0.025  -0.833   1.131  0.00  0.00    -0.157 NA
ATOM     16  N   UNL     1       0.055  -3.214   1.544  0.00  0.00    -0.321 N 
ATOM     17  H   UNL     1       0.058  -3.114   2.509  0.00  0.00    +0.148 HD
ENDBRANCH   1  16
BRANCH   9  18
ATOM     18  O   UNL     1      -2.814  -8.294   1.330  0.00  0.00    -0.506 OA
ATOM     19  H   UNL     1      -3.086  -8.405   2.251  0.00  0.00    +0.292 HD
ENDBRANCH   9  18
TORSDOF 2
