REMARK  Name = ZINC39609024
REMARK  9 active torsions:
REMARK  status: ('A' for Active; 'I' for Inactive)
REMARK    1  A    between atoms: C_1  and  C_2
REMARK    2  A    between atoms: C_2  and  O_3
REMARK    3  A    between atoms: O_3  and  C_4
REMARK    4  A    between atoms: C_9  and  C_10
REMARK    5  A    between atoms: C_14  and  C_23
REMARK    6  A    between atoms: N_25  and  C_26
REMARK    7  A    between atoms: C_31  and  O_33
REMARK    8  A    between atoms: O_33  and  C_34
REMARK    9  A    between atoms: C_34  and  C_35
REMARK                            x       y       z     vdW  Elec       q    Type
REMARK                         _______ _______ _______ _____ _____    ______ ____
ROOT
ATOM      1  C   UNL     1       1.843  -1.614  -3.407  0.00  0.00    +0.250 C 
ATOM      2  O   UNL     1       1.715  -0.417  -3.234  0.00  0.00    -0.270 OA
ATOM      3  N   UNL     1       2.605  -2.071  -4.421  0.00  0.00    -0.296 N 
ATOM      4  C   UNL     1       2.795  -3.475  -4.854  0.00  0.00    +0.121 C 
ATOM      5  C   UNL     1       2.821  -3.408  -6.397  0.00  0.00    +0.100 C 
ATOM      6  C   UNL     1       3.249  -1.966  -6.720  0.00  0.00    -0.004 C 
ATOM      7  C   UNL     1       3.438  -1.280  -5.359  0.00  0.00    +0.115 C 
ATOM      8  C   UNL     1       2.157  -1.256  -7.515  0.00  0.00    -0.010 C 
ATOM      9  C   UNL     1       2.629   0.156  -7.873  0.00  0.00    -0.082 C 
ATOM     10  N   UNL     1       3.864   0.075  -8.663  0.00  0.00    +0.379 N 
ATOM     11  C   UNL     1       4.935  -0.525  -7.859  0.00  0.00    -0.082 C 
ATOM     12  C   UNL     1       4.560  -1.966  -7.500  0.00  0.00    -0.010 C 
ATOM     13  H   UNL     1       3.701  -0.492  -9.481  0.00  0.00    -0.086 HD
ATOM     14  H   UNL     1       4.139   1.003  -8.949  0.00  0.00    -0.086 HD
ENDROOT
BRANCH   1  20
ATOM     15  C   UNL     1      -0.088  -2.253  -1.965  0.00  0.00    +0.133 A 
ATOM     16  C   UNL     1      -0.720  -3.158  -1.125  0.00  0.00    +0.046 A 
ATOM     17  C   UNL     1      -0.112  -4.360  -0.820  0.00  0.00    +0.004 A 
ATOM     18  C   UNL     1       1.131  -4.671  -1.350  0.00  0.00    +0.001 A 
ATOM     19  C   UNL     1       1.772  -3.784  -2.186  0.00  0.00    +0.017 A 
ATOM     20  C   UNL     1       1.165  -2.567  -2.508  0.00  0.00    +0.078 A 
BRANCH  15  21
ATOM     21  O   UNL     1      -0.684  -1.072  -2.265  0.00  0.00    -0.491 OA
BRANCH  21  23
ATOM     22  C   UNL     1      -2.472   0.549  -2.125  0.00  0.00    +0.048 C 
ATOM     23  C   UNL     1      -1.962  -0.821  -1.675  0.00  0.00    +0.226 C 
ENDBRANCH  21  23
ENDBRANCH  15  21
ENDBRANCH   1  20
BRANCH   5  24
ATOM     24  C   UNL     1       3.822  -4.391  -6.948  0.00  0.00    +0.218 C 
ATOM     25  O   UNL     1       4.821  -4.659  -6.315  0.00  0.00    -0.275 OA
ATOM     26  N   UNL     1       3.607  -4.972  -8.145  0.00  0.00    -0.310 N 
ATOM     27  H   UNL     1       2.808  -4.757  -8.652  0.00  0.00    +0.149 HD
BRANCH  26  28
ATOM     28  C   UNL     1       4.580  -5.927  -8.681  0.00  0.00    +0.102 C 
ATOM     29  C   UNL     1       5.675  -5.181  -9.464  0.00  0.00    +0.025 C 
ATOM     30  C   UNL     1       5.613  -5.705 -10.914  0.00  0.00    +0.004 C 
ATOM     31  C   UNL     1       4.955  -7.101 -10.787  0.00  0.00    +0.033 C 
ATOM     32  C   UNL     1       3.892  -6.878  -9.681  0.00  0.00    +0.139 C 
BRANCH  32  33
ATOM     33  O   UNL     1       3.561  -8.116  -9.048  0.00  0.00    -0.370 OA
BRANCH  33  34
ATOM     34  C   UNL     1       2.403  -8.755  -9.590  0.00  0.00    +0.195 C 
BRANCH  34  35
ATOM     35  C   UNL     1       2.149 -10.044  -8.851  0.00  0.00    -0.022 A 
ATOM     36  C   UNL     1       2.727 -11.219  -9.292  0.00  0.00    +0.006 A 
ATOM     37  C   UNL     1       2.494 -12.401  -8.614  0.00  0.00    +0.000 A 
ATOM     38  C   UNL     1       1.683 -12.408  -7.495  0.00  0.00    +0.000 A 
ATOM     39  C   UNL     1       1.105 -11.232  -7.053  0.00  0.00    +0.000 A 
ATOM     40  C   UNL     1       1.342 -10.049  -7.729  0.00  0.00    +0.006 A 
ENDBRANCH  34  35
ENDBRANCH  33  34
ENDBRANCH  32  33
ENDBRANCH  26  28
ENDBRANCH   5  24
TORSDOF 8
