REMARK  Name = ZINC35824924
REMARK  10 active torsions:
REMARK  status: ('A' for Active; 'I' for Inactive)
REMARK    1  A    between atoms: C_1  and  C_2
REMARK    2  A    between atoms: C_5  and  C_24
REMARK    3  A    between atoms: C_6  and  C_8
REMARK    4  A    between atoms: N_11  and  C_14
REMARK    5  A    between atoms: C_14  and  C_15
REMARK    6  A    between atoms: C_20  and  N_21
REMARK    7  A    between atoms: N_26  and  C_27
REMARK    8  A    between atoms: C_27  and  C_28
REMARK    9  A    between atoms: C_28  and  C_29
REMARK   10  A    between atoms: C_28  and  C_30
REMARK                            x       y       z     vdW  Elec       q    Type
REMARK                         _______ _______ _______ _____ _____    ______ ____
ROOT
ATOM      1  C   UNL     1      -0.136  -2.572   2.577  0.00  0.00    +0.035 C 
ATOM      2  C   UNL     1      -1.484  -2.239   3.222  0.00  0.00    -0.009 C 
ATOM      3  C   UNL     1      -1.528  -2.831   4.633  0.00  0.00    -0.078 C 
ATOM      4  N   UNL     1      -0.444  -2.260   5.440  0.00  0.00    +0.382 N 
ATOM      5  C   UNL     1       0.855  -2.635   4.867  0.00  0.00    -0.078 C 
ATOM      6  C   UNL     1       0.990  -2.037   3.466  0.00  0.00    -0.009 C 
ATOM      7  H   UNL     1      -0.527  -1.255   5.451  0.00  0.00    -0.081 HD
ENDROOT
BRANCH   1  13
ATOM      8  C   UNL     1      -0.645   1.420  -0.180  0.00  0.00    +0.065 C 
ATOM      9  C   UNL     1      -0.294  -0.042  -0.087  0.00  0.00    +0.039 A 
ATOM     10  C   UNL     1       0.082  -0.726  -1.230  0.00  0.00    +0.024 A 
ATOM     11  C   UNL     1       0.403  -2.068  -1.141  0.00  0.00    +0.016 A 
ATOM     12  C   UNL     1       0.334  -2.686   0.113  0.00  0.00    +0.058 A 
ATOM     13  C   UNL     1      -0.054  -1.927   1.217  0.00  0.00    +0.057 A 
ATOM     14  N   UNL     1      -0.345  -0.649   1.083  0.00  0.00    -0.256 NA
BRANCH  12  15
ATOM     15  C   UNL     1       0.666  -4.119   0.266  0.00  0.00    +0.246 C 
ATOM     16  O   UNL     1       1.276  -4.500   1.245  0.00  0.00    -0.270 OA
ATOM     17  N   UNL     1       0.292  -5.001  -0.682  0.00  0.00    -0.311 N 
ATOM     18  H   UNL     1      -0.194  -4.696  -1.464  0.00  0.00    +0.149 HD
BRANCH  17  19
ATOM     19  C   UNL     1       0.621  -6.421  -0.531  0.00  0.00    +0.107 C 
BRANCH  19  20
ATOM     20  C   UNL     1       0.087  -7.199  -1.736  0.00  0.00    -0.000 C 
ATOM     21  C   UNL     1       0.538  -8.658  -1.641  0.00  0.00    +0.009 C 
ATOM     22  C   UNL     1      -1.441  -7.136  -1.746  0.00  0.00    +0.009 C 
ENDBRANCH  19  20
ENDBRANCH  17  19
ENDBRANCH  12  15
ENDBRANCH   1  13
BRANCH   4  23
ATOM     23  C   UNL     1      -0.537  -2.771   6.814  0.00  0.00    -0.041 C 
BRANCH  23  24
ATOM     24  C   UNL     1       0.498  -2.094   7.674  0.00  0.00    -0.034 A 
ATOM     25  C   UNL     1       1.686  -2.740   7.965  0.00  0.00    +0.004 A 
ATOM     26  C   UNL     1       2.636  -2.119   8.753  0.00  0.00    +0.000 A 
ATOM     27  C   UNL     1       2.399  -0.851   9.251  0.00  0.00    +0.002 A 
ATOM     28  C   UNL     1       1.212  -0.204   8.960  0.00  0.00    +0.033 A 
ATOM     29  C   UNL     1       0.264  -0.824   8.167  0.00  0.00    +0.128 A 
BRANCH  29  30
ATOM     30  N   UNL     1      -1.004  -0.130   7.851  0.00  0.00    +0.057 N 
ATOM     31  O   UNL     1      -1.210   0.981   8.283  0.00  0.00    -0.126 OA
ATOM     32  O   UNL     1      -1.835  -0.674   7.161  0.00  0.00    -0.126 OA
ENDBRANCH  29  30
ENDBRANCH  23  24
ENDBRANCH   4  23
TORSDOF 7
