REMARK  Name = ZINC59807103
REMARK  9 active torsions:
REMARK  status: ('A' for Active; 'I' for Inactive)
REMARK    1  A    between atoms: C_1  and  O_2
REMARK    2  A    between atoms: O_2  and  C_3
REMARK    3  A    between atoms: C_3  and  C_5
REMARK    4  A    between atoms: C_9  and  N_10
REMARK    5  A    between atoms: C_11  and  C_13
REMARK    6  A    between atoms: C_13  and  N_14
REMARK    7  A    between atoms: N_14  and  C_15
REMARK    8  A    between atoms: C_20  and  N_21
REMARK    9  A    between atoms: C_24  and  O_27
REMARK                            x       y       z     vdW  Elec       q    Type
REMARK                         _______ _______ _______ _____ _____    ______ ____
ROOT
ATOM      1  C   UNL     1      -1.360  -2.626  -4.929  0.00  0.00    +0.198 C 
ENDROOT
BRANCH   1   3
ATOM      2  N   UNL     1      -1.351  -2.319  -2.475  0.00  0.00    -0.278 N 
ATOM      3  C   UNL     1      -1.387  -3.166  -3.523  0.00  0.00    +0.235 C 
ATOM      4  O   UNL     1      -1.442  -4.362  -3.333  0.00  0.00    -0.274 OA
ATOM      5  H   UNL     1      -1.307  -1.362  -2.626  0.00  0.00    +0.155 HD
BRANCH   2  10
ATOM      6  C   UNL     1      -1.345  -2.103   0.005  0.00  0.00    +0.091 A 
ATOM      7  C   UNL     1      -1.389  -2.871   1.248  0.00  0.00    -0.021 A 
ATOM      8  C   UNL     1      -1.448  -4.203   1.069  0.00  0.00    -0.004 A 
ATOM      9  S   UNL     1      -1.447  -4.418  -0.693  0.00  0.00    -0.077 S 
ATOM     10  C   UNL     1      -1.376  -2.816  -1.181  0.00  0.00    +0.086 A 
ATOM     11  C   UNL     1      -1.487  -4.944   2.378  0.00  0.00    +0.043 C 
ATOM     12  C   UNL     1      -1.012  -3.912   3.425  0.00  0.00    +0.010 C 
ATOM     13  C   UNL     1      -1.390  -2.579   2.747  0.00  0.00    +0.037 C 
BRANCH   6  14
ATOM     14  C   UNL     1      -1.278  -0.640   0.014  0.00  0.00    +0.342 C 
ATOM     15  O   UNL     1      -2.303   0.015   0.015  0.00  0.00    -0.245 OA
BRANCH  14  17
ATOM     16  C   UNL     1      -0.090   1.409   0.030  0.00  0.00    +0.280 C 
ATOM     17  O   UNL     1      -0.080  -0.020   0.021  0.00  0.00    -0.464 OA
ENDBRANCH  14  17
ENDBRANCH   6  14
ENDBRANCH   2  10
ENDBRANCH   1   3
BRANCH   1  18
ATOM     18  N   UNL     1      -1.409  -3.739  -5.881  0.00  0.00    -0.334 N 
ATOM     19  H   UNL     1      -1.452  -4.652  -5.557  0.00  0.00    +0.147 HD
BRANCH  18  20
ATOM     20  C   UNL     1      -1.395  -3.485  -7.254  0.00  0.00    +0.047 A 
ATOM     21  C   UNL     1      -1.454  -2.177  -7.721  0.00  0.00    +0.025 A 
ATOM     22  C   UNL     1      -1.440  -1.930  -9.079  0.00  0.00    +0.002 A 
ATOM     23  C   UNL     1      -1.367  -2.981  -9.975  0.00  0.00    +0.002 A 
ATOM     24  C   UNL     1      -1.308  -4.283  -9.514  0.00  0.00    +0.023 A 
ATOM     25  C   UNL     1      -1.316  -4.538  -8.156  0.00  0.00    +0.035 A 
BRANCH  25  26
ATOM     26  N   UNL     1      -1.250  -5.854  -7.690  0.00  0.00    -0.392 NA
ATOM     27  C   UNL     1      -2.347  -6.634  -8.277  0.00  0.00    +0.087 C 
ATOM     28  C   UNL     1      -2.328  -8.055  -7.708  0.00  0.00    +0.048 C 
ATOM     29  C   UNL     1      -0.990  -8.717  -8.048  0.00  0.00    +0.117 C 
ATOM     30  C   UNL     1       0.150  -7.856  -7.495  0.00  0.00    +0.048 C 
ATOM     31  C   UNL     1       0.039  -6.443  -8.072  0.00  0.00    +0.087 C 
ATOM     32  H   UNL     1      -1.337  -5.859  -6.685  0.00  0.00    +0.126 HD
BRANCH  29  33
ATOM     33  O   UNL     1      -0.936 -10.017  -7.457  0.00  0.00    -0.392 OA
ATOM     34  H   UNL     1      -0.114 -10.495  -7.631  0.00  0.00    +0.210 HD
ENDBRANCH  29  33
ENDBRANCH  25  26
ENDBRANCH  18  20
ENDBRANCH   1  18
TORSDOF 8
