REMARK  Name = ZINC35745360
REMARK  16 active torsions:
REMARK  status: ('A' for Active; 'I' for Inactive)
REMARK    1  A    between atoms: C_1  and  C_2
REMARK    2  A    between atoms: C_7  and  C_8
REMARK    3  A    between atoms: C_8  and  N_9
REMARK    4  A    between atoms: N_9  and  C_10
REMARK    5  A    between atoms: N_9  and  C_34
REMARK    6  A    between atoms: C_10  and  C_11
REMARK    7  A    between atoms: C_14  and  C_16
REMARK    8  A    between atoms: C_16  and  C_17
REMARK    9  A    between atoms: C_16  and  C_25
REMARK   10  A    between atoms: C_16  and  O_33
REMARK   11  A    between atoms: C_20  and  O_23
REMARK   12  A    between atoms: O_23  and  C_24
REMARK   13  A    between atoms: C_28  and  O_31
REMARK   14  A    between atoms: O_31  and  C_32
REMARK   15  A    between atoms: C_34  and  C_35
REMARK   16  A    between atoms: C_34  and  C_36
REMARK                            x       y       z     vdW  Elec       q    Type
REMARK                         _______ _______ _______ _____ _____    ______ ____
ROOT
ATOM      1  C   UNL     1      -5.094   3.258   5.752  0.00  0.00    +0.089 A 
ATOM      2  C   UNL     1      -5.791   2.438   6.559  0.00  0.00    +0.043 A 
ATOM      3  C   UNL     1      -7.143   2.844   6.486  0.00  0.00    +0.048 A 
ATOM      4  C   UNL     1      -7.191   3.888   5.639  0.00  0.00    +0.146 A 
ATOM      5  O   UNL     1      -5.946   4.138   5.203  0.00  0.00    -0.463 OA
ENDROOT
BRANCH   1   6
ATOM      6  C   UNL     1      -3.607   3.203   5.512  0.00  0.00    -0.002 C 
BRANCH   6   7
ATOM      7  N   UNL     1      -3.337   2.429   4.292  0.00  0.00    +0.389 N 
ATOM      8  H   UNL     1      -3.859   2.821   3.523  0.00  0.00    -0.080 HD
BRANCH   7   9
ATOM      9  C   UNL     1      -3.742   1.032   4.499  0.00  0.00    -0.074 C 
ATOM     10  C   UNL     1      -3.821   0.319   3.147  0.00  0.00    -0.013 C 
ATOM     11  C   UNL     1      -2.714   0.329   5.388  0.00  0.00    -0.013 C 
ENDBRANCH   7   9
BRANCH   7  12
ATOM     12  C   UNL     1      -1.901   2.482   3.987  0.00  0.00    -0.042 C 
BRANCH  12  19
ATOM     13  C   UNL     1      -2.721   3.901   1.608  0.00  0.00    +0.044 C 
ATOM     14  C   UNL     1      -2.046   2.559   1.489  0.00  0.00    -0.049 A 
ATOM     15  C   UNL     1      -1.815   2.010   0.242  0.00  0.00    +0.003 A 
ATOM     16  C   UNL     1      -1.196   0.778   0.134  0.00  0.00    +0.000 A 
ATOM     17  C   UNL     1      -0.808   0.097   1.272  0.00  0.00    +0.000 A 
ATOM     18  C   UNL     1      -1.039   0.647   2.519  0.00  0.00    +0.002 A 
ATOM     19  C   UNL     1      -1.654   1.880   2.628  0.00  0.00    -0.061 A 
ENDBRANCH  12  19
ENDBRANCH   7  12
ENDBRANCH   6   7
ENDBRANCH   1   6
BRANCH   4  20
ATOM     20  C   UNL     1      -8.431   4.652   5.252  0.00  0.00    +0.174 C 
BRANCH  20  21
ATOM     21  C   UNL     1      -8.065   6.080   4.940  0.00  0.00    -0.004 A 
ATOM     22  C   UNL     1      -8.522   7.102   5.750  0.00  0.00    +0.011 A 
ATOM     23  C   UNL     1      -8.188   8.412   5.467  0.00  0.00    +0.046 A 
ATOM     24  C   UNL     1      -7.393   8.701   4.367  0.00  0.00    +0.120 A 
ATOM     25  C   UNL     1      -6.936   7.673   3.555  0.00  0.00    +0.046 A 
ATOM     26  C   UNL     1      -7.268   6.365   3.846  0.00  0.00    +0.011 A 
BRANCH  24  27
ATOM     27  O   UNL     1      -7.063   9.989   4.085  0.00  0.00    -0.495 OA
ATOM     28  C   UNL     1      -6.242  10.213   2.937  0.00  0.00    +0.277 C 
ENDBRANCH  24  27
ENDBRANCH  20  21
BRANCH  20  29
ATOM     29  C   UNL     1      -9.053   4.015   4.035  0.00  0.00    -0.004 A 
ATOM     30  C   UNL     1      -8.252   3.384   3.101  0.00  0.00    +0.011 A 
ATOM     31  C   UNL     1      -8.820   2.800   1.985  0.00  0.00    +0.046 A 
ATOM     32  C   UNL     1     -10.194   2.848   1.802  0.00  0.00    +0.120 A 
ATOM     33  C   UNL     1     -10.995   3.481   2.740  0.00  0.00    +0.046 A 
ATOM     34  C   UNL     1     -10.424   4.059   3.858  0.00  0.00    +0.011 A 
BRANCH  32  35
ATOM     35  O   UNL     1     -10.755   2.275   0.704  0.00  0.00    -0.495 OA
ATOM     36  C   UNL     1     -12.175   2.362   0.581  0.00  0.00    +0.277 C 
ENDBRANCH  32  35
ENDBRANCH  20  29
BRANCH  20  37
ATOM     37  O   UNL     1      -9.365   4.625   6.333  0.00  0.00    -0.372 OA
ATOM     38  H   UNL     1      -9.646   3.735   6.588  0.00  0.00    +0.212 HD
ENDBRANCH  20  37
ENDBRANCH   4  20
TORSDOF 11
