REMARK  Name = ZINC39696265
REMARK  8 active torsions:
REMARK  status: ('A' for Active; 'I' for Inactive)
REMARK    1  A    between atoms: C_1  and  C_2
REMARK    2  A    between atoms: C_2  and  C_3
REMARK    3  A    between atoms: C_6  and  C_9
REMARK    4  A    between atoms: C_9  and  C_11
REMARK    5  A    between atoms: C_9  and  N_12
REMARK    6  A    between atoms: C_13  and  C_15
REMARK    7  A    between atoms: C_26  and  C_28
REMARK    8  A    between atoms: C_31  and  C_33
REMARK                            x       y       z     vdW  Elec       q    Type
REMARK                         _______ _______ _______ _____ _____    ______ ____
ROOT
ATOM      1  C   UNL     1      -8.330  -0.554  -1.977  0.00  0.00    +0.100 C 
ATOM      2  C   UNL     1      -8.096  -1.248  -3.338  0.00  0.00    +0.121 C 
ATOM      3  N   UNL     1      -9.217  -2.208  -3.466  0.00  0.00    -0.294 N 
ATOM      4  C   UNL     1     -10.390  -1.482  -2.922  0.00  0.00    +0.115 C 
ATOM      5  C   UNL     1      -9.836  -0.707  -1.709  0.00  0.00    -0.004 C 
ATOM      6  C   UNL     1     -10.497   0.665  -1.613  0.00  0.00    -0.010 C 
ATOM      7  C   UNL     1     -11.983   0.489  -1.288  0.00  0.00    -0.082 C 
ATOM      8  N   UNL     1     -12.127  -0.236  -0.020  0.00  0.00    +0.379 N 
ATOM      9  C   UNL     1     -11.571  -1.588  -0.150  0.00  0.00    -0.082 C 
ATOM     10  C   UNL     1     -10.068  -1.500  -0.427  0.00  0.00    -0.010 C 
ATOM     11  C   UNL     1      -9.180  -3.460  -3.964  0.00  0.00    +0.282 C 
ATOM     12  O   UNL     1     -10.195  -4.130  -4.002  0.00  0.00    -0.267 OA
ATOM     13  H   UNL     1     -11.633   0.260   0.707  0.00  0.00    -0.086 HD
ATOM     14  H   UNL     1     -13.104  -0.297   0.223  0.00  0.00    -0.086 HD
ENDROOT
BRANCH  11  15
ATOM     15  C   UNL     1      -7.918  -4.014  -4.460  0.00  0.00    +0.190 A 
ATOM     16  C   UNL     1      -7.741  -5.270  -4.998  0.00  0.00    +0.055 A 
ATOM     17  C   UNL     1      -6.388  -5.377  -5.336  0.00  0.00    +0.050 A 
ATOM     18  C   UNL     1      -5.794  -4.195  -4.997  0.00  0.00    +0.136 A 
ATOM     19  O   UNL     1      -6.726  -3.380  -4.476  0.00  0.00    -0.450 OA
BRANCH  18  20
ATOM     20  C   UNL     1      -4.366  -3.866  -5.179  0.00  0.00    +0.017 A 
ATOM     21  C   UNL     1      -3.497  -4.801  -5.746  0.00  0.00    +0.011 A 
ATOM     22  C   UNL     1      -2.165  -4.487  -5.913  0.00  0.00    +0.001 A 
ATOM     23  C   UNL     1      -1.688  -3.248  -5.520  0.00  0.00    +0.000 A 
ATOM     24  C   UNL     1      -2.543  -2.318  -4.957  0.00  0.00    +0.001 A 
ATOM     25  C   UNL     1      -3.879  -2.616  -4.789  0.00  0.00    +0.011 A 
ENDBRANCH  18  20
ENDBRANCH  11  15
BRANCH   1  27
ATOM     26  N   UNL     1      -7.119  -0.541   0.180  0.00  0.00    -0.308 N 
ATOM     27  C   UNL     1      -7.533  -1.239  -0.896  0.00  0.00    +0.219 C 
ATOM     28  O   UNL     1      -7.264  -2.417  -0.995  0.00  0.00    -0.275 OA
ATOM     29  H   UNL     1      -7.333   0.402   0.259  0.00  0.00    +0.149 HD
BRANCH  26  30
ATOM     30  C   UNL     1      -6.344  -1.206   1.231  0.00  0.00    +0.100 C 
ATOM     31  C   UNL     1      -4.863  -1.211   0.847  0.00  0.00    +0.033 C 
BRANCH  30  35
ATOM     32  C   UNL     1      -6.851   0.890   4.918  0.00  0.00    -0.048 A 
ATOM     33  C   UNL     1      -6.824  -0.492   4.907  0.00  0.00    +0.004 A 
ATOM     34  C   UNL     1      -6.660  -1.170   3.713  0.00  0.00    +0.006 A 
ATOM     35  C   UNL     1      -6.524  -0.466   2.531  0.00  0.00    -0.027 A 
ATOM     36  C   UNL     1      -6.551   0.916   2.543  0.00  0.00    +0.006 A 
ATOM     37  C   UNL     1      -6.719   1.594   3.736  0.00  0.00    +0.004 A 
BRANCH  32  39
ATOM     38  C   UNL     1      -8.521   1.848   6.481  0.00  0.00    +0.009 C 
ATOM     39  C   UNL     1      -7.029   1.630   6.219  0.00  0.00    +0.032 C 
ENDBRANCH  32  39
ENDBRANCH  30  35
ENDBRANCH  26  30
ENDBRANCH   1  27
TORSDOF 6
