REMARK  Name = ZINC06075462
REMARK  10 active torsions:
REMARK  status: ('A' for Active; 'I' for Inactive)
REMARK    1  A    between atoms: C_1  and  C_2
REMARK    2  A    between atoms: C_2  and  C_3
REMARK    3  A    between atoms: C_2  and  C_4
REMARK    4  A    between atoms: C_2  and  C_5
REMARK    5  A    between atoms: C_8  and  O_11
REMARK    6  A    between atoms: O_11  and  C_12
REMARK    7  A    between atoms: C_33  and  C_37
REMARK    8  A    between atoms: C_37  and  C_38
REMARK    9  A    between atoms: C_37  and  C_39
REMARK   10  A    between atoms: C_37  and  C_40
REMARK                            x       y       z     vdW  Elec       q    Type
REMARK                         _______ _______ _______ _____ _____    ______ ____
ROOT
ATOM      1  C   UNL     1       4.818   5.521  -0.020  0.00  0.00    +0.144 A 
ATOM      2  C   UNL     1       4.763   4.138   0.132  0.00  0.00    +0.095 A 
ATOM      3  C   UNL     1       3.549   3.479   0.141  0.00  0.00    +0.156 A 
ATOM      4  C   UNL     1       2.353   4.204  -0.005  0.00  0.00    +0.094 A 
ATOM      5  C   UNL     1       2.391   5.591  -0.158  0.00  0.00    +0.063 A 
ATOM      6  C   UNL     1       3.638   6.258  -0.166  0.00  0.00    +0.077 A 
ATOM      7  C   UNL     1       3.691   7.716  -0.327  0.00  0.00    +0.198 A 
ATOM      8  O   UNL     1       4.763   8.290  -0.333  0.00  0.00    -0.286 OA
ATOM      9  C   UNL     1       2.439   8.486  -0.482  0.00  0.00    +0.033 A 
ATOM     10  C   UNL     1       2.480   9.869  -0.636  0.00  0.00    +0.012 A 
ATOM     11  C   UNL     1       1.304  10.582  -0.781  0.00  0.00    +0.001 A 
ATOM     12  C   UNL     1       0.084   9.930  -0.773  0.00  0.00    +0.001 A 
ATOM     13  C   UNL     1       0.024   8.557  -0.622  0.00  0.00    +0.012 A 
ATOM     14  C   UNL     1       1.199   7.823  -0.474  0.00  0.00    +0.033 A 
ATOM     15  C   UNL     1       1.145   6.356  -0.311  0.00  0.00    +0.197 A 
ATOM     16  O   UNL     1       0.073   5.782  -0.305  0.00  0.00    -0.287 OA
ATOM     17  N   UNL     1       1.138   3.536   0.004  0.00  0.00    -0.349 N 
ATOM     18  H   UNL     1       0.306   4.025  -0.095  0.00  0.00    +0.166 HD
ATOM     19  C   UNL     1       1.130   2.145   0.159  0.00  0.00    +0.083 A 
ATOM     20  C   UNL     1      -0.070   1.450   0.172  0.00  0.00    +0.029 A 
ATOM     21  C   UNL     1      -0.069   0.076   0.324  0.00  0.00    +0.006 A 
ATOM     22  C   UNL     1       1.126  -0.606   0.465  0.00  0.00    -0.038 A 
ATOM     23  C   UNL     1       2.326   0.081   0.454  0.00  0.00    +0.052 A 
ATOM     24  C   UNL     1       2.336   1.459   0.301  0.00  0.00    +0.152 A 
ATOM     25  O   UNL     1       3.514   2.132   0.290  0.00  0.00    -0.452 OA
ENDROOT
BRANCH  22  26
ATOM     26  C   UNL     1       1.120  -2.103   0.632  0.00  0.00    -0.013 C 
ATOM     27  C   UNL     1      -0.322  -2.614   0.610  0.00  0.00    +0.015 C 
ATOM     28  C   UNL     1       1.906  -2.747  -0.513  0.00  0.00    +0.015 C 
ATOM     29  C   UNL     1       1.771  -2.471   1.967  0.00  0.00    +0.015 C 
ENDBRANCH  22  26
BRANCH   1  30
ATOM     30  O   UNL     1       6.016   6.154  -0.026  0.00  0.00    -0.455 OA
BRANCH  30  34
ATOM     31  C   UNL     1       7.455   7.616   3.553  0.00  0.00    -0.042 A 
ATOM     32  C   UNL     1       8.133   7.880   2.377  0.00  0.00    +0.008 A 
ATOM     33  C   UNL     1       7.653   7.392   1.177  0.00  0.00    +0.046 A 
ATOM     34  C   UNL     1       6.490   6.635   1.153  0.00  0.00    +0.128 A 
ATOM     35  C   UNL     1       5.809   6.376   2.333  0.00  0.00    +0.046 A 
ATOM     36  C   UNL     1       6.296   6.862   3.531  0.00  0.00    +0.008 A 
BRANCH  31  38
ATOM     37  C   UNL     1       8.037   9.678   4.801  0.00  0.00    +0.015 C 
ATOM     38  C   UNL     1       7.980   8.150   4.860  0.00  0.00    -0.013 C 
ATOM     39  C   UNL     1       7.052   7.718   5.998  0.00  0.00    +0.015 C 
ATOM     40  C   UNL     1       9.384   7.597   5.110  0.00  0.00    +0.015 C 
ENDBRANCH  31  38
ENDBRANCH  30  34
ENDBRANCH   1  30
TORSDOF 4
