REMARK  Name = ZINC04893817
REMARK  4 active torsions:
REMARK  status: ('A' for Active; 'I' for Inactive)
REMARK    1  A    between atoms: C_3  and  N_9
REMARK    2  A    between atoms: C_10  and  C_12
REMARK    3  A    between atoms: C_15  and  C_17
REMARK    4  A    between atoms: C_20  and  N_23
REMARK                            x       y       z     vdW  Elec       q    Type
REMARK                         _______ _______ _______ _____ _____    ______ ____
ROOT
ATOM      1  C   UNL     1       4.922  -2.706   0.154  0.00  0.00    +0.190 A 
ATOM      2  C   UNL     1       5.086  -4.070   0.261  0.00  0.00    +0.055 A 
ATOM      3  C   UNL     1       6.463  -4.307   0.322  0.00  0.00    +0.050 A 
ATOM      4  C   UNL     1       7.083  -3.091   0.259  0.00  0.00    +0.136 A 
ATOM      5  O   UNL     1       6.145  -2.135   0.158  0.00  0.00    -0.450 OA
ENDROOT
BRANCH   4   6
ATOM      6  C   UNL     1       8.542  -2.866   0.296  0.00  0.00    +0.017 A 
ATOM      7  C   UNL     1       9.416  -3.949   0.410  0.00  0.00    +0.014 A 
ATOM      8  C   UNL     1      10.778  -3.731   0.438  0.00  0.00    +0.033 A 
ATOM      9  C   UNL     1      11.278  -2.443   0.365  0.00  0.00    +0.126 A 
ATOM     10  C   UNL     1      10.417  -1.365   0.259  0.00  0.00    +0.033 A 
ATOM     11  C   UNL     1       9.053  -1.569   0.223  0.00  0.00    +0.014 A 
BRANCH   9  12
ATOM     12  N   UNL     1      12.740  -2.217   0.403  0.00  0.00    +0.056 N 
ATOM     13  O   UNL     1      13.183  -1.084   0.339  0.00  0.00    -0.126 OA
ATOM     14  O   UNL     1      13.501  -3.164   0.497  0.00  0.00    -0.126 OA
ENDBRANCH   9  12
ENDBRANCH   4   6
BRANCH   1  16
ATOM     15  N   UNL     1       3.621  -0.654  -0.035  0.00  0.00    -0.278 N 
ATOM     16  C   UNL     1       3.642  -1.999   0.059  0.00  0.00    +0.284 C 
ATOM     17  O   UNL     1       2.599  -2.625   0.066  0.00  0.00    -0.266 OA
ATOM     18  H   UNL     1       4.452  -0.161  -0.122  0.00  0.00    +0.155 HD
BRANCH  15  21
ATOM     19  C   UNL     1       0.092   0.134   0.631  0.00  0.00    +0.003 A 
ATOM     20  C   UNL     1       1.296  -0.543   0.606  0.00  0.00    +0.025 A 
ATOM     21  C   UNL     1       2.401   0.029  -0.010  0.00  0.00    +0.054 A 
ATOM     22  C   UNL     1       2.292   1.283  -0.600  0.00  0.00    +0.080 A 
ATOM     23  C   UNL     1       1.085   1.956  -0.572  0.00  0.00    +0.061 A 
ATOM     24  C   UNL     1      -0.014   1.381   0.043  0.00  0.00    +0.021 A 
ATOM     25 CL   UNL     1       0.946   3.522  -1.308  0.00  0.00    -0.082 Cl
ATOM     26 CL   UNL     1       3.671   2.003  -1.371  0.00  0.00    -0.080 Cl
ENDBRANCH  15  21
ENDBRANCH   1  16
TORSDOF 4
