REMARK  Name = ZINC63746300
REMARK  9 active torsions:
REMARK  status: ('A' for Active; 'I' for Inactive)
REMARK    1  A    between atoms: C_1  and  C_2
REMARK    2  A    between atoms: C_5  and  N_8
REMARK    3  A    between atoms: N_11  and  C_12
REMARK    4  A    between atoms: C_14  and  C_38
REMARK    5  A    between atoms: C_17  and  C_32
REMARK    6  A    between atoms: C_18  and  C_22
REMARK    7  A    between atoms: N_24  and  C_25
REMARK    8  A    between atoms: C_25  and  C_26
REMARK    9  A    between atoms: C_26  and  C_27
REMARK                            x       y       z     vdW  Elec       q    Type
REMARK                         _______ _______ _______ _____ _____    ______ ____
ROOT
ATOM      1  C   UNL     1       0.280  -6.813   2.342  0.00  0.00    +0.059 A 
ATOM      2  C   UNL     1       0.276  -6.142   3.526  0.00  0.00    +0.028 A 
ATOM      3  C   UNL     1       0.297  -6.813   4.752  0.00  0.00    -0.048 A 
ATOM      4  C   UNL     1       0.324  -8.162   4.841  0.00  0.00    +0.013 A 
ATOM      5  C   UNL     1       0.332  -8.957   3.668  0.00  0.00    +0.006 A 
ATOM      6  C   UNL     1       0.357 -10.325   3.463  0.00  0.00    -0.000 C 
ATOM      7  C   UNL     1       0.350 -10.514   1.962  0.00  0.00    +0.198 C 
ATOM      8  N   UNL     1       0.319  -9.166   1.385  0.00  0.00    -0.368 N 
ATOM      9  C   UNL     1       0.303  -8.284   2.355  0.00  0.00    +0.065 A 
ATOM     10  C   UNL     1       0.291  -6.002   6.022  0.00  0.00    +0.044 C 
ATOM     11  H   UNL     1       0.308  -8.960   0.437  0.00  0.00    +0.161 HD
ENDROOT
BRANCH   1  15
ATOM     12  N   UNL     1      -0.527  -4.334  -0.158  0.00  0.00    -0.269 N 
ATOM     13  C   UNL     1      -0.430  -4.960   1.031  0.00  0.00    +0.308 C 
ATOM     14  O   UNL     1      -0.964  -4.484   2.014  0.00  0.00    -0.252 OA
ATOM     15  N   UNL     1       0.258  -6.114   1.131  0.00  0.00    -0.267 N 
ATOM     16  H   UNL     1      -0.178  -4.756  -0.959  0.00  0.00    +0.156 HD
ATOM     17  H   UNL     1       0.739  -6.460   0.363  0.00  0.00    +0.156 HD
BRANCH  12  22
ATOM     18  C   UNL     1      -2.979   0.772  -0.486  0.00  0.00    +0.044 C 
ATOM     19  C   UNL     1      -2.328  -0.585  -0.399  0.00  0.00    -0.050 A 
ATOM     20  C   UNL     1      -1.739  -0.993   0.784  0.00  0.00    +0.005 A 
ATOM     21  C   UNL     1      -1.142  -2.235   0.867  0.00  0.00    +0.023 A 
ATOM     22  C   UNL     1      -1.133  -3.075  -0.239  0.00  0.00    +0.035 A 
ATOM     23  C   UNL     1      -1.725  -2.662  -1.425  0.00  0.00    +0.023 A 
ATOM     24  C   UNL     1      -2.325  -1.421  -1.500  0.00  0.00    +0.005 A 
ENDBRANCH  12  22
ENDBRANCH   1  15
BRANCH   6  25
ATOM     25  C   UNL     1       0.385 -11.373   4.486  0.00  0.00    -0.019 A 
ATOM     26  C   UNL     1      -0.311 -11.201   5.691  0.00  0.00    +0.008 A 
ATOM     27  C   UNL     1      -0.279 -12.192   6.648  0.00  0.00    +0.001 A 
ATOM     28  C   UNL     1       0.439 -13.355   6.422  0.00  0.00    +0.000 A 
ATOM     29  C   UNL     1       1.130 -13.533   5.236  0.00  0.00    +0.001 A 
ATOM     30  C   UNL     1       1.104 -12.556   4.265  0.00  0.00    +0.008 A 
ENDBRANCH   6  25
BRANCH   7  31
ATOM     31  C   UNL     1      -0.874 -11.288   1.542  0.00  0.00    +0.240 C 
ATOM     32  O   UNL     1      -1.803 -10.714   1.015  0.00  0.00    -0.273 OA
ATOM     33  N   UNL     1      -0.935 -12.618   1.753  0.00  0.00    -0.313 N 
ATOM     34  H   UNL     1      -0.225 -13.065   2.239  0.00  0.00    +0.149 HD
BRANCH  33  35
ATOM     35  C   UNL     1      -2.075 -13.387   1.248  0.00  0.00    +0.112 C 
BRANCH  35  36
ATOM     36  C   UNL     1      -1.899 -14.861   1.620  0.00  0.00    +0.093 C 
BRANCH  36  37
ATOM     37  C   UNL     1      -3.072 -15.653   1.101  0.00  0.00    +0.106 A 
ATOM     38  C   UNL     1      -3.150 -16.244  -0.105  0.00  0.00    +0.044 A 
ATOM     39  C   UNL     1      -4.415 -16.872  -0.172  0.00  0.00    +0.041 A 
ATOM     40  C   UNL     1      -5.034 -16.627   0.997  0.00  0.00    +0.195 A 
ATOM     41  O   UNL     1      -4.214 -15.893   1.766  0.00  0.00    -0.468 OA
ENDBRANCH  36  37
ENDBRANCH  35  36
ENDBRANCH  33  35
ENDBRANCH   7  31
TORSDOF 7
