REMARK  Name = ZINC01901159
REMARK  6 active torsions:
REMARK  status: ('A' for Active; 'I' for Inactive)
REMARK    1  A    between atoms: C_1  and  C_2
REMARK    2  A    between atoms: C_2  and  O_4
REMARK    3  A    between atoms: O_4  and  C_5
REMARK    4  A    between atoms: C_17  and  C_29
REMARK    5  A    between atoms: C_19  and  C_21
REMARK    6  A    between atoms: C_21  and  C_23
REMARK                            x       y       z     vdW  Elec       q    Type
REMARK                         _______ _______ _______ _____ _____    ______ ____
ROOT
ATOM      1  C   UNL     1      -0.235  -3.171  -2.122  0.00  0.00    +0.153 A 
ATOM      2  C   UNL     1      -0.173  -4.279  -1.285  0.00  0.00    +0.048 A 
ATOM      3  C   UNL     1       0.217  -5.509  -1.784  0.00  0.00    +0.004 A 
ATOM      4  C   UNL     1       0.542  -5.659  -3.118  0.00  0.00    +0.010 A 
ATOM      5  C   UNL     1       0.481  -4.562  -3.970  0.00  0.00    -0.001 A 
ATOM      6  C   UNL     1       0.092  -3.309  -3.456  0.00  0.00    +0.081 A 
ATOM      7  N   UNL     1       0.097  -2.258  -4.369  0.00  0.00    -0.308 N 
ATOM      8  C   UNL     1       1.058  -2.230  -5.497  0.00  0.00    +0.119 C 
ATOM      9  C   UNL     1       1.068  -3.595  -6.127  0.00  0.00    -0.003 C 
ATOM     10  C   UNL     1       0.795  -4.670  -5.409  0.00  0.00    +0.007 C 
ATOM     11  C   UNL     1       0.564  -1.141  -6.444  0.00  0.00    +0.127 C 
ATOM     12  C   UNL     1      -0.158  -0.151  -5.504  0.00  0.00    +0.073 C 
ATOM     13  C   UNL     1      -0.803  -1.109  -4.468  0.00  0.00    +0.154 C 
ATOM     14  C   UNL     1      -0.376  -1.677  -7.487  0.00  0.00    +0.180 C 
ATOM     15  O   UNL     1      -1.403  -2.290  -7.290  0.00  0.00    -0.291 OA
ATOM     16  C   UNL     1       0.191  -1.315  -8.789  0.00  0.00    +0.029 A 
ATOM     17  C   UNL     1      -0.301  -1.577 -10.071  0.00  0.00    +0.012 A 
ATOM     18  C   UNL     1       0.448  -1.110 -11.143  0.00  0.00    +0.001 A 
ATOM     19  C   UNL     1       1.630  -0.418 -10.965  0.00  0.00    +0.001 A 
ATOM     20  C   UNL     1       2.141  -0.145  -9.702  0.00  0.00    +0.012 A 
ATOM     21  C   UNL     1       1.405  -0.603  -8.606  0.00  0.00    +0.029 A 
ATOM     22  C   UNL     1       1.691  -0.467  -7.175  0.00  0.00    +0.180 C 
ATOM     23  O   UNL     1       2.650   0.083  -6.678  0.00  0.00    -0.291 OA
ENDROOT
BRANCH  12  24
ATOM     24  C   UNL     1      -1.211   0.629  -6.247  0.00  0.00    -0.005 A 
ATOM     25  C   UNL     1      -2.412   0.030  -6.576  0.00  0.00    +0.007 A 
ATOM     26  C   UNL     1      -3.378   0.745  -7.258  0.00  0.00    +0.000 A 
ATOM     27  C   UNL     1      -3.145   2.061  -7.612  0.00  0.00    +0.003 A 
ATOM     28  C   UNL     1      -1.945   2.663  -7.284  0.00  0.00    +0.038 A 
ATOM     29  C   UNL     1      -0.978   1.948  -6.596  0.00  0.00    +0.127 A 
ATOM     30  F   UNL     1       0.193   2.537  -6.271  0.00  0.00    -0.205 F 
ENDBRANCH  12  24
BRANCH  13  31
ATOM     31  C   UNL     1      -0.922  -0.425  -3.131  0.00  0.00    +0.184 C 
ATOM     32  O   UNL     1      -1.998  -0.363  -2.575  0.00  0.00    -0.290 OA
BRANCH  31  33
ATOM     33  C   UNL     1       0.268   0.168  -2.499  0.00  0.00    +0.019 A 
ATOM     34  C   UNL     1       1.541  -0.093  -3.016  0.00  0.00    +0.011 A 
ATOM     35  C   UNL     1       2.651   0.467  -2.419  0.00  0.00    +0.001 A 
ATOM     36  C   UNL     1       2.507   1.284  -1.311  0.00  0.00    +0.000 A 
ATOM     37  C   UNL     1       1.250   1.546  -0.794  0.00  0.00    +0.001 A 
ATOM     38  C   UNL     1       0.130   0.999  -1.383  0.00  0.00    +0.011 A 
ENDBRANCH  31  33
ENDBRANCH  13  31
BRANCH   1  39
ATOM     39  O   UNL     1      -0.622  -1.962  -1.632  0.00  0.00    -0.424 OA
BRANCH  39  41
ATOM     40  C   UNL     1      -1.120  -0.514   0.304  0.00  0.00    +0.136 C 
ATOM     41  C   UNL     1      -0.547  -1.767  -0.306  0.00  0.00    +0.309 C 
ATOM     42  O   UNL     1      -0.021  -2.596   0.399  0.00  0.00    -0.251 OA
ENDBRANCH  39  41
ENDBRANCH   1  39
TORSDOF 5
