REMARK  Name = ZINC28216285
REMARK  9 active torsions:
REMARK  status: ('A' for Active; 'I' for Inactive)
REMARK    1  A    between atoms: C_1  and  C_2
REMARK    2  A    between atoms: C_7  and  O_8
REMARK    3  A    between atoms: O_8  and  C_9
REMARK    4  A    between atoms: C_9  and  C_10
REMARK    5  A    between atoms: N_12  and  N_13
REMARK    6  A    between atoms: C_14  and  C_15
REMARK    7  A    between atoms: C_17  and  C_29
REMARK    8  A    between atoms: N_18  and  C_21
REMARK    9  A    between atoms: C_19  and  C_20
REMARK                            x       y       z     vdW  Elec       q    Type
REMARK                         _______ _______ _______ _____ _____    ______ ____
ROOT
ATOM      1  N   UNL     1       0.066   0.412   7.134  0.00  0.00    -0.188 NA
ATOM      2  C   UNL     1       0.084  -0.092   8.330  0.00  0.00    +0.140 C 
ENDROOT
BRANCH   2   3
ATOM      3  C   UNL     1       0.084   0.798   9.505  0.00  0.00    +0.016 A 
ATOM      4  C   UNL     1       0.109   0.394  10.914  0.00  0.00    +0.032 A 
ATOM      5  C   UNL     1       0.099   1.528  11.639  0.00  0.00    +0.022 A 
ATOM      6  N   UNL     1       0.070   2.596  10.789  0.00  0.00    -0.317 N 
ATOM      7  C   UNL     1       0.065   2.163   9.498  0.00  0.00    +0.030 A 
ATOM      8  C   UNL     1       0.041   3.041   8.273  0.00  0.00    +0.064 C 
ATOM      9  C   UNL     1       0.117   1.606  13.144  0.00  0.00    +0.064 C 
BRANCH   6  10
ATOM     10  C   UNL     1       0.052   3.940  11.186  0.00  0.00    +0.048 A 
ATOM     11  C   UNL     1      -1.057   4.730  10.916  0.00  0.00    +0.027 A 
ATOM     12  C   UNL     1      -1.073   6.054  11.309  0.00  0.00    +0.023 A 
ATOM     13  C   UNL     1       0.015   6.594  11.972  0.00  0.00    +0.059 A 
ATOM     14  C   UNL     1       1.123   5.808  12.242  0.00  0.00    +0.061 A 
ATOM     15  C   UNL     1       1.141   4.481  11.855  0.00  0.00    +0.047 A 
ATOM     16 CL   UNL     1       2.487   6.488  13.074  0.00  0.00    -0.082 Cl
ATOM     17 CL   UNL     1      -0.007   8.258  12.464  0.00  0.00    -0.082 Cl
ENDBRANCH   6  10
ENDBRANCH   2   3
BRANCH   1  20
ATOM     18  C   UNL     1       0.047   0.090   4.775  0.00  0.00    +0.270 C 
ATOM     19  O   UNL     1       0.030   1.294   4.624  0.00  0.00    -0.270 OA
ATOM     20  N   UNL     1       0.066  -0.433   6.017  0.00  0.00    -0.204 N 
ATOM     21  H   UNL     1       0.080  -1.396   6.137  0.00  0.00    +0.177 HD
BRANCH  18  22
ATOM     22  C   UNL     1       0.048  -0.820   3.574  0.00  0.00    +0.326 C 
BRANCH  22  23
ATOM     23  O   UNL     1       0.025  -0.033   2.381  0.00  0.00    -0.482 OA
BRANCH  23  30
ATOM     24  C   UNL     1      -0.018   1.503   0.010  0.00  0.00    +0.047 C 
ATOM     25  C   UNL     1       0.002  -0.004   0.002  0.00  0.00    -0.009 A 
ATOM     26  C   UNL     1       0.006  -0.689  -1.198  0.00  0.00    +0.007 A 
ATOM     27  C   UNL     1       0.024  -2.071  -1.206  0.00  0.00    +0.000 A 
ATOM     28  C   UNL     1       0.039  -2.772  -0.014  0.00  0.00    +0.004 A 
ATOM     29  C   UNL     1       0.036  -2.092   1.188  0.00  0.00    +0.046 A 
ATOM     30  C   UNL     1       0.023  -0.705   1.199  0.00  0.00    +0.124 A 
ENDBRANCH  23  30
ENDBRANCH  22  23
ENDBRANCH  18  22
ENDBRANCH   1  20
TORSDOF 6
