REMARK  Name = ZINC13112556
REMARK  4 active torsions:
REMARK  status: ('A' for Active; 'I' for Inactive)
REMARK    1  A    between atoms: C_1  and  N_47
REMARK    2  A    between atoms: C_8  and  N_17
REMARK    3  A    between atoms: N_17  and  S_18
REMARK    4  A    between atoms: S_18  and  C_21
REMARK                            x       y       z     vdW  Elec       q    Type
REMARK                         _______ _______ _______ _____ _____    ______ ____
ROOT
ATOM      1  C   UNL     1       5.536  -0.919   3.060  0.00  0.00    -0.096 C 
ATOM      2  C   UNL     1       3.984   0.876   2.580  0.00  0.00    -0.075 C 
ATOM      3  C   UNL     1       3.825   2.204   1.835  0.00  0.00    +0.029 C 
ATOM      4  C   UNL     1       3.939   1.957   0.330  0.00  0.00    +0.109 C 
ATOM      5  C   UNL     1       5.282   1.292   0.024  0.00  0.00    +0.029 C 
ATOM      6  C   UNL     1       5.397  -0.009   0.822  0.00  0.00    -0.075 C 
ATOM      7  C   UNL     1       3.846   3.291  -0.417  0.00  0.00    +0.073 C 
ATOM      8  C   UNL     1       2.541   3.981  -0.010  0.00  0.00    +0.114 C 
ATOM      9  C   UNL     1       1.399   3.002  -0.105  0.00  0.00    +0.013 A 
ATOM     10  C   UNL     1       0.104   3.492  -0.153  0.00  0.00    +0.009 A 
ATOM     11  C   UNL     1      -0.967   2.623  -0.236  0.00  0.00    +0.001 A 
ATOM     12  C   UNL     1      -0.748   1.258  -0.276  0.00  0.00    +0.004 A 
ATOM     13  C   UNL     1       0.539   0.765  -0.224  0.00  0.00    +0.046 A 
ATOM     14  C   UNL     1       1.621   1.637  -0.141  0.00  0.00    +0.126 A 
ATOM     15  O   UNL     1       2.874   1.114  -0.104  0.00  0.00    -0.485 OA
ATOM     16  N   UNL     1       5.311   0.304   2.264  0.00  0.00    +0.378 N 
ATOM     17  H   UNL     1       6.034   0.994   2.499  0.00  0.00    -0.082 HD
ENDROOT
BRANCH   8  18
ATOM     18  N   UNL     1       2.289   5.113  -0.906  0.00  0.00    -0.182 NA
ATOM     19  H   UNL     1       2.110   4.957  -1.846  0.00  0.00    +0.149 HD
BRANCH  18  20
ATOM     20  S   UNL     1       2.308   6.659  -0.312  0.00  0.00    +0.065 S 
ATOM     21  O   UNL     1       2.057   7.520  -1.414  0.00  0.00    -0.153 OA
ATOM     22  O   UNL     1       1.495   6.657   0.853  0.00  0.00    -0.153 OA
BRANCH  20  23
ATOM     23  C   UNL     1       3.954   6.991   0.222  0.00  0.00    +0.143 A 
ATOM     24  C   UNL     1       4.988   7.517  -0.478  0.00  0.00    +0.037 A 
ATOM     25  C   UNL     1       6.206   7.691   0.154  0.00  0.00    +0.025 A 
ATOM     26  C   UNL     1       6.329   7.329   1.455  0.00  0.00    +0.057 A 
ATOM     27  S   UNL     1       4.689   6.730   1.828  0.00  0.00    -0.062 S 
ATOM     28 BR   UNL     1       7.842   7.439   2.584  0.00  0.00    -0.043 Br
ENDBRANCH  20  23
ENDBRANCH  18  20
ENDBRANCH   8  18
TORSDOF 3
