REMARK  Name = ZINC09309392
REMARK  4 active torsions:
REMARK  status: ('A' for Active; 'I' for Inactive)
REMARK    1  A    between atoms: C_4  and  C_7
REMARK    2  A    between atoms: C_7  and  C_9
REMARK    3  A    between atoms: C_11  and  C_34
REMARK    4  A    between atoms: C_34  and  C_36
REMARK                            x       y       z     vdW  Elec       q    Type
REMARK                         _______ _______ _______ _____ _____    ______ ____
ROOT
ATOM      1  C   UNL     1      -3.165   2.187  -1.018  0.00  0.00    +0.110 C 
ATOM      2  C   UNL     1      -2.088   3.308  -1.065  0.00  0.00    +0.158 C 
ATOM      3  N   UNL     1      -0.823   2.568  -1.009  0.00  0.00    -0.311 N 
ATOM      4  C   UNL     1       0.333   3.244  -0.699  0.00  0.00    +0.038 A 
ATOM      5  C   UNL     1       0.457   4.618  -0.760  0.00  0.00    +0.024 A 
ATOM      6  C   UNL     1       1.658   5.217  -0.424  0.00  0.00    +0.002 A 
ATOM      7  C   UNL     1       2.739   4.450  -0.027  0.00  0.00    +0.001 A 
ATOM      8  C   UNL     1       2.635   3.074   0.038  0.00  0.00    +0.010 A 
ATOM      9  C   UNL     1       1.436   2.458  -0.297  0.00  0.00    -0.004 A 
ATOM     10  C   UNL     1       1.277   0.986  -0.246  0.00  0.00    +0.007 C 
ATOM     11  C   UNL     1       0.033   0.499  -0.091  0.00  0.00    -0.003 C 
ATOM     12  C   UNL     1      -1.069   1.510   0.004  0.00  0.00    +0.117 C 
ATOM     13  C   UNL     1      -2.458   0.997  -0.337  0.00  0.00    +0.108 C 
ATOM     14  C   UNL     1      -2.428  -0.205  -1.218  0.00  0.00    -0.008 A 
ATOM     15  C   UNL     1      -1.882  -0.420  -2.466  0.00  0.00    +0.006 A 
ATOM     16  C   UNL     1      -2.038  -1.688  -3.014  0.00  0.00    +0.000 A 
ATOM     17  C   UNL     1      -2.709  -2.687  -2.337  0.00  0.00    +0.002 A 
ATOM     18  C   UNL     1      -3.261  -2.479  -1.083  0.00  0.00    +0.023 A 
ATOM     19  C   UNL     1      -3.112  -1.211  -0.521  0.00  0.00    +0.038 A 
ATOM     20  N   UNL     1      -3.558  -0.733   0.699  0.00  0.00    -0.284 N 
ATOM     21  C   UNL     1      -3.217   0.560   0.891  0.00  0.00    +0.231 C 
ATOM     22  O   UNL     1      -3.472   1.239   1.863  0.00  0.00    -0.274 OA
ATOM     23  H   UNL     1      -4.057  -1.264   1.340  0.00  0.00    +0.155 HD
ENDROOT
BRANCH   1  24
ATOM     24  C   UNL     1      -3.596   1.814  -2.413  0.00  0.00    +0.170 C 
ATOM     25  O   UNL     1      -2.858   2.024  -3.352  0.00  0.00    -0.292 OA
BRANCH  24  29
ATOM     26  C   UNL     1      -7.390   0.029  -3.055  0.00  0.00    +0.000 A 
ATOM     27  C   UNL     1      -6.569   0.307  -4.133  0.00  0.00    +0.001 A 
ATOM     28  C   UNL     1      -5.334   0.887  -3.933  0.00  0.00    +0.011 A 
ATOM     29  C   UNL     1      -4.912   1.194  -2.636  0.00  0.00    +0.018 A 
ATOM     30  C   UNL     1      -5.745   0.905  -1.550  0.00  0.00    +0.011 A 
ATOM     31  C   UNL     1      -6.980   0.330  -1.768  0.00  0.00    +0.001 A 
ENDBRANCH  24  29
ENDBRANCH   1  24
BRANCH   2  32
ATOM     32  C   UNL     1      -2.221   4.222   0.126  0.00  0.00    +0.191 C 
ATOM     33  O   UNL     1      -1.599   3.989   1.143  0.00  0.00    -0.289 OA
BRANCH  32  34
ATOM     34  C   UNL     1      -3.070   5.349   0.060  0.00  0.00    +0.056 A 
ATOM     35  C   UNL     1      -3.260   6.360   0.997  0.00  0.00    +0.019 A 
ATOM     36  C   UNL     1      -4.154   7.347   0.674  0.00  0.00    +0.008 A 
ATOM     37  C   UNL     1      -4.800   7.294  -0.523  0.00  0.00    +0.046 A 
ATOM     38  S   UNL     1      -4.171   5.852  -1.251  0.00  0.00    -0.094 S 
ENDBRANCH  32  34
ENDBRANCH   2  32
TORSDOF 4
