REMARK  Name = ZINC56937730
REMARK  11 active torsions:
REMARK  status: ('A' for Active; 'I' for Inactive)
REMARK    1  A    between atoms: C_1  and  C_2
REMARK    2  A    between atoms: C_2  and  C_3
REMARK    3  A    between atoms: C_2  and  N_4
REMARK    4  A    between atoms: C_5  and  C_7
REMARK    5  A    between atoms: C_7  and  N_8
REMARK    6  A    between atoms: N_16  and  C_17
REMARK    7  A    between atoms: C_17  and  C_18
REMARK    8  A    between atoms: C_18  and  C_20
REMARK    9  A    between atoms: C_18  and  N_27
REMARK   10  A    between atoms: N_27  and  C_28
REMARK   11  A    between atoms: N_27  and  C_29
REMARK                            x       y       z     vdW  Elec       q    Type
REMARK                         _______ _______ _______ _____ _____    ______ ____
ROOT
ATOM      1  N   UNL     1      -0.552  -0.790   4.747  0.00  0.00    -0.291 NA
ATOM      2  C   UNL     1      -1.553  -1.837   4.502  0.00  0.00    +0.104 C 
ATOM      3  C   UNL     1      -2.545  -1.875   5.669  0.00  0.00    +0.124 C 
ATOM      4  N   UNL     1      -1.788  -2.020   6.921  0.00  0.00    -0.283 N 
ATOM      5  C   UNL     1      -0.677  -1.090   7.175  0.00  0.00    +0.124 C 
ATOM      6  C   UNL     1       0.242  -1.084   5.948  0.00  0.00    +0.104 C 
ATOM      7  C   UNL     1      -2.104  -2.980   7.813  0.00  0.00    +0.302 C 
ATOM      8  O   UNL     1      -1.411  -3.146   8.798  0.00  0.00    -0.253 OA
ATOM      9  N   UNL     1      -3.189  -3.755   7.613  0.00  0.00    -0.300 N 
ATOM     10  H   UNL     1      -3.700  -3.671   6.793  0.00  0.00    +0.150 HD
ENDROOT
BRANCH   1  11
ATOM     11  C   UNL     1       0.315  -0.605   3.576  0.00  0.00    +0.180 C 
BRANCH  11  13
ATOM     12  N   UNL     1       0.088   0.180   1.241  0.00  0.00    -0.312 N 
ATOM     13  C   UNL     1      -0.501  -0.069   2.428  0.00  0.00    +0.227 C 
ATOM     14  O   UNL     1      -1.687   0.138   2.571  0.00  0.00    -0.274 OA
ATOM     15  H   UNL     1       1.037   0.014   1.127  0.00  0.00    +0.149 HD
BRANCH  12  17
ATOM     16  C   UNL     1      -0.797   2.225   0.233  0.00  0.00    +0.027 C 
ATOM     17  C   UNL     1      -0.705   0.701   0.125  0.00  0.00    +0.067 C 
ATOM     18  C   UNL     1      -0.034   0.324  -1.197  0.00  0.00    +0.027 C 
ENDBRANCH  12  17
ENDBRANCH  11  13
ENDBRANCH   1  11
BRANCH   9  19
ATOM     19  C   UNL     1      -3.595  -4.724   8.634  0.00  0.00    +0.095 C 
BRANCH  19  20
ATOM     20  C   UNL     1      -4.771  -5.552   8.112  0.00  0.00    -0.021 C 
BRANCH  20  21
ATOM     21  C   UNL     1      -5.958  -4.652   7.885  0.00  0.00    -0.059 A 
ATOM     22  C   UNL     1      -6.744  -4.263   8.953  0.00  0.00    +0.005 A 
ATOM     23  C   UNL     1      -7.833  -3.438   8.746  0.00  0.00    +0.038 A 
ATOM     24  C   UNL     1      -8.136  -3.000   7.468  0.00  0.00    +0.123 A 
ATOM     25  C   UNL     1      -7.348  -3.390   6.399  0.00  0.00    +0.038 A 
ATOM     26  C   UNL     1      -6.256  -4.212   6.609  0.00  0.00    +0.005 A 
ATOM     27  F   UNL     1      -9.200  -2.193   7.264  0.00  0.00    -0.205 F 
ENDBRANCH  20  21
BRANCH  20  28
ATOM     28  N   UNL     1      -5.119  -6.583   9.098  0.00  0.00    +0.382 N 
ATOM     29  C   UNL     1      -6.185  -7.438   8.557  0.00  0.00    -0.096 C 
ATOM     30  C   UNL     1      -3.935  -7.403   9.390  0.00  0.00    -0.096 C 
ATOM     31  H   UNL     1      -5.440  -6.142   9.947  0.00  0.00    -0.082 HD
ENDBRANCH  20  28
ENDBRANCH  19  20
ENDBRANCH   9  19
TORSDOF 7
