REMARK  Name = ZINC13332996
REMARK  10 active torsions:
REMARK  status: ('A' for Active; 'I' for Inactive)
REMARK    1  A    between atoms: C_1  and  C_2
REMARK    2  A    between atoms: C_2  and  C_4
REMARK    3  A    between atoms: C_2  and  S_14
REMARK    4  A    between atoms: N_6  and  C_7
REMARK    5  A    between atoms: N_6  and  C_8
REMARK    6  A    between atoms: S_14  and  C_15
REMARK    7  A    between atoms: N_25  and  C_26
REMARK    8  A    between atoms: C_26  and  C_28
REMARK    9  A    between atoms: C_26  and  C_35
REMARK   10  A    between atoms: C_28  and  C_29
REMARK                            x       y       z     vdW  Elec       q    Type
REMARK                         _______ _______ _______ _____ _____    ______ ____
ROOT
ATOM      1  C   UNL     1      -1.787   3.797   1.339  0.00  0.00    +0.174 A 
ATOM      2  N   UNL     1      -1.792   5.104   1.418  0.00  0.00    -0.223 NA
ATOM      3  C   UNL     1      -0.646   5.813   1.483  0.00  0.00    +0.079 A 
ATOM      4  C   UNL     1      -0.652   7.209   1.561  0.00  0.00    +0.028 A 
ATOM      5  C   UNL     1       0.533   7.887   1.625  0.00  0.00    +0.002 A 
ATOM      6  C   UNL     1       1.746   7.210   1.614  0.00  0.00    +0.001 A 
ATOM      7  C   UNL     1       1.783   5.845   1.538  0.00  0.00    +0.015 A 
ATOM      8  C   UNL     1       0.590   5.127   1.472  0.00  0.00    +0.065 A 
ATOM      9  C   UNL     1       0.569   3.661   1.389  0.00  0.00    +0.263 A 
ATOM     10  O   UNL     1       1.601   3.014   1.375  0.00  0.00    -0.267 OA
ATOM     11  N   UNL     1      -0.640   3.055   1.328  0.00  0.00    -0.273 N 
ENDROOT
BRANCH   1  12
ATOM     12  S   UNL     1      -3.332   2.955   1.250  0.00  0.00    -0.075 S 
BRANCH  12  14
ATOM     13  C   UNL     1      -4.340   5.071   2.652  0.00  0.00    +0.029 C 
ATOM     14  C   UNL     1      -4.463   4.367   1.300  0.00  0.00    +0.137 C 
BRANCH  14  15
ATOM     15  C   UNL     1      -5.878   3.884   1.110  0.00  0.00    +0.233 C 
ATOM     16  O   UNL     1      -6.174   2.745   1.404  0.00  0.00    -0.274 OA
ATOM     17  N   UNL     1      -6.814   4.718   0.616  0.00  0.00    -0.274 N 
ATOM     18  C   UNL     1      -6.481   6.122   0.357  0.00  0.00    +0.138 C 
BRANCH  17  19
ATOM     19  C   UNL     1      -8.103   4.244   0.349  0.00  0.00    +0.036 A 
ATOM     20  C   UNL     1      -8.575   4.209  -0.957  0.00  0.00    +0.023 A 
ATOM     21  C   UNL     1      -9.846   3.736  -1.217  0.00  0.00    +0.002 A 
ATOM     22  C   UNL     1     -10.652   3.307  -0.179  0.00  0.00    +0.000 A 
ATOM     23  C   UNL     1     -10.187   3.345   1.123  0.00  0.00    +0.002 A 
ATOM     24  C   UNL     1      -8.915   3.812   1.389  0.00  0.00    +0.023 A 
ENDBRANCH  17  19
ENDBRANCH  14  15
ENDBRANCH  12  14
ENDBRANCH   1  12
BRANCH  11  25
ATOM     25  C   UNL     1      -0.718   1.595   1.243  0.00  0.00    +0.209 C 
BRANCH  25  26
ATOM     26  C   UNL     1      -0.063   0.985   2.456  0.00  0.00    +0.379 C 
ATOM     27  O   UNL     1       0.420   1.698   3.304  0.00  0.00    -0.244 OA
ATOM     28  O   UNL     1      -0.016  -0.349   2.594  0.00  0.00    -0.244 OA
ENDBRANCH  25  26
BRANCH  25  29
ATOM     29  C   UNL     1       0.002   1.117  -0.020  0.00  0.00    +0.072 C 
BRANCH  29  30
ATOM     30  C   UNL     1      -0.727   1.627  -1.236  0.00  0.00    -0.045 A 
ATOM     31  C   UNL     1      -1.732   0.869  -1.808  0.00  0.00    +0.004 A 
ATOM     32  C   UNL     1      -2.404   1.339  -2.921  0.00  0.00    +0.000 A 
ATOM     33  C   UNL     1      -2.063   2.562  -3.469  0.00  0.00    +0.000 A 
ATOM     34  C   UNL     1      -1.055   3.317  -2.900  0.00  0.00    +0.000 A 
ATOM     35  C   UNL     1      -0.387   2.850  -1.784  0.00  0.00    +0.004 A 
ENDBRANCH  29  30
ENDBRANCH  25  29
ENDBRANCH  11  25
TORSDOF 8
