REMARK  Name = ZINC39659925
REMARK  4 active torsions:
REMARK  status: ('A' for Active; 'I' for Inactive)
REMARK    1  A    between atoms: C_4  and  C_7
REMARK    2  A    between atoms: C_10  and  C_12
REMARK    3  A    between atoms: C_16  and  C_25
REMARK    4  A    between atoms: N_27  and  C_28
REMARK                            x       y       z     vdW  Elec       q    Type
REMARK                         _______ _______ _______ _____ _____    ______ ____
ROOT
ATOM      1  C   UNL     1       7.454  -0.859  -0.102  0.00  0.00    +0.282 C 
ATOM      2  O   UNL     1       8.236  -1.791  -0.066  0.00  0.00    -0.267 OA
ATOM      3  N   UNL     1       7.913   0.407  -0.061  0.00  0.00    -0.294 N 
ATOM      4  C   UNL     1       7.122   1.661  -0.087  0.00  0.00    +0.121 C 
ATOM      5  C   UNL     1       7.840   2.596   0.912  0.00  0.00    +0.100 C 
ATOM      6  C   UNL     1       9.283   2.067   0.977  0.00  0.00    -0.004 C 
ATOM      7  C   UNL     1       9.321   0.861   0.027  0.00  0.00    +0.115 C 
ATOM      8  C   UNL     1      10.260   3.141   0.510  0.00  0.00    -0.010 C 
ATOM      9  C   UNL     1      11.692   2.612   0.638  0.00  0.00    -0.082 C 
ATOM     10  N   UNL     1      11.959   2.254   2.037  0.00  0.00    +0.379 N 
ATOM     11  C   UNL     1      11.077   1.157   2.450  0.00  0.00    -0.082 C 
ATOM     12  C   UNL     1       9.619   1.624   2.398  0.00  0.00    -0.010 C 
ATOM     13  H   UNL     1      12.921   1.964   2.130  0.00  0.00    -0.086 HD
ATOM     14  H   UNL     1      11.794   3.057   2.626  0.00  0.00    -0.086 HD
ENDROOT
BRANCH   1  18
ATOM     15  C   UNL     1       3.845  -0.779  -0.312  0.00  0.00    +0.136 A 
ATOM     16  C   UNL     1       4.035  -2.131  -0.316  0.00  0.00    +0.050 A 
ATOM     17  C   UNL     1       5.413  -2.353  -0.238  0.00  0.00    +0.055 A 
ATOM     18  C   UNL     1       6.014  -1.114  -0.189  0.00  0.00    +0.190 A 
ATOM     19  O   UNL     1       5.044  -0.176  -0.241  0.00  0.00    -0.450 OA
BRANCH  15  23
ATOM     20  C   UNL     1       0.091   1.196  -0.510  0.00  0.00    +0.000 A 
ATOM     21  C   UNL     1       1.257   1.939  -0.439  0.00  0.00    +0.001 A 
ATOM     22  C   UNL     1       2.480   1.304  -0.374  0.00  0.00    +0.011 A 
ATOM     23  C   UNL     1       2.540  -0.092  -0.381  0.00  0.00    +0.017 A 
ATOM     24  C   UNL     1       1.359  -0.834  -0.452  0.00  0.00    +0.011 A 
ATOM     25  C   UNL     1       0.143  -0.186  -0.517  0.00  0.00    +0.001 A 
ENDBRANCH  15  23
ENDBRANCH   1  18
BRANCH   5  26
ATOM     26  C   UNL     1       7.821   4.016   0.409  0.00  0.00    +0.218 C 
ATOM     27  O   UNL     1       7.831   4.237  -0.784  0.00  0.00    -0.275 OA
ATOM     28  N   UNL     1       7.793   5.041   1.283  0.00  0.00    -0.312 N 
ATOM     29  H   UNL     1       7.785   4.864   2.237  0.00  0.00    +0.149 HD
BRANCH  28  30
ATOM     30  C   UNL     1       7.775   6.421   0.794  0.00  0.00    +0.073 C 
ATOM     31  C   UNL     1       9.207   6.885   0.521  0.00  0.00    +0.022 C 
ATOM     32  C   UNL     1       9.179   8.145  -0.346  0.00  0.00    +0.002 C 
ATOM     33  C   UNL     1       8.160   7.966  -1.473  0.00  0.00    +0.000 C 
ATOM     34  C   UNL     1       6.993   8.934  -1.264  0.00  0.00    +0.000 C 
ATOM     35  C   UNL     1       6.090   8.409  -0.147  0.00  0.00    +0.000 C 
ATOM     36  C   UNL     1       6.754   8.664   1.208  0.00  0.00    +0.002 C 
ATOM     37  C   UNL     1       7.137   7.328   1.848  0.00  0.00    +0.022 C 
ENDBRANCH  28  30
ENDBRANCH   5  26
TORSDOF 4
