REMARK  Name = ZINC15026428
REMARK  7 active torsions:
REMARK  status: ('A' for Active; 'I' for Inactive)
REMARK    1  A    between atoms: C_1  and  C_2
REMARK    2  A    between atoms: C_2  and  C_4
REMARK    3  A    between atoms: C_2  and  N_14
REMARK    4  A    between atoms: C_15  and  C_17
REMARK    5  A    between atoms: C_18  and  C_19
REMARK    6  A    between atoms: N_24  and  C_25
REMARK    7  A    between atoms: C_31  and  C_33
REMARK                            x       y       z     vdW  Elec       q    Type
REMARK                         _______ _______ _______ _____ _____    ______ ____
ROOT
ATOM      1  C   UNL     1       5.112   8.273  -1.116  0.00  0.00    +0.069 C 
ATOM      2  C   UNL     1       3.854   8.765  -1.199  0.00  0.00    +0.033 C 
ENDROOT
BRANCH   2   3
ATOM      3  C   UNL     1       2.719   7.852  -1.363  0.00  0.00    +0.073 A 
ATOM      4  C   UNL     1       1.435   8.341  -1.450  0.00  0.00    +0.076 A 
ATOM      5  S   UNL     1       0.512   6.821  -1.633  0.00  0.00    -0.059 S 
ATOM      6  C   UNL     1       1.903   5.701  -1.578  0.00  0.00    +0.172 A 
ATOM      7  N   UNL     1       2.912   6.534  -1.425  0.00  0.00    -0.225 NA
ATOM      8  N   UNL     1       1.917   4.314  -1.667  0.00  0.00    -0.219 N 
ATOM      9  C   UNL     1       3.071   3.640  -1.501  0.00  0.00    +0.223 C 
ATOM     10  O   UNL     1       4.080   4.233  -1.182  0.00  0.00    -0.275 OA
ATOM     11  C   UNL     1       3.110   2.148  -1.712  0.00  0.00    +0.110 C 
BRANCH   8  12
ATOM     12  C   UNL     1       0.730   3.618  -1.929  0.00  0.00    +0.043 A 
ATOM     13  C   UNL     1       0.571   2.942  -3.131  0.00  0.00    +0.024 A 
ATOM     14  C   UNL     1      -0.600   2.255  -3.386  0.00  0.00    +0.002 A 
ATOM     15  C   UNL     1      -1.616   2.246  -2.448  0.00  0.00    +0.000 A 
ATOM     16  C   UNL     1      -1.459   2.913  -1.248  0.00  0.00    +0.002 A 
ATOM     17  C   UNL     1      -0.290   3.602  -0.987  0.00  0.00    +0.024 A 
ENDBRANCH   8  12
ENDBRANCH   2   3
BRANCH   1  19
ATOM     18  N   UNL     1       7.461   8.665  -0.874  0.00  0.00    -0.305 N 
ATOM     19  C   UNL     1       6.208   9.155  -0.958  0.00  0.00    +0.237 C 
ATOM     20  O   UNL     1       6.020  10.357  -0.897  0.00  0.00    -0.271 OA
ATOM     21  H   UNL     1       7.611   7.707  -0.923  0.00  0.00    +0.150 HD
BRANCH  18  23
ATOM     22  C   UNL     1       8.730   9.964   0.763  0.00  0.00    +0.033 C 
ATOM     23  C   UNL     1       8.596   9.577  -0.711  0.00  0.00    +0.101 C 
BRANCH  23  24
ATOM     24  C   UNL     1       9.859   8.894  -1.168  0.00  0.00    -0.020 A 
ATOM     25  C   UNL     1       9.964   7.538  -1.109  0.00  0.00    +0.006 A 
ATOM     26  C   UNL     1      11.122   6.889  -1.532  0.00  0.00    +0.001 A 
ATOM     27  C   UNL     1      12.186   7.593  -2.007  0.00  0.00    +0.008 A 
ATOM     28  C   UNL     1      12.117   8.995  -2.078  0.00  0.00    -0.018 A 
ATOM     29  C   UNL     1      10.937   9.655  -1.652  0.00  0.00    -0.013 A 
ATOM     30  C   UNL     1      10.868  11.056  -1.723  0.00  0.00    +0.009 A 
ATOM     31  C   UNL     1      11.932  11.760  -2.199  0.00  0.00    +0.001 A 
ATOM     32  C   UNL     1      13.092  11.111  -2.617  0.00  0.00    +0.001 A 
ATOM     33  C   UNL     1      13.195   9.755  -2.562  0.00  0.00    +0.008 A 
ENDBRANCH  23  24
ENDBRANCH  18  23
ENDBRANCH   1  19
TORSDOF 5
