REMARK  Name = ZINC14536277
REMARK  16 active torsions:
REMARK  status: ('A' for Active; 'I' for Inactive)
REMARK    1  A    between atoms: C_1  and  C_2
REMARK    2  A    between atoms: N_4  and  C_5
REMARK    3  A    between atoms: C_5  and  C_6
REMARK    4  A    between atoms: C_6  and  N_7
REMARK    5  A    between atoms: C_8  and  C_10
REMARK    6  A    between atoms: C_12  and  N_22
REMARK    7  A    between atoms: C_14  and  S_16
REMARK    8  A    between atoms: S_16  and  N_19
REMARK    9  A    between atoms: N_19  and  C_20
REMARK   10  A    between atoms: N_19  and  C_21
REMARK   11  A    between atoms: N_22  and  C_23
REMARK   12  A    between atoms: C_23  and  C_24
REMARK   13  A    between atoms: C_27  and  O_33
REMARK   14  A    between atoms: C_28  and  O_31
REMARK   15  A    between atoms: O_31  and  C_32
REMARK   16  A    between atoms: O_33  and  C_34
REMARK                            x       y       z     vdW  Elec       q    Type
REMARK                         _______ _______ _______ _____ _____    ______ ____
ROOT
ATOM      1  C   UNL     1      -2.566   1.413   3.129  0.00  0.00    +0.040 A 
ATOM      2  C   UNL     1      -2.357   2.671   3.694  0.00  0.00    +0.036 A 
ATOM      3  C   UNL     1      -1.433   3.536   3.126  0.00  0.00    +0.030 A 
ATOM      4  C   UNL     1      -0.715   3.145   2.002  0.00  0.00    +0.051 A 
ATOM      5  C   UNL     1      -0.927   1.900   1.439  0.00  0.00    +0.108 A 
ATOM      6  C   UNL     1      -1.844   1.032   1.997  0.00  0.00    +0.041 A 
ENDROOT
BRANCH   1   8
ATOM      7  N   UNL     1      -4.245   0.855   4.822  0.00  0.00    -0.310 N 
ATOM      8  C   UNL     1      -3.549   0.485   3.729  0.00  0.00    +0.244 C 
ATOM      9  O   UNL     1      -3.729  -0.611   3.235  0.00  0.00    -0.270 OA
ATOM     10  H   UNL     1      -4.101   1.730   5.215  0.00  0.00    +0.149 HD
BRANCH   7  11
ATOM     11  C   UNL     1      -5.219  -0.064   5.416  0.00  0.00    +0.123 C 
BRANCH  11  12
ATOM     12  C   UNL     1      -5.865   0.595   6.636  0.00  0.00    +0.123 C 
BRANCH  12  16
ATOM     13  C   UNL     1      -8.537  -0.900   8.934  0.00  0.00    +0.109 C 
ATOM     14  C   UNL     1      -7.535   0.046   8.323  0.00  0.00    +0.210 C 
ATOM     15  O   UNL     1      -7.355   1.139   8.815  0.00  0.00    -0.276 OA
ATOM     16  N   UNL     1      -6.839  -0.324   7.230  0.00  0.00    -0.314 N 
ATOM     17  H   UNL     1      -6.982  -1.199   6.836  0.00  0.00    +0.149 HD
ENDBRANCH  12  16
ENDBRANCH  11  12
ENDBRANCH   7  11
ENDBRANCH   1   8
BRANCH   5  18
ATOM     18  S   UNL     1      -0.017   1.417   0.010  0.00  0.00    +0.060 S 
ATOM     19  O   UNL     1       0.002  -0.004   0.002  0.00  0.00    -0.153 OA
ATOM     20  O   UNL     1       1.172   2.195   0.003  0.00  0.00    -0.153 OA
BRANCH  18  21
ATOM     21  N   UNL     1      -0.897   1.885  -1.312  0.00  0.00    -0.183 NA
ATOM     22  C   UNL     1      -0.691   3.213  -1.897  0.00  0.00    +0.131 C 
ATOM     23  C   UNL     1      -1.883   0.973  -1.897  0.00  0.00    +0.131 C 
ENDBRANCH  18  21
ENDBRANCH   5  18
BRANCH   3  24
ATOM     24  N   UNL     1      -1.220   4.797   3.688  0.00  0.00    -0.340 N 
ATOM     25  H   UNL     1      -0.574   5.402   3.291  0.00  0.00    +0.146 HD
BRANCH  24  26
ATOM     26  C   UNL     1      -1.972   5.206   4.877  0.00  0.00    +0.138 C 
BRANCH  26  27
ATOM     27  C   UNL     1      -1.558   6.599   5.278  0.00  0.00    -0.008 A 
ATOM     28  C   UNL     1      -0.657   6.779   6.311  0.00  0.00    +0.010 A 
ATOM     29  C   UNL     1      -0.274   8.055   6.683  0.00  0.00    +0.050 A 
ATOM     30  C   UNL     1      -0.792   9.155   6.020  0.00  0.00    +0.163 A 
ATOM     31  C   UNL     1      -1.699   8.975   4.981  0.00  0.00    +0.180 A 
ATOM     32  C   UNL     1      -2.076   7.693   4.609  0.00  0.00    +0.091 A 
ATOM     33 CL   UNL     1      -3.202   7.462   3.308  0.00  0.00    -0.079 Cl
BRANCH  31  34
ATOM     34  O   UNL     1      -2.211  10.052   4.327  0.00  0.00    -0.490 OA
ATOM     35  C   UNL     1      -1.492  10.519   3.183  0.00  0.00    +0.277 C 
ENDBRANCH  31  34
BRANCH  30  36
ATOM     36  O   UNL     1      -0.416  10.410   6.385  0.00  0.00    -0.491 OA
ATOM     37  C   UNL     1       0.518  10.520   7.461  0.00  0.00    +0.277 C 
ENDBRANCH  30  36
ENDBRANCH  26  27
ENDBRANCH  24  26
ENDBRANCH   3  24
TORSDOF 11
