REMARK  Name = ZINC41584458
REMARK  12 active torsions:
REMARK  status: ('A' for Active; 'I' for Inactive)
REMARK    1  A    between atoms: C_1  and  C_2
REMARK    2  A    between atoms: C_2  and  C_3
REMARK    3  A    between atoms: C_3  and  N_4
REMARK    4  A    between atoms: N_4  and  C_5
REMARK    5  A    between atoms: N_4  and  C_8
REMARK    6  A    between atoms: C_5  and  C_6
REMARK    7  A    between atoms: C_6  and  C_7
REMARK    8  A    between atoms: C_8  and  C_9
REMARK    9  A    between atoms: C_10  and  O_33
REMARK   10  A    between atoms: C_12  and  C_32
REMARK   11  A    between atoms: C_17  and  C_18
REMARK   12  A    between atoms: C_21  and  C_24
REMARK                            x       y       z     vdW  Elec       q    Type
REMARK                         _______ _______ _______ _____ _____    ______ ____
ROOT
ATOM      1  C   UNL     1      -3.546  -1.989  -1.960  0.00  0.00    +0.020 A 
ATOM      2  C   UNL     1      -4.397  -0.898  -2.025  0.00  0.00    +0.122 A 
ATOM      3  C   UNL     1      -4.935  -0.491  -3.243  0.00  0.00    +0.050 A 
ATOM      4  C   UNL     1      -4.627  -1.168  -4.389  0.00  0.00    -0.033 A 
ATOM      5  C   UNL     1      -3.771  -2.268  -4.339  0.00  0.00    +0.071 A 
ATOM      6  C   UNL     1      -3.217  -2.684  -3.117  0.00  0.00    +0.145 A 
ATOM      7  O   UNL     1      -2.421  -3.756  -3.319  0.00  0.00    -0.451 OA
ATOM      8  C   UNL     1      -2.381  -4.115  -4.624  0.00  0.00    +0.176 C 
ATOM      9  C   UNL     1      -1.675  -5.148  -5.150  0.00  0.00    +0.058 C 
ATOM     10  C   UNL     1      -3.253  -3.190  -5.365  0.00  0.00    +0.232 C 
ATOM     11  O   UNL     1      -3.483  -3.180  -6.562  0.00  0.00    -0.283 OA
ATOM     12  C   UNL     1      -5.212  -0.726  -5.706  0.00  0.00    +0.045 C 
ENDROOT
BRANCH   9  13
ATOM     13  C   UNL     1      -1.588  -5.310  -6.607  0.00  0.00    -0.021 A 
ATOM     14  C   UNL     1      -1.449  -4.186  -7.431  0.00  0.00    +0.008 A 
ATOM     15  C   UNL     1      -1.367  -4.340  -8.786  0.00  0.00    +0.009 A 
ATOM     16  C   UNL     1      -1.422  -5.616  -9.349  0.00  0.00    -0.018 A 
ATOM     17  C   UNL     1      -1.561  -6.738  -8.530  0.00  0.00    +0.009 A 
ATOM     18  C   UNL     1      -1.637  -6.590  -7.174  0.00  0.00    +0.008 A 
BRANCH  16  19
ATOM     19  C   UNL     1      -1.334  -5.780 -10.819  0.00  0.00    -0.018 A 
ATOM     20  C   UNL     1      -1.190  -4.663 -11.641  0.00  0.00    +0.008 A 
ATOM     21  C   UNL     1      -1.108  -4.822 -13.009  0.00  0.00    +0.001 A 
ATOM     22  C   UNL     1      -1.168  -6.087 -13.566  0.00  0.00    +0.000 A 
ATOM     23  C   UNL     1      -1.311  -7.199 -12.756  0.00  0.00    +0.001 A 
ATOM     24  C   UNL     1      -1.389  -7.053 -11.386  0.00  0.00    +0.008 A 
ENDBRANCH  16  19
ENDBRANCH   9  13
BRANCH   2  25
ATOM     25  O   UNL     1      -4.710  -0.220  -0.891  0.00  0.00    -0.506 OA
ATOM     26  H   UNL     1      -4.108   0.510  -0.690  0.00  0.00    +0.292 HD
ENDBRANCH   2  25
BRANCH   1  27
ATOM     27  C   UNL     1      -2.970  -2.418  -0.634  0.00  0.00    -0.036 C 
BRANCH  27  28
ATOM     28  N   UNL     1      -1.701  -1.717  -0.402  0.00  0.00    +0.383 N 
ATOM     29  H   UNL     1      -1.080  -1.878  -1.181  0.00  0.00    -0.081 HD
BRANCH  28  30
ATOM     30  C   UNL     1      -1.955  -0.276  -0.267  0.00  0.00    -0.079 C 
BRANCH  30  32
ATOM     31  C   UNL     1      -0.878   1.974  -0.129  0.00  0.00    +0.002 C 
ATOM     32  C   UNL     1      -0.623   0.466  -0.133  0.00  0.00    -0.022 C 
ENDBRANCH  30  32
ENDBRANCH  28  30
BRANCH  28  33
ATOM     33  C   UNL     1      -1.081  -2.222   0.831  0.00  0.00    -0.079 C 
BRANCH  33  34
ATOM     34  C   UNL     1      -0.683  -3.687   0.638  0.00  0.00    -0.022 C 
ATOM     35  C   UNL     1       0.082  -4.174   1.871  0.00  0.00    +0.002 C 
ENDBRANCH  33  34
ENDBRANCH  28  33
ENDBRANCH  27  28
ENDBRANCH   1  27
TORSDOF 9
