REMARK  Name = ZINC20153918
REMARK  13 active torsions:
REMARK  status: ('A' for Active; 'I' for Inactive)
REMARK    1  A    between atoms: C_1  and  C_2
REMARK    2  A    between atoms: C_2  and  O_3
REMARK    3  A    between atoms: O_3  and  C_4
REMARK    4  A    between atoms: C_7  and  N_10
REMARK    5  A    between atoms: C_17  and  C_33
REMARK    6  A    between atoms: C_22  and  C_29
REMARK    7  A    between atoms: C_24  and  C_25
REMARK    8  A    between atoms: C_25  and  C_26
REMARK    9  A    between atoms: C_25  and  C_27
REMARK   10  A    between atoms: C_25  and  C_28
REMARK   11  A    between atoms: C_29  and  C_30
REMARK   12  A    between atoms: C_29  and  C_31
REMARK   13  A    between atoms: C_29  and  C_32
REMARK                            x       y       z     vdW  Elec       q    Type
REMARK                         _______ _______ _______ _____ _____    ______ ____
ROOT
ATOM      1  N   UNL     1       1.116  -5.946  -1.835  0.00  0.00    -0.216 N 
ATOM      2  C   UNL     1       1.640  -6.432  -2.970  0.00  0.00    +0.310 C 
ATOM      3  O   UNL     1       2.084  -5.653  -3.791  0.00  0.00    -0.252 OA
ATOM      4  N   UNL     1       1.697  -7.749  -3.231  0.00  0.00    -0.292 N 
ATOM      5  C   UNL     1       1.091  -8.706  -2.291  0.00  0.00    +0.114 C 
ATOM      6  C   UNL     1       1.341  -8.179  -0.868  0.00  0.00    +0.096 C 
ATOM      7  C   UNL     1       0.636  -6.819  -0.767  0.00  0.00    +0.185 C 
ATOM      8  O   UNL     1      -0.769  -7.029  -0.876  0.00  0.00    -0.467 OA
ATOM      9  C   UNL     1      -1.247  -7.894  -1.819  0.00  0.00    +0.132 A 
ATOM     10  C   UNL     1      -0.401  -8.722  -2.535  0.00  0.00    +0.015 A 
ATOM     11  C   UNL     1      -0.914  -9.580  -3.490  0.00  0.00    +0.013 A 
ATOM     12  C   UNL     1      -2.274  -9.611  -3.738  0.00  0.00    -0.041 A 
ATOM     13  C   UNL     1      -3.123  -8.781  -3.029  0.00  0.00    +0.012 A 
ATOM     14  C   UNL     1      -2.615  -7.925  -2.073  0.00  0.00    +0.000 A 
ATOM     15  C   UNL     1       0.951  -6.183   0.589  0.00  0.00    +0.079 C 
ATOM     16  H   UNL     1       2.193  -8.112  -4.143  0.00  0.00    +0.151 HD
ENDROOT
BRANCH   1  20
ATOM     17  C   UNL     1       0.834  -1.814  -1.348  0.00  0.00    +0.121 A 
ATOM     18  C   UNL     1      -0.213  -2.517  -1.925  0.00  0.00    +0.047 A 
ATOM     19  C   UNL     1      -0.118  -3.885  -2.091  0.00  0.00    +0.027 A 
ATOM     20  C   UNL     1       1.021  -4.557  -1.671  0.00  0.00    +0.042 A 
ATOM     21  C   UNL     1       2.067  -3.853  -1.088  0.00  0.00    +0.027 A 
ATOM     22  C   UNL     1       1.972  -2.485  -0.927  0.00  0.00    +0.047 A 
BRANCH  17  23
ATOM     23  O   UNL     1       0.742  -0.466  -1.190  0.00  0.00    -0.492 OA
BRANCH  23  25
ATOM     24  C   UNL     1      -0.379   1.666  -1.385  0.00  0.00    +0.048 C 
ATOM     25  C   UNL     1      -0.459   0.160  -1.645  0.00  0.00    +0.225 C 
ENDBRANCH  23  25
ENDBRANCH  17  23
ENDBRANCH   1  20
BRANCH  14  26
ATOM     26  C   UNL     1      -3.543  -7.022  -1.303  0.00  0.00    -0.009 C 
ATOM     27  C   UNL     1      -4.982  -7.251  -1.772  0.00  0.00    +0.015 C 
ATOM     28  C   UNL     1      -3.437  -7.335   0.190  0.00  0.00    +0.015 C 
ATOM     29  C   UNL     1      -3.154  -5.562  -1.547  0.00  0.00    +0.015 C 
ENDBRANCH  14  26
BRANCH  12  30
ATOM     30  C   UNL     1      -2.830 -10.547  -4.779  0.00  0.00    -0.013 C 
ATOM     31  C   UNL     1      -3.545  -9.738  -5.863  0.00  0.00    +0.015 C 
ATOM     32  C   UNL     1      -1.687 -11.346  -5.409  0.00  0.00    +0.015 C 
ATOM     33  C   UNL     1      -3.823 -11.509  -4.122  0.00  0.00    +0.015 C 
ENDBRANCH  12  30
TORSDOF 5
