REMARK  Name = ZINC16349455
REMARK  5 active torsions:
REMARK  status: ('A' for Active; 'I' for Inactive)
REMARK    1  A    between atoms: C_1  and  C_2
REMARK    2  A    between atoms: C_6  and  N_8
REMARK    3  A    between atoms: C_12  and  N_13
REMARK    4  A    between atoms: N_13  and  N_14
REMARK    5  A    between atoms: C_28  and  C_30
REMARK                            x       y       z     vdW  Elec       q    Type
REMARK                         _______ _______ _______ _____ _____    ______ ____
ROOT
ATOM      1  N   UNL     1       0.503  -5.509   5.896  0.00  0.00    -0.271 N 
ATOM      2  H   UNL     1       0.350  -4.712   6.427  0.00  0.00    +0.169 HD
ENDROOT
BRANCH   1   3
ATOM      3  N   UNL     1       0.805  -6.723   6.527  0.00  0.00    -0.237 N 
ATOM      4  C   UNL     1       0.884  -6.784   7.896  0.00  0.00    +0.213 A 
ATOM      5  N   UNL     1       1.186  -7.981   8.477  0.00  0.00    -0.293 N 
ATOM      6  H   UNL     1       1.338  -8.761   7.921  0.00  0.00    +0.172 HD
ATOM      7  C   UNL     1       1.276  -8.089   9.823  0.00  0.00    +0.260 A 
ATOM      8  O   UNL     1       1.545  -9.151  10.354  0.00  0.00    -0.267 OA
ATOM      9  C   UNL     1       1.036  -6.878  10.619  0.00  0.00    +0.066 A 
ATOM     10  C   UNL     1       1.105  -6.886  12.011  0.00  0.00    +0.030 A 
ATOM     11  C   UNL     1       0.872  -5.720  12.707  0.00  0.00    +0.019 A 
ATOM     12  C   UNL     1       0.570  -4.543  12.033  0.00  0.00    +0.017 A 
ATOM     13  C   UNL     1       0.496  -4.513  10.669  0.00  0.00    +0.030 A 
ATOM     14  C   UNL     1       0.729  -5.680   9.935  0.00  0.00    +0.080 A 
ATOM     15  N   UNL     1       0.671  -5.690   8.582  0.00  0.00    -0.215 NA
ATOM     16 BR   UNL     1       0.963  -5.721  14.596  0.00  0.00    -0.050 Br
ATOM     17  H   UNL     1       0.959  -7.521   5.997  0.00  0.00    +0.173 HD
ENDBRANCH   1   3
BRANCH   1  22
ATOM     18  N   UNL     1      -0.504  -2.741   2.375  0.00  0.00    -0.156 N 
ATOM     19  C   UNL     1      -0.021  -3.994   2.494  0.00  0.00    +0.273 C 
ATOM     20  O   UNL     1       0.324  -4.737   1.590  0.00  0.00    -0.268 OA
ATOM     21  C   UNL     1       0.006  -4.284   3.933  0.00  0.00    +0.076 C 
ATOM     22  C   UNL     1       0.426  -5.449   4.551  0.00  0.00    +0.102 C 
ATOM     23  C   UNL     1      -0.509  -3.065   4.575  0.00  0.00    +0.070 C 
ATOM     24  N   UNL     1      -0.780  -2.212   3.635  0.00  0.00    -0.176 NA
ATOM     25  C   UNL     1      -0.684  -2.844   6.056  0.00  0.00    +0.068 C 
BRANCH  18  31
ATOM     26  C   UNL     1      -1.927   1.296  -0.046  0.00  0.00    +0.044 C 
ATOM     27  C   UNL     1      -1.384  -0.110  -0.040  0.00  0.00    -0.049 A 
ATOM     28  C   UNL     1      -1.074  -0.736  -1.234  0.00  0.00    +0.003 A 
ATOM     29  C   UNL     1      -0.575  -2.025  -1.232  0.00  0.00    +0.002 A 
ATOM     30  C   UNL     1      -0.385  -2.693  -0.038  0.00  0.00    +0.025 A 
ATOM     31  C   UNL     1      -0.695  -2.067   1.162  0.00  0.00    +0.061 A 
ATOM     32  C   UNL     1      -1.191  -0.770   1.158  0.00  0.00    +0.028 A 
ENDBRANCH  18  31
ENDBRANCH   1  22
TORSDOF 3
