REMARK  Name = ZINC16677627
REMARK  4 active torsions:
REMARK  status: ('A' for Active; 'I' for Inactive)
REMARK    1  A    between atoms: C_13  and  C_16
REMARK    2  A    between atoms: N_18  and  N_19
REMARK    3  A    between atoms: C_20  and  C_21
REMARK    4  A    between atoms: C_24  and  C_26
REMARK                            x       y       z     vdW  Elec       q    Type
REMARK                         _______ _______ _______ _____ _____    ______ ____
ROOT
ATOM      1  C   UNL     1       3.495   2.044   0.967  0.00  0.00    +0.276 C 
ATOM      2  O   UNL     1       4.489   1.415   0.670  0.00  0.00    -0.270 OA
ATOM      3  N   UNL     1       3.603   3.322   1.380  0.00  0.00    -0.204 N 
ATOM      4  H   UNL     1       2.808   3.824   1.618  0.00  0.00    +0.177 HD
ENDROOT
BRANCH   1  17
ATOM      5  C   UNL     1      -2.270  -4.043  -1.124  0.00  0.00    +0.001 A 
ATOM      6  C   UNL     1      -1.146  -4.756  -0.710  0.00  0.00    +0.001 A 
ATOM      7  C   UNL     1      -0.019  -4.111  -0.300  0.00  0.00    +0.008 A 
ATOM      8  C   UNL     1       0.014  -2.706  -0.292  0.00  0.00    -0.014 A 
ATOM      9  C   UNL     1       1.159  -2.006   0.125  0.00  0.00    +0.058 A 
ATOM     10  C   UNL     1       1.161  -0.640   0.123  0.00  0.00    +0.164 A 
ATOM     11  C   UNL     1       0.029   0.077  -0.291  0.00  0.00    +0.163 A 
ATOM     12  C   UNL     1      -1.098  -0.577  -0.704  0.00  0.00    +0.058 A 
ATOM     13  C   UNL     1      -1.129  -1.981  -0.713  0.00  0.00    -0.014 A 
ATOM     14  C   UNL     1      -2.273  -2.682  -1.130  0.00  0.00    +0.008 A 
ATOM     15  O   UNL     1       0.032   1.439  -0.287  0.00  0.00    -0.484 OA
ATOM     16  C   UNL     1       1.310   2.080  -0.223  0.00  0.00    +0.283 C 
ATOM     17  C   UNL     1       2.138   1.395   0.873  0.00  0.00    +0.297 C 
ATOM     18  O   UNL     1       2.286   0.014   0.527  0.00  0.00    -0.472 OA
ENDBRANCH   1  17
BRANCH   3  19
ATOM     19  N   UNL     1       4.865   3.925   1.468  0.00  0.00    -0.185 NA
ATOM     20  C   UNL     1       4.965   5.182   1.790  0.00  0.00    +0.176 C 
BRANCH  20  21
ATOM     21  C   UNL     1       3.777   5.924   2.220  0.00  0.00    +0.148 A 
ATOM     22  C   UNL     1       3.717   7.276   2.475  0.00  0.00    +0.051 A 
ATOM     23  C   UNL     1       2.398   7.558   2.856  0.00  0.00    +0.050 A 
ATOM     24  C   UNL     1       1.712   6.380   2.820  0.00  0.00    +0.136 A 
ATOM     25  O   UNL     1       2.551   5.403   2.430  0.00  0.00    -0.454 OA
BRANCH  24  26
ATOM     26  C   UNL     1       0.283   6.207   3.149  0.00  0.00    +0.019 A 
ATOM     27  C   UNL     1      -0.484   7.306   3.543  0.00  0.00    +0.013 A 
ATOM     28  C   UNL     1      -1.820   7.139   3.844  0.00  0.00    +0.022 A 
ATOM     29  C   UNL     1      -2.398   5.884   3.767  0.00  0.00    +0.059 A 
ATOM     30  C   UNL     1      -1.642   4.788   3.382  0.00  0.00    +0.060 A 
ATOM     31  C   UNL     1      -0.306   4.943   3.073  0.00  0.00    +0.033 A 
ATOM     32 CL   UNL     1      -2.377   3.218   3.288  0.00  0.00    -0.082 Cl
ATOM     33 CL   UNL     1      -4.079   5.681   4.154  0.00  0.00    -0.082 Cl
ENDBRANCH  24  26
ENDBRANCH  20  21
ENDBRANCH   3  19
TORSDOF 4
