REMARK  Name = ZINC08602853
REMARK  7 active torsions:
REMARK  status: ('A' for Active; 'I' for Inactive)
REMARK    1  A    between atoms: C_1  and  C_2
REMARK    2  A    between atoms: C_6  and  C_16
REMARK    3  A    between atoms: C_8  and  O_11
REMARK    4  A    between atoms: O_11  and  C_12
REMARK    5  A    between atoms: N_14  and  N_15
REMARK    6  A    between atoms: C_16  and  C_17
REMARK    7  A    between atoms: C_16  and  C_18
REMARK                            x       y       z     vdW  Elec       q    Type
REMARK                         _______ _______ _______ _____ _____    ______ ____
ROOT
ATOM      1  C   UNL     1      -0.526   0.224   2.636  0.00  0.00    +0.007 C 
ATOM      2  C   UNL     1      -1.098   0.939   1.410  0.00  0.00    -0.011 C 
ATOM      3  C   UNL     1      -0.312   0.524   0.165  0.00  0.00    +0.004 C 
ATOM      4  C   UNL     1      -0.885   1.239  -1.061  0.00  0.00    +0.007 C 
ATOM      5  C   UNL     1      -2.356   0.855  -1.234  0.00  0.00    +0.032 C 
ATOM      6  C   UNL     1      -3.141   1.270   0.011  0.00  0.00    +0.182 C 
ATOM      7  C   UNL     1      -2.569   0.555   1.237  0.00  0.00    +0.048 C 
ENDROOT
BRANCH   5   8
ATOM      8  C   UNL     1      -2.928   1.570  -2.460  0.00  0.00    -0.011 C 
ATOM      9  C   UNL     1      -2.721   3.079  -2.314  0.00  0.00    +0.007 C 
ATOM     10  C   UNL     1      -2.212   1.077  -3.719  0.00  0.00    +0.007 C 
ENDBRANCH   5   8
BRANCH   6  11
ATOM     11  O   UNL     1      -4.537   0.906  -0.154  0.00  0.00    -0.446 OA
BRANCH  11  12
ATOM     12  C   UNL     1      -5.448   1.678   0.468  0.00  0.00    +0.414 C 
ATOM     13  O   UNL     1      -5.087   2.631   1.130  0.00  0.00    -0.225 OA
ATOM     14  N   UNL     1      -6.761   1.395   0.356  0.00  0.00    -0.219 N 
ATOM     15  H   UNL     1      -7.417   1.952   0.804  0.00  0.00    +0.172 HD
BRANCH  14  16
ATOM     16  N   UNL     1      -7.168   0.324  -0.388  0.00  0.00    -0.252 NA
ATOM     17  H   UNL     1      -6.729  -0.526  -0.068  0.00  0.00    +0.141 HD
ATOM     18  H   UNL     1      -8.173   0.238  -0.380  0.00  0.00    +0.141 HD
ENDBRANCH  14  16
ENDBRANCH  11  12
ENDBRANCH   6  11
TORSDOF 4
