REMARK  Name = ZINC37515037
REMARK  2 active torsions:
REMARK  status: ('A' for Active; 'I' for Inactive)
REMARK    1  A    between atoms: C_3  and  N_8
REMARK    2  A    between atoms: C_6  and  N_7
REMARK                            x       y       z     vdW  Elec       q    Type
REMARK                         _______ _______ _______ _____ _____    ______ ____
ROOT
ATOM      1  N   UNL     1       3.587   2.132  -0.022  0.00  0.00    -0.193 N 
ATOM      2  C   UNL     1       4.812   1.565   0.055  0.00  0.00    +0.248 C 
ATOM      3  O   UNL     1       5.072   0.393   0.230  0.00  0.00    -0.273 OA
ATOM      4  C   UNL     1       5.785   2.701  -0.124  0.00  0.00    +0.165 C 
ATOM      5  C   UNL     1       6.785   2.809   1.048  0.00  0.00    +0.037 C 
ATOM      6  C   UNL     1       7.063   4.328   1.053  0.00  0.00    +0.012 C 
ATOM      7  C   UNL     1       7.635   4.822   2.338  0.00  0.00    +0.005 C 
ATOM      8  C   UNL     1       6.615   5.527   3.227  0.00  0.00    +0.000 C 
ATOM      9  C   UNL     1       5.957   6.626   2.380  0.00  0.00    +0.002 C 
ATOM     10  C   UNL     1       5.079   5.945   1.339  0.00  0.00    +0.023 C 
ATOM     11  C   UNL     1       5.843   4.993   0.457  0.00  0.00    +0.082 C 
ATOM     12  N   UNL     1       4.922   3.898   0.058  0.00  0.00    -0.270 N 
ATOM     13  C   UNL     1       3.670   3.470  -0.114  0.00  0.00    +0.316 C 
ATOM     14  O   UNL     1       2.721   4.199  -0.323  0.00  0.00    -0.252 OA
ENDROOT
BRANCH   1  17
ATOM     15  C   UNL     1      -0.016   1.384   0.034  0.00  0.00    +0.024 A 
ATOM     16  C   UNL     1       1.170   2.091   0.026  0.00  0.00    +0.026 A 
ATOM     17  C   UNL     1       2.381   1.413  -0.013  0.00  0.00    +0.046 A 
ATOM     18  C   UNL     1       2.400   0.026  -0.045  0.00  0.00    +0.026 A 
ATOM     19  C   UNL     1       1.214  -0.681  -0.038  0.00  0.00    +0.024 A 
ATOM     20  C   UNL     1       0.002  -0.004   0.002  0.00  0.00    +0.025 A 
BRANCH  20  21
ATOM     21  N   UNL     1      -1.199  -0.720   0.010  0.00  0.00    -0.358 N 
ATOM     22  H   UNL     1      -2.046  -0.247   0.037  0.00  0.00    +0.142 HD
ATOM     23  H   UNL     1      -1.186  -1.690  -0.013  0.00  0.00    +0.142 HD
ENDBRANCH  20  21
ENDBRANCH   1  17
TORSDOF 2
