REMARK  Name = ZINC34682564
REMARK  8 active torsions:
REMARK  status: ('A' for Active; 'I' for Inactive)
REMARK    1  A    between atoms: C_1  and  C_2
REMARK    2  A    between atoms: C_2  and  C_3
REMARK    3  A    between atoms: C_2  and  C_4
REMARK    4  A    between atoms: C_7  and  C_10
REMARK    5  A    between atoms: C_10  and  N_11
REMARK    6  A    between atoms: C_14  and  N_17
REMARK    7  A    between atoms: N_17  and  C_18
REMARK    8  A    between atoms: C_25  and  C_27
REMARK                            x       y       z     vdW  Elec       q    Type
REMARK                         _______ _______ _______ _____ _____    ______ ____
ROOT
ATOM      1  N   UNL     1       2.915  -0.646   5.924  0.00  0.00    +0.382 N 
ATOM      2  C   UNL     1       1.476  -0.690   6.210  0.00  0.00    -0.077 C 
ATOM      3  C   UNL     1       1.147   0.281   7.347  0.00  0.00    +0.004 C 
ATOM      4  C   UNL     1       1.931  -0.124   8.599  0.00  0.00    +0.078 C 
ATOM      5  C   UNL     1       3.426  -0.147   8.268  0.00  0.00    +0.004 C 
ATOM      6  C   UNL     1       3.670  -1.102   7.097  0.00  0.00    -0.077 C 
ATOM      7  H   UNL     1       3.182   0.301   5.700  0.00  0.00    -0.081 HD
ENDROOT
BRANCH   4   8
ATOM      8  N   UNL     1       1.680   0.845   9.668  0.00  0.00    -0.262 N 
ATOM      9  C   UNL     1       1.010   0.468  10.775  0.00  0.00    +0.286 C 
ATOM     10  O   UNL     1       0.698   1.298  11.610  0.00  0.00    -0.266 OA
BRANCH   8  11
ATOM     11  C   UNL     1       2.137   2.161   9.541  0.00  0.00    +0.037 A 
ATOM     12  C   UNL     1       2.666   2.600   8.334  0.00  0.00    +0.026 A 
ATOM     13  C   UNL     1       3.116   3.900   8.210  0.00  0.00    +0.040 A 
ATOM     14  C   UNL     1       3.040   4.766   9.288  0.00  0.00    +0.124 A 
ATOM     15  C   UNL     1       2.513   4.330  10.492  0.00  0.00    +0.040 A 
ATOM     16  C   UNL     1       2.057   3.033  10.619  0.00  0.00    +0.026 A 
ATOM     17  F   UNL     1       3.481   6.037   9.165  0.00  0.00    -0.205 F 
ENDBRANCH   8  11
BRANCH   9  18
ATOM     18  C   UNL     1       0.656  -0.941  10.974  0.00  0.00    +0.190 A 
ATOM     19  C   UNL     1       0.082  -1.473  12.093  0.00  0.00    +0.054 A 
ATOM     20  C   UNL     1      -0.079  -2.846  11.849  0.00  0.00    +0.042 A 
ATOM     21  C   UNL     1       0.397  -3.088  10.608  0.00  0.00    +0.196 A 
ATOM     22  O   UNL     1       0.834  -1.937  10.082  0.00  0.00    -0.458 OA
ENDBRANCH   9  18
ENDBRANCH   4   8
BRANCH   1  23
ATOM     23  C   UNL     1       3.212  -1.520   4.782  0.00  0.00    -0.043 C 
BRANCH  23  27
ATOM     24  C   UNL     1       1.294   0.002   1.282  0.00  0.00    -0.045 A 
ATOM     25  C   UNL     1       2.575   0.411   1.601  0.00  0.00    +0.004 A 
ATOM     26  C   UNL     1       3.196  -0.082   2.734  0.00  0.00    +0.002 A 
ATOM     27  C   UNL     1       2.535  -0.983   3.548  0.00  0.00    -0.064 A 
ATOM     28  C   UNL     1       1.254  -1.391   3.229  0.00  0.00    +0.002 A 
ATOM     29  C   UNL     1       0.631  -0.895   2.099  0.00  0.00    +0.004 A 
BRANCH  24  31
ATOM     30  C   UNL     1       0.511   2.062   0.146  0.00  0.00    +0.012 C 
ATOM     31  C   UNL     1       0.617   0.539   0.048  0.00  0.00    +0.013 C 
ATOM     32  C   UNL     1       1.438   0.164  -1.188  0.00  0.00    +0.012 C 
ENDBRANCH  24  31
ENDBRANCH  23  27
ENDBRANCH   1  23
TORSDOF 6
