REMARK  Name = ZINC36206595
REMARK  16 active torsions:
REMARK  status: ('A' for Active; 'I' for Inactive)
REMARK    1  A    between atoms: C_1  and  C_2
REMARK    2  A    between atoms: C_2  and  C_3
REMARK    3  A    between atoms: C_3  and  C_4
REMARK    4  A    between atoms: C_4  and  C_6
REMARK    5  A    between atoms: C_4  and  O_33
REMARK    6  A    between atoms: C_6  and  N_7
REMARK    7  A    between atoms: N_7  and  C_8
REMARK    8  A    between atoms: N_7  and  C_13
REMARK    9  A    between atoms: C_8  and  C_9
REMARK   10  A    between atoms: C_9  and  C_10
REMARK   11  A    between atoms: C_10  and  C_11
REMARK   12  A    between atoms: C_10  and  C_12
REMARK   13  A    between atoms: C_13  and  C_14
REMARK   14  A    between atoms: C_20  and  C_25
REMARK   15  A    between atoms: C_30  and  O_31
REMARK   16  A    between atoms: O_31  and  C_32
REMARK                            x       y       z     vdW  Elec       q    Type
REMARK                         _______ _______ _______ _____ _____    ______ ____
ROOT
ATOM      1  C   UNL     1       0.671  -6.018   3.923  0.00  0.00    +0.094 A 
ATOM      2  N   UNL     1       0.589  -6.725   5.079  0.00  0.00    -0.312 N 
ATOM      3  H   UNL     1       1.054  -6.404   5.867  0.00  0.00    +0.170 HD
ATOM      4  C   UNL     1      -0.126  -7.863   5.153  0.00  0.00    +0.260 A 
ATOM      5  O   UNL     1      -0.190  -8.487   6.199  0.00  0.00    -0.267 OA
ATOM      6  C   UNL     1      -0.810  -8.330   3.986  0.00  0.00    +0.080 A 
ATOM      7  C   UNL     1      -1.638  -9.518   3.814  0.00  0.00    +0.007 A 
ATOM      8  C   UNL     1      -2.191  -9.758   2.601  0.00  0.00    +0.056 A 
ATOM      9  S   UNL     1      -1.624  -8.388   1.611  0.00  0.00    -0.076 S 
ATOM     10  C   UNL     1      -0.668  -7.533   2.838  0.00  0.00    +0.116 A 
ATOM     11  N   UNL     1       0.054  -6.415   2.843  0.00  0.00    -0.229 NA
ENDROOT
BRANCH   7  12
ATOM     12  C   UNL     1      -1.871 -10.446   4.947  0.00  0.00    +0.025 A 
ATOM     13  C   UNL     1      -1.381 -11.749   4.895  0.00  0.00    +0.012 A 
ATOM     14  C   UNL     1      -1.600 -12.609   5.952  0.00  0.00    +0.001 A 
ATOM     15  C   UNL     1      -2.305 -12.182   7.064  0.00  0.00    +0.004 A 
ATOM     16  C   UNL     1      -2.795 -10.891   7.125  0.00  0.00    +0.046 A 
ATOM     17  C   UNL     1      -2.577 -10.015   6.074  0.00  0.00    +0.128 A 
BRANCH  17  18
ATOM     18  O   UNL     1      -3.054  -8.744   6.136  0.00  0.00    -0.495 OA
ATOM     19  C   UNL     1      -3.766  -8.375   7.319  0.00  0.00    +0.277 C 
ENDBRANCH  17  18
ENDBRANCH   7  12
BRANCH   1  20
ATOM     20  C   UNL     1       1.483  -4.749   3.887  0.00  0.00    -0.003 C 
BRANCH  20  21
ATOM     21  N   UNL     1       1.473  -4.199   2.525  0.00  0.00    +0.386 N 
ATOM     22  H   UNL     1       0.519  -4.101   2.209  0.00  0.00    -0.081 HD
BRANCH  21  23
ATOM     23  C   UNL     1       2.127  -2.884   2.523  0.00  0.00    -0.047 C 
BRANCH  23  24
ATOM     24  C   UNL     1       1.994  -2.250   1.137  0.00  0.00    +0.098 C 
BRANCH  24  25
ATOM     25  O   UNL     1       2.766  -2.997   0.195  0.00  0.00    -0.394 OA
ATOM     26  H   UNL     1       3.710  -3.034   0.402  0.00  0.00    +0.210 HD
ENDBRANCH  24  25
BRANCH  24  27
ATOM     27  C   UNL     1       2.502  -0.808   1.185  0.00  0.00    +0.029 C 
BRANCH  27  29
ATOM     28  C   UNL     1       2.763   1.308  -0.119  0.00  0.00    +0.004 C 
ATOM     29  C   UNL     1       2.255  -0.135  -0.167  0.00  0.00    -0.001 C 
ENDBRANCH  27  29
ENDBRANCH  24  27
ENDBRANCH  23  24
ENDBRANCH  21  23
BRANCH  21  30
ATOM     30  C   UNL     1       2.196  -5.107   1.625  0.00  0.00    -0.078 C 
BRANCH  30  31
ATOM     31  C   UNL     1       3.676  -5.134   2.010  0.00  0.00    -0.016 C 
BRANCH  31  32
ATOM     32  C   UNL     1       4.449  -5.990   1.004  0.00  0.00    -0.019 C 
ATOM     33  C   UNL     1       5.945  -5.917   1.315  0.00  0.00    +0.007 C 
ATOM     34  C   UNL     1       3.978  -7.443   1.103  0.00  0.00    +0.007 C 
ENDBRANCH  31  32
ENDBRANCH  30  31
ENDBRANCH  21  30
ENDBRANCH  20  21
ENDBRANCH   1  20
TORSDOF 12
