REMARK  Name = ZINC41584761
REMARK  7 active torsions:
REMARK  status: ('A' for Active; 'I' for Inactive)
REMARK    1  A    between atoms: C_1  and  C_2
REMARK    2  A    between atoms: C_2  and  C_3
REMARK    3  A    between atoms: C_2  and  C_4
REMARK    4  A    between atoms: C_7  and  C_10
REMARK    5  A    between atoms: C_17  and  O_38
REMARK    6  A    between atoms: C_18  and  C_21
REMARK    7  A    between atoms: C_21  and  N_22
REMARK                            x       y       z     vdW  Elec       q    Type
REMARK                         _______ _______ _______ _____ _____    ______ ____
ROOT
ATOM      1  C   UNL     1      -5.390  -1.994   0.043  0.00  0.00    +0.058 C 
ATOM      2  C   UNL     1      -5.862  -2.693  -1.018  0.00  0.00    +0.176 C 
ATOM      3  C   UNL     1      -5.088  -3.114  -2.197  0.00  0.00    +0.231 C 
ATOM      4  O   UNL     1      -3.908  -2.913  -2.426  0.00  0.00    -0.283 OA
ATOM      5  C   UNL     1      -6.061  -3.834  -3.040  0.00  0.00    +0.068 A 
ATOM      6  C   UNL     1      -5.963  -4.471  -4.277  0.00  0.00    +0.019 A 
ATOM      7  C   UNL     1      -7.064  -5.067  -4.824  0.00  0.00    +0.046 A 
ATOM      8  C   UNL     1      -8.282  -5.040  -4.150  0.00  0.00    +0.122 A 
ATOM      9  C   UNL     1      -8.393  -4.410  -2.921  0.00  0.00    +0.020 A 
ATOM     10  C   UNL     1      -7.283  -3.799  -2.350  0.00  0.00    +0.144 A 
ATOM     11  O   UNL     1      -7.131  -3.136  -1.183  0.00  0.00    -0.451 OA
ENDROOT
BRANCH   1  15
ATOM     12  C   UNL     1      -1.485  -0.345  -0.075  0.00  0.00    -0.045 A 
ATOM     13  C   UNL     1      -1.958  -0.911   1.096  0.00  0.00    +0.004 A 
ATOM     14  C   UNL     1      -3.226  -1.450   1.143  0.00  0.00    +0.008 A 
ATOM     15  C   UNL     1      -4.036  -1.422   0.002  0.00  0.00    -0.021 A 
ATOM     16  C   UNL     1      -3.550  -0.847  -1.177  0.00  0.00    +0.008 A 
ATOM     17  C   UNL     1      -2.282  -0.308  -1.206  0.00  0.00    +0.004 A 
BRANCH  12  19
ATOM     18  C   UNL     1       0.014   1.363   0.917  0.00  0.00    +0.012 C 
ATOM     19  C   UNL     1      -0.097   0.241  -0.117  0.00  0.00    +0.013 C 
ATOM     20  C   UNL     1       0.927  -0.850   0.203  0.00  0.00    +0.012 C 
ENDBRANCH  12  19
ENDBRANCH   1  15
BRANCH   8  21
ATOM     21  O   UNL     1      -9.370  -5.635  -4.702  0.00  0.00    -0.506 OA
ATOM     22  H   UNL     1      -9.478  -6.564  -4.456  0.00  0.00    +0.292 HD
ENDBRANCH   8  21
BRANCH   9  23
ATOM     23  C   UNL     1      -9.718  -4.388  -2.203  0.00  0.00    -0.036 C 
BRANCH  23  24
ATOM     24  N   UNL     1      -9.823  -5.567  -1.333  0.00  0.00    +0.383 N 
ATOM     25  C   UNL     1     -11.160  -5.612  -0.734  0.00  0.00    -0.073 C 
ATOM     26  C   UNL     1     -11.313  -6.819   0.180  0.00  0.00    -0.007 C 
ATOM     27  C   UNL     1     -10.229  -6.820   1.262  0.00  0.00    +0.011 C 
ATOM     28  C   UNL     1      -8.871  -6.781   0.551  0.00  0.00    +0.020 C 
ATOM     29  C   UNL     1      -8.805  -5.486  -0.275  0.00  0.00    -0.069 C 
ATOM     30  C   UNL     1      -8.780  -7.949  -0.405  0.00  0.00    +0.023 A 
ATOM     31  C   UNL     1      -7.544  -8.450  -0.669  0.00  0.00    +0.022 A 
ATOM     32  C   UNL     1      -7.380  -9.488  -1.593  0.00  0.00    +0.007 A 
ATOM     33  C   UNL     1      -8.479  -9.972  -2.242  0.00  0.00    +0.070 A 
ATOM     34  C   UNL     1      -9.738  -9.431  -1.948  0.00  0.00    +0.251 A 
ATOM     35  O   UNL     1     -10.719  -9.813  -2.567  0.00  0.00    -0.268 OA
ATOM     36  N   UNL     1      -9.878  -8.488  -0.984  0.00  0.00    -0.312 N 
ATOM     37  C   UNL     1     -11.238  -8.125  -0.594  0.00  0.00    +0.126 C 
ATOM     38  H   UNL     1      -9.673  -6.402  -1.879  0.00  0.00    -0.081 HD
ENDBRANCH  23  24
ENDBRANCH   9  23
TORSDOF 5
