REMARK  Name = ZINC02450622
REMARK  3 active torsions:
REMARK  status: ('A' for Active; 'I' for Inactive)
REMARK    1  A    between atoms: C_6  and  C_7
REMARK    2  A    between atoms: N_13  and  C_14
REMARK    3  A    between atoms: C_18  and  C_20
REMARK                            x       y       z     vdW  Elec       q    Type
REMARK                         _______ _______ _______ _____ _____    ______ ____
ROOT
ATOM      1  C   UNL     1       2.496  -1.379  -0.030  0.00  0.00    +0.028 C 
ATOM      2  C   UNL     1       1.798  -0.229   0.145  0.00  0.00    +0.078 C 
ATOM      3  C   UNL     1       2.289   1.161   0.231  0.00  0.00    +0.256 C 
ATOM      4  O   UNL     1       3.475   1.423   0.145  0.00  0.00    -0.269 OA
ATOM      5  N   UNL     1       1.383   2.107   0.406  0.00  0.00    -0.260 N 
ATOM      6  C   UNL     1       0.045   1.790   0.502  0.00  0.00    +0.166 C 
ATOM      7  N   UNL     1      -0.977   2.599   0.669  0.00  0.00    -0.226 NA
ATOM      8  S   UNL     1       0.038   0.012   0.334  0.00  0.00    -0.049 S 
ATOM      9  H   UNL     1       1.662   3.034   0.468  0.00  0.00    +0.157 HD
ENDROOT
BRANCH   1  15
ATOM     10  C   UNL     1       2.410  -3.830  -0.441  0.00  0.00    +0.011 A 
ATOM     11  C   UNL     1       1.767  -5.044  -0.328  0.00  0.00    +0.039 A 
ATOM     12  C   UNL     1       0.528  -5.122   0.289  0.00  0.00    +0.123 A 
ATOM     13  C   UNL     1      -0.071  -3.981   0.803  0.00  0.00    +0.039 A 
ATOM     14  C   UNL     1       0.563  -2.762   0.703  0.00  0.00    +0.011 A 
ATOM     15  C   UNL     1       1.814  -2.676   0.081  0.00  0.00    -0.024 A 
ATOM     16  F   UNL     1      -0.099  -6.314   0.391  0.00  0.00    -0.205 F 
ENDBRANCH   1  15
BRANCH   7  17
ATOM     17  C   UNL     1      -2.247   2.092   0.735  0.00  0.00    +0.067 A 
ATOM     18  C   UNL     1      -2.666   1.128  -0.184  0.00  0.00    +0.029 A 
ATOM     19  C   UNL     1      -3.945   0.618  -0.109  0.00  0.00    +0.022 A 
ATOM     20  C   UNL     1      -4.817   1.069   0.868  0.00  0.00    +0.053 A 
ATOM     21  C   UNL     1      -4.410   2.029   1.779  0.00  0.00    +0.075 A 
ATOM     22  C   UNL     1      -3.131   2.543   1.718  0.00  0.00    +0.041 A 
ATOM     23 CL   UNL     1      -6.428   0.428   0.951  0.00  0.00    -0.083 Cl
BRANCH  21  24
ATOM     24  C   UNL     1      -5.365   2.514   2.838  0.00  0.00    +0.419 C 
ATOM     25  F   UNL     1      -4.731   3.475   3.633  0.00  0.00    -0.166 F 
ATOM     26  F   UNL     1      -6.489   3.080   2.228  0.00  0.00    -0.166 F 
ATOM     27  F   UNL     1      -5.762   1.436   3.637  0.00  0.00    -0.166 F 
ENDBRANCH  21  24
ENDBRANCH   7  17
TORSDOF 3
