REMARK  Name = ZINC37443199
REMARK  5 active torsions:
REMARK  status: ('A' for Active; 'I' for Inactive)
REMARK    1  A    between atoms: C_1  and  C_2
REMARK    2  A    between atoms: C_8  and  N_10
REMARK    3  A    between atoms: C_11  and  C_13
REMARK    4  A    between atoms: C_13  and  C_32
REMARK    5  A    between atoms: N_25  and  C_26
REMARK                            x       y       z     vdW  Elec       q    Type
REMARK                         _______ _______ _______ _____ _____    ______ ____
ROOT
ATOM      1  C   UNL     1       0.141   0.516   4.640  0.00  0.00    +0.129 C 
ATOM      2  C   UNL     1      -0.318  -0.768   5.330  0.00  0.00    +0.157 C 
ATOM      3  N   UNL     1      -1.617  -1.167   4.783  0.00  0.00    -0.333 N 
ATOM      4  C   UNL     1      -2.158  -2.435   4.666  0.00  0.00    +0.057 A 
ATOM      5  C   UNL     1      -1.806  -3.764   4.944  0.00  0.00    +0.034 A 
ATOM      6  C   UNL     1      -2.666  -4.766   4.666  0.00  0.00    +0.048 A 
ATOM      7  S   UNL     1      -4.066  -3.901   3.977  0.00  0.00    -0.095 S 
ATOM      8  C   UNL     1      -3.427  -2.250   4.096  0.00  0.00    +0.038 A 
ATOM      9  C   UNL     1      -3.642  -0.896   3.870  0.00  0.00    +0.048 A 
ATOM     10  C   UNL     1      -2.524  -0.236   4.287  0.00  0.00    +0.106 A 
ATOM     11  C   UNL     1      -2.194   1.194   4.265  0.00  0.00    +0.264 C 
ATOM     12  O   UNL     1      -3.026   2.041   3.996  0.00  0.00    -0.268 OA
ATOM     13  N   UNL     1      -0.914   1.519   4.560  0.00  0.00    -0.278 N 
ATOM     14  C   UNL     1       1.320   1.099   5.421  0.00  0.00    +0.043 C 
ENDROOT
BRANCH  13  15
ATOM     15  C   UNL     1      -0.577   2.924   4.807  0.00  0.00    +0.078 C 
ATOM     16  C   UNL     1      -1.474   3.475   5.917  0.00  0.00    +0.022 C 
ATOM     17  C   UNL     1      -1.122   4.942   6.175  0.00  0.00    +0.002 C 
ATOM     18  C   UNL     1      -1.340   5.751   4.895  0.00  0.00    +0.000 C 
ATOM     19  C   UNL     1      -0.444   5.199   3.784  0.00  0.00    +0.002 C 
ATOM     20  C   UNL     1      -0.795   3.733   3.527  0.00  0.00    +0.022 C 
ENDBRANCH  13  15
BRANCH   1  22
ATOM     21  N   UNL     1      -0.284   0.168   2.228  0.00  0.00    -0.310 N 
ATOM     22  C   UNL     1       0.601   0.181   3.244  0.00  0.00    +0.238 C 
ATOM     23  O   UNL     1       1.767  -0.077   3.036  0.00  0.00    -0.273 OA
ATOM     24  H   UNL     1      -1.217   0.375   2.395  0.00  0.00    +0.149 HD
BRANCH  21  31
ATOM     25  C   UNL     1      -0.801   1.992   0.038  0.00  0.00    +0.009 C 
ATOM     26  C   UNL     1      -0.792   0.473  -0.145  0.00  0.00    +0.006 C 
ATOM     27  C   UNL     1      -2.203  -0.076   0.072  0.00  0.00    +0.005 C 
ATOM     28  C   UNL     1      -2.194  -1.595  -0.111  0.00  0.00    +0.000 C 
ATOM     29  C   UNL     1      -1.239  -2.225   0.906  0.00  0.00    +0.002 C 
ATOM     30  C   UNL     1       0.172  -1.676   0.688  0.00  0.00    +0.022 C 
ATOM     31  C   UNL     1       0.163  -0.157   0.871  0.00  0.00    +0.076 C 
ENDBRANCH  21  31
ENDBRANCH   1  22
TORSDOF 3
