REMARK  Name = ZINC30976355
REMARK  10 active torsions:
REMARK  status: ('A' for Active; 'I' for Inactive)
REMARK    1  A    between atoms: C_1  and  C_2
REMARK    2  A    between atoms: C_2  and  C_3
REMARK    3  A    between atoms: C_3  and  C_5
REMARK    4  A    between atoms: C_3  and  N_12
REMARK    5  A    between atoms: C_8  and  C_11
REMARK    6  A    between atoms: C_13  and  C_15
REMARK    7  A    between atoms: N_18  and  C_21
REMARK    8  A    between atoms: C_21  and  C_22
REMARK    9  A    between atoms: C_24  and  C_27
REMARK   10  A    between atoms: C_30  and  C_33
REMARK                            x       y       z     vdW  Elec       q    Type
REMARK                         _______ _______ _______ _____ _____    ______ ____
ROOT
ATOM      1  C   UNL     1      -5.450   1.592   2.397  0.00  0.00    +0.071 C 
ATOM      2  C   UNL     1      -4.706   2.182   3.599  0.00  0.00    -0.006 C 
ATOM      3  C   UNL     1      -5.717   2.810   4.561  0.00  0.00    -0.077 C 
ATOM      4  N   UNL     1      -6.671   1.787   5.007  0.00  0.00    +0.386 N 
ATOM      5  C   UNL     1      -7.431   1.240   3.876  0.00  0.00    -0.077 C 
ATOM      6  C   UNL     1      -6.472   0.565   2.894  0.00  0.00    -0.006 C 
ATOM      7  H   UNL     1      -6.095   0.963   5.453  0.00  0.00    -0.081 HD
ENDROOT
BRANCH   1   9
ATOM      8  N   UNL     1      -3.470   1.634   0.915  0.00  0.00    -0.308 N 
ATOM      9  C   UNL     1      -4.466   0.919   1.476  0.00  0.00    +0.216 C 
ATOM     10  O   UNL     1      -4.570  -0.266   1.238  0.00  0.00    -0.276 OA
ATOM     11  H   UNL     1      -3.376   2.708   1.131  0.00  0.00    +0.149 HD
BRANCH   8  12
ATOM     12  C   UNL     1      -2.514   0.980   0.019  0.00  0.00    +0.103 C 
BRANCH  12  13
ATOM     13  C   UNL     1      -1.219   1.751   0.017  0.00  0.00    -0.027 A 
ATOM     14  C   UNL     1      -0.013   1.076   0.008  0.00  0.00    +0.006 A 
ATOM     15  C   UNL     1       1.175   1.783   0.000  0.00  0.00    +0.004 A 
ATOM     16  C   UNL     1       1.156   3.165   0.008  0.00  0.00    -0.050 A 
ATOM     17  C   UNL     1      -0.050   3.840   0.022  0.00  0.00    +0.004 A 
ATOM     18  C   UNL     1      -1.238   3.133   0.029  0.00  0.00    +0.006 A 
ATOM     19  C   UNL     1       2.451   3.937   0.000  0.00  0.00    +0.044 C 
ENDBRANCH  12  13
BRANCH  12  21
ATOM     20  C   UNL     1      -4.334   0.055  -1.421  0.00  0.00    +0.006 C 
ATOM     21  C   UNL     1      -3.087   0.941  -1.399  0.00  0.00    +0.024 C 
ENDBRANCH  12  21
ENDBRANCH   8  12
ENDBRANCH   1   9
BRANCH   4  22
ATOM     22  C   UNL     1      -7.571   2.321   6.038  0.00  0.00    +0.022 C 
BRANCH  22  23
ATOM     23  C   UNL     1      -6.779   2.646   7.278  0.00  0.00    +0.211 A 
ATOM     24  N   UNL     1      -6.204   3.790   7.557  0.00  0.00    -0.193 NA
ATOM     25  C   UNL     1      -5.616   3.616   8.762  0.00  0.00    +0.202 A 
ATOM     26  N   UNL     1      -5.866   2.390   9.140  0.00  0.00    -0.056 NA
ATOM     27  O   UNL     1      -6.535   1.823   8.302  0.00  0.00    -0.340 OA
BRANCH  25  28
ATOM     28  C   UNL     1      -4.834   4.629   9.514  0.00  0.00    +0.022 A 
ATOM     29  C   UNL     1      -4.643   5.902   8.982  0.00  0.00    +0.012 A 
ATOM     30  C   UNL     1      -3.919   6.841   9.688  0.00  0.00    +0.004 A 
ATOM     31  C   UNL     1      -3.374   6.516  10.917  0.00  0.00    -0.050 A 
ATOM     32  C   UNL     1      -3.556   5.252  11.448  0.00  0.00    +0.004 A 
ATOM     33  C   UNL     1      -4.283   4.307  10.753  0.00  0.00    +0.012 A 
ATOM     34  C   UNL     1      -2.579   7.544  11.681  0.00  0.00    +0.044 C 
ENDBRANCH  25  28
ENDBRANCH  22  23
ENDBRANCH   4  22
TORSDOF 7
