REMARK  Name = ZINC21809680
REMARK  6 active torsions:
REMARK  status: ('A' for Active; 'I' for Inactive)
REMARK    1  A    between atoms: C_1  and  C_2
REMARK    2  A    between atoms: C_2  and  C_3
REMARK    3  A    between atoms: C_3  and  N_4
REMARK    4  A    between atoms: C_13  and  C_14
REMARK    5  A    between atoms: C_13  and  C_15
REMARK    6  A    between atoms: N_17  and  C_18
REMARK                            x       y       z     vdW  Elec       q    Type
REMARK                         _______ _______ _______ _____ _____    ______ ____
ROOT
ATOM      1  N   UNL     1       4.092   1.194   5.808  0.00  0.00    -0.281 N 
ATOM      2  C   UNL     1       4.640   1.164   7.046  0.00  0.00    +0.264 C 
ATOM      3  O   UNL     1       4.891   0.117   7.612  0.00  0.00    -0.268 OA
ATOM      4  C   UNL     1       4.917   2.466   7.667  0.00  0.00    +0.106 A 
ATOM      5  C   UNL     1       5.604   2.782   8.800  0.00  0.00    +0.048 A 
ATOM      6  C   UNL     1       5.568   4.166   8.929  0.00  0.00    +0.038 A 
ATOM      7  C   UNL     1       4.835   4.717   7.867  0.00  0.00    +0.057 A 
ATOM      8  N   UNL     1       4.428   3.639   7.102  0.00  0.00    -0.333 N 
ATOM      9  C   UNL     1       3.607   3.630   5.889  0.00  0.00    +0.157 C 
ATOM     10  C   UNL     1       3.997   2.425   5.033  0.00  0.00    +0.128 C 
ATOM     11  C   UNL     1       5.351   2.703   4.378  0.00  0.00    +0.043 C 
ATOM     12  C   UNL     1       4.721   6.114   7.870  0.00  0.00    +0.034 A 
ATOM     13  C   UNL     1       5.292   6.840   8.854  0.00  0.00    +0.048 A 
ATOM     14  S   UNL     1       6.051   5.588   9.873  0.00  0.00    -0.095 S 
ENDROOT
BRANCH  10  15
ATOM     15  C   UNL     1       2.963   2.240   3.952  0.00  0.00    +0.238 C 
ATOM     16  O   UNL     1       3.212   2.572   2.812  0.00  0.00    -0.273 OA
ATOM     17  N   UNL     1       1.763   1.706   4.251  0.00  0.00    -0.311 N 
ATOM     18  H   UNL     1       1.566   1.328   5.266  0.00  0.00    +0.149 HD
BRANCH  17  19
ATOM     19  C   UNL     1       0.719   1.628   3.226  0.00  0.00    +0.073 C 
ATOM     20  C   UNL     1       0.893   0.367   2.422  0.00  0.00    +0.022 C 
ATOM     21  C   UNL     1       0.488   0.548   0.947  0.00  0.00    +0.002 C 
ATOM     22  C   UNL     1      -0.802   1.374   0.778  0.00  0.00    +0.000 C 
ATOM     23  C   UNL     1      -1.855   1.009   1.788  0.00  0.00    +0.000 C 
ATOM     24  C   UNL     1      -1.737   1.971   2.989  0.00  0.00    +0.002 C 
ATOM     25  C   UNL     1      -0.668   1.592   3.900  0.00  0.00    +0.022 C 
ENDBRANCH  17  19
ENDBRANCH  10  15
BRANCH   1  26
ATOM     26  C   UNL     1       3.579  -0.051   5.231  0.00  0.00    +0.109 C 
BRANCH  26  28
ATOM     27  C   UNL     1       4.190  -2.121   3.973  0.00  0.00    +0.005 C 
ATOM     28  C   UNL     1       4.727  -0.822   4.577  0.00  0.00    +0.016 C 
ENDBRANCH  26  28
ENDBRANCH   1  26
TORSDOF 4
