REMARK  Name = ZINC25071837
REMARK  8 active torsions:
REMARK  status: ('A' for Active; 'I' for Inactive)
REMARK    1  A    between atoms: C_1  and  C_2
REMARK    2  A    between atoms: C_4  and  C_23
REMARK    3  A    between atoms: C_6  and  N_8
REMARK    4  A    between atoms: N_8  and  C_9
REMARK    5  A    between atoms: C_9  and  C_11
REMARK    6  A    between atoms: C_9  and  C_12
REMARK    7  A    between atoms: N_17  and  C_18
REMARK    8  A    between atoms: C_18  and  C_19
REMARK                            x       y       z     vdW  Elec       q    Type
REMARK                         _______ _______ _______ _____ _____    ______ ____
ROOT
ATOM      1  C   UNL     1      -2.143   1.058   1.278  0.00  0.00    +0.240 C 
ATOM      2  O   UNL     1      -2.521   0.350   2.187  0.00  0.00    -0.273 OA
ATOM      3  N   UNL     1      -2.986   1.377   0.276  0.00  0.00    -0.239 N 
ATOM      4  C   UNL     1      -4.251   0.911   0.286  0.00  0.00    +0.306 C 
ATOM      5  O   UNL     1      -4.630   0.202   1.197  0.00  0.00    -0.252 OA
ATOM      6  N   UNL     1      -5.095   1.230  -0.715  0.00  0.00    -0.291 N 
ATOM      7  H   UNL     1      -2.643   2.019  -0.548  0.00  0.00    +0.159 HD
ATOM      8  H   UNL     1      -4.751   1.872  -1.540  0.00  0.00    +0.151 HD
ENDROOT
BRANCH   1   9
ATOM      9  C   UNL     1      -0.729   1.579   1.267  0.00  0.00    +0.154 C 
ATOM     10  C   UNL     1      -0.013   1.086   0.008  0.00  0.00    +0.038 C 
BRANCH   9  11
ATOM     11  N   UNL     1      -0.020   1.094   2.454  0.00  0.00    -0.333 N 
ATOM     12  H   UNL     1      -0.347   0.168   2.949  0.00  0.00    +0.147 HD
BRANCH  11  18
ATOM     13  C   UNL     1       3.013   4.949   2.155  0.00  0.00    +0.044 C 
ATOM     14  C   UNL     1       2.563   3.680   2.832  0.00  0.00    -0.048 A 
ATOM     15  C   UNL     1       3.231   3.220   3.952  0.00  0.00    +0.006 A 
ATOM     16  C   UNL     1       2.821   2.056   4.576  0.00  0.00    -0.048 A 
ATOM     17  C   UNL     1       1.743   1.349   4.082  0.00  0.00    +0.026 A 
ATOM     18  C   UNL     1       1.070   1.807   2.957  0.00  0.00    +0.028 A 
ATOM     19  C   UNL     1       1.488   2.974   2.329  0.00  0.00    +0.026 A 
ATOM     20  C   UNL     1       3.552   1.560   5.797  0.00  0.00    +0.044 C 
ENDBRANCH  11  18
ENDBRANCH   9  11
ENDBRANCH   1   9
BRANCH   6  21
ATOM     21  C   UNL     1      -6.469   0.723  -0.705  0.00  0.00    +0.219 C 
BRANCH  21  22
ATOM     22  C   UNL     1      -7.209   1.230  -1.944  0.00  0.00    +0.405 C 
ATOM     23  F   UNL     1      -6.554   0.779  -3.095  0.00  0.00    -0.169 F 
ATOM     24  F   UNL     1      -8.522   0.746  -1.934  0.00  0.00    -0.169 F 
ATOM     25  F   UNL     1      -7.228   2.629  -1.937  0.00  0.00    -0.169 F 
ENDBRANCH  21  22
ENDBRANCH   6  21
TORSDOF 5
