REMARK  Name = ZINC66976131
REMARK  11 active torsions:
REMARK  status: ('A' for Active; 'I' for Inactive)
REMARK    1  A    between atoms: C_1  and  N_2
REMARK    2  A    between atoms: N_2  and  C_3
REMARK    3  A    between atoms: N_2  and  C_4
REMARK    4  A    between atoms: C_4  and  C_6
REMARK    5  A    between atoms: C_4  and  C_23
REMARK    6  A    between atoms: C_6  and  N_7
REMARK    7  A    between atoms: N_10  and  C_11
REMARK    8  A    between atoms: C_11  and  C_12
REMARK    9  A    between atoms: C_12  and  O_22
REMARK   10  A    between atoms: C_28  and  O_29
REMARK   11  A    between atoms: O_29  and  C_30
REMARK                            x       y       z     vdW  Elec       q    Type
REMARK                         _______ _______ _______ _____ _____    ______ ____
ROOT
ATOM      1  N   UNL     1      -1.461   1.217  -1.560  0.00  0.00    -0.301 N 
ATOM      2  C   UNL     1      -1.942   1.876  -2.632  0.00  0.00    +0.300 C 
ATOM      3  O   UNL     1      -2.594   1.282  -3.469  0.00  0.00    -0.253 OA
ATOM      4  N   UNL     1      -1.701   3.194  -2.777  0.00  0.00    -0.296 N 
ATOM      5  H   UNL     1      -0.941   1.691  -0.892  0.00  0.00    +0.150 HD
ATOM      6  H   UNL     1      -1.181   3.668  -2.109  0.00  0.00    +0.150 HD
ENDROOT
BRANCH   1   7
ATOM      7  C   UNL     1      -1.724  -0.216  -1.403  0.00  0.00    +0.095 C 
BRANCH   7   8
ATOM      8  C   UNL     1      -0.971  -0.741  -0.178  0.00  0.00    -0.017 C 
BRANCH   8   9
ATOM      9  C   UNL     1       0.513  -0.626  -0.412  0.00  0.00    -0.018 A 
ATOM     10  C   UNL     1       1.221   0.423   0.141  0.00  0.00    +0.005 A 
ATOM     11  C   UNL     1       2.583   0.529  -0.074  0.00  0.00    +0.000 A 
ATOM     12  C   UNL     1       3.239  -0.414  -0.843  0.00  0.00    +0.004 A 
ATOM     13  C   UNL     1       2.535  -1.465  -1.399  0.00  0.00    +0.046 A 
ATOM     14  C   UNL     1       1.170  -1.577  -1.180  0.00  0.00    +0.122 A 
BRANCH  14  15
ATOM     15  O   UNL     1       0.476  -2.613  -1.721  0.00  0.00    -0.495 OA
ATOM     16  C   UNL     1       1.218  -3.554  -2.499  0.00  0.00    +0.277 C 
ENDBRANCH  14  15
ENDBRANCH   8   9
BRANCH   8  18
ATOM     17  C   UNL     1      -2.805   0.046   1.154  0.00  0.00    -0.096 C 
ATOM     18  N   UNL     1      -1.343   0.051   1.002  0.00  0.00    +0.382 N 
ATOM     19  C   UNL     1      -0.725  -0.533   2.199  0.00  0.00    -0.096 C 
ATOM     20  H   UNL     1      -1.021   1.000   0.885  0.00  0.00    -0.082 HD
ENDBRANCH   8  18
ENDBRANCH   7   8
ENDBRANCH   1   7
BRANCH   4  21
ATOM     21  C   UNL     1      -2.224   3.911  -3.942  0.00  0.00    +0.145 C 
BRANCH  21  22
ATOM     22  C   UNL     1      -1.706   5.351  -3.930  0.00  0.00    +0.107 C 
ATOM     23  C   UNL     1      -0.179   5.337  -3.930  0.00  0.00    +0.041 C 
ATOM     24  C   UNL     1       0.318   6.772  -4.138  0.00  0.00    +0.008 C 
ATOM     25  C   UNL     1       0.002   7.188  -5.573  0.00  0.00    +0.035 C 
ATOM     26  C   UNL     1      -1.446   6.924  -5.894  0.00  0.00    -0.041 A 
ATOM     27  C   UNL     1      -2.229   6.077  -5.142  0.00  0.00    -0.011 A 
ATOM     28  C   UNL     1      -3.556   5.871  -5.496  0.00  0.00    +0.007 A 
ATOM     29  C   UNL     1      -4.097   6.511  -6.592  0.00  0.00    +0.000 A 
ATOM     30  C   UNL     1      -3.312   7.364  -7.345  0.00  0.00    +0.000 A 
ATOM     31  C   UNL     1      -1.992   7.568  -6.996  0.00  0.00    +0.004 A 
BRANCH  22  32
ATOM     32  O   UNL     1      -2.170   6.008  -2.750  0.00  0.00    -0.382 OA
ATOM     33  H   UNL     1      -3.134   6.049  -2.675  0.00  0.00    +0.211 HD
ENDBRANCH  22  32
ENDBRANCH  21  22
ENDBRANCH   4  21
TORSDOF 8
