REMARK  Name = ZINC35231884
REMARK  4 active torsions:
REMARK  status: ('A' for Active; 'I' for Inactive)
REMARK    1  A    between atoms: C_6  and  C_7
REMARK    2  A    between atoms: C_7  and  N_8
REMARK    3  A    between atoms: N_8  and  C_9
REMARK    4  A    between atoms: C_14  and  N_15
REMARK                            x       y       z     vdW  Elec       q    Type
REMARK                         _______ _______ _______ _____ _____    ______ ____
ROOT
ATOM      1  N   UNL     1      -1.493  -1.476  -1.454  0.00  0.00    -0.338 N 
ATOM      2  H   UNL     1      -0.964  -1.170  -2.207  0.00  0.00    +0.146 HD
ENDROOT
BRANCH   1   3
ATOM      3  C   UNL     1      -2.792  -1.948  -1.659  0.00  0.00    +0.058 A 
ATOM      4  C   UNL     1      -3.507  -2.499  -0.603  0.00  0.00    +0.026 A 
ATOM      5  C   UNL     1      -4.791  -2.964  -0.808  0.00  0.00    +0.017 A 
ATOM      6  C   UNL     1      -5.366  -2.881  -2.064  0.00  0.00    +0.020 A 
ATOM      7  C   UNL     1      -4.656  -2.332  -3.118  0.00  0.00    +0.050 A 
ATOM      8  C   UNL     1      -3.374  -1.860  -2.917  0.00  0.00    +0.148 A 
ATOM      9 BR   UNL     1      -7.124  -3.519  -2.342  0.00  0.00    -0.050 Br
BRANCH   8  10
ATOM     10  N   UNL     1      -2.618  -1.267  -4.043  0.00  0.00    +0.058 N 
ATOM     11  O   UNL     1      -1.897  -0.316  -3.852  0.00  0.00    -0.126 OA
ATOM     12  O   UNL     1      -2.721  -1.734  -5.153  0.00  0.00    -0.126 OA
ENDBRANCH   8  10
ENDBRANCH   1   3
BRANCH   1  13
ATOM     13  C   UNL     1      -0.930  -1.445  -0.102  0.00  0.00    +0.137 C 
BRANCH  13  19
ATOM     14  C   UNL     1       0.691   0.460  -0.027  0.00  0.00    +0.006 A 
ATOM     15  C   UNL     1       1.978   0.962  -0.076  0.00  0.00    +0.015 A 
ATOM     16  C   UNL     1       3.049   0.103  -0.252  0.00  0.00    +0.018 A 
ATOM     17  C   UNL     1       2.830  -1.257  -0.380  0.00  0.00    +0.015 A 
ATOM     18  C   UNL     1       1.543  -1.757  -0.331  0.00  0.00    +0.006 A 
ATOM     19  C   UNL     1       0.474  -0.899  -0.155  0.00  0.00    -0.030 A 
ATOM     20 BR   UNL     1       4.810   0.789  -0.319  0.00  0.00    -0.050 Br
ENDBRANCH  13  19
ENDBRANCH   1  13
TORSDOF 4
