REMARK  Name = ZINC02963223
REMARK  7 active torsions:
REMARK  status: ('A' for Active; 'I' for Inactive)
REMARK    1  A    between atoms: C_1  and  C_2
REMARK    2  A    between atoms: C_2  and  C_3
REMARK    3  A    between atoms: C_3  and  C_4
REMARK    4  A    between atoms: C_4  and  O_5
REMARK    5  A    between atoms: O_5  and  C_6
REMARK    6  A    between atoms: C_9  and  C_12
REMARK    7  A    between atoms: C_17  and  C_30
REMARK                            x       y       z     vdW  Elec       q    Type
REMARK                         _______ _______ _______ _____ _____    ______ ____
ROOT
ATOM      1  C   UNL     1       3.923   5.603  -3.655  0.00  0.00    +0.031 C 
ATOM      2  C   UNL     1       2.557   6.128  -3.201  0.00  0.00    +0.045 C 
ATOM      3  C   UNL     1       2.265   5.645  -1.806  0.00  0.00    -0.029 C 
ATOM      4  C   UNL     1       2.741   4.431  -1.399  0.00  0.00    +0.023 C 
ATOM      5  C   UNL     1       2.450   3.935  -0.001  0.00  0.00    +0.135 C 
ATOM      6  N   UNL     1       2.340   5.093   0.895  0.00  0.00    -0.332 N 
ATOM      7  C   UNL     1       1.573   6.168   0.464  0.00  0.00    +0.036 A 
ATOM      8  C   UNL     1       1.496   6.431  -0.915  0.00  0.00    +0.007 A 
ATOM      9  C   UNL     1       0.621   7.514  -1.360  0.00  0.00    -0.009 A 
ATOM     10  C   UNL     1       0.345   7.766  -2.706  0.00  0.00    +0.009 A 
ATOM     11  C   UNL     1      -0.448   8.820  -3.062  0.00  0.00    +0.001 A 
ATOM     12  C   UNL     1      -0.977   9.673  -2.100  0.00  0.00    +0.001 A 
ATOM     13  C   UNL     1      -0.749   9.450  -0.777  0.00  0.00    +0.008 A 
ATOM     14  C   UNL     1       0.015   8.341  -0.377  0.00  0.00    -0.017 A 
ATOM     15  C   UNL     1       0.178   8.046   0.990  0.00  0.00    +0.010 A 
ATOM     16  C   UNL     1       0.918   6.980   1.388  0.00  0.00    +0.024 A 
ATOM     17  C   UNL     1       3.504   3.619  -2.250  0.00  0.00    +0.162 C 
ATOM     18  O   UNL     1       3.873   2.527  -1.865  0.00  0.00    -0.292 OA
ATOM     19  C   UNL     1       3.879   4.072  -3.635  0.00  0.00    +0.088 C 
ATOM     20  H   UNL     1       2.785   5.107   1.754  0.00  0.00    +0.147 HD
ENDROOT
BRANCH   5  21
ATOM     21  C   UNL     1       1.156   3.166   0.007  0.00  0.00    -0.023 A 
ATOM     22  C   UNL     1       1.175   1.783   0.000  0.00  0.00    +0.008 A 
ATOM     23  C   UNL     1      -0.013   1.076   0.008  0.00  0.00    +0.038 A 
ATOM     24  C   UNL     1      -1.221   1.752   0.017  0.00  0.00    +0.123 A 
ATOM     25  C   UNL     1      -1.238   3.136   0.030  0.00  0.00    +0.038 A 
ATOM     26  C   UNL     1      -0.050   3.842   0.022  0.00  0.00    +0.008 A 
ATOM     27  F   UNL     1      -2.382   1.062   0.019  0.00  0.00    -0.205 F 
ENDBRANCH   5  21
BRANCH   1  31
ATOM     28  C   UNL     1       4.743   6.969  -7.620  0.00  0.00    +0.121 A 
ATOM     29  C   UNL     1       5.592   7.311  -6.578  0.00  0.00    +0.046 A 
ATOM     30  C   UNL     1       5.325   6.869  -5.297  0.00  0.00    +0.007 A 
ATOM     31  C   UNL     1       4.212   6.085  -5.053  0.00  0.00    -0.043 A 
ATOM     32  C   UNL     1       3.367   5.738  -6.091  0.00  0.00    +0.007 A 
ATOM     33  C   UNL     1       3.627   6.183  -7.373  0.00  0.00    +0.046 A 
BRANCH  28  34
ATOM     34  O   UNL     1       5.004   7.402  -8.882  0.00  0.00    -0.492 OA
BRANCH  34  35
ATOM     35  C   UNL     1       4.087   7.011  -9.905  0.00  0.00    +0.229 C 
BRANCH  35  36
ATOM     36  C   UNL     1       4.542   7.589 -11.246  0.00  0.00    +0.041 C 
BRANCH  36  38
ATOM     37  C   UNL     1       4.015   7.749 -13.683  0.00  0.00    +0.004 C 
ATOM     38  C   UNL     1       3.560   7.171 -12.342  0.00  0.00    -0.000 C 
ENDBRANCH  36  38
ENDBRANCH  35  36
ENDBRANCH  34  35
ENDBRANCH  28  34
ENDBRANCH   1  31
TORSDOF 6
