REMARK  Name = ZINC40986195
REMARK  13 active torsions:
REMARK  status: ('A' for Active; 'I' for Inactive)
REMARK    1  A    between atoms: C_1  and  C_2
REMARK    2  A    between atoms: C_2  and  C_3
REMARK    3  A    between atoms: C_3  and  S_4
REMARK    4  A    between atoms: S_4  and  C_7
REMARK    5  A    between atoms: C_10  and  C_14
REMARK    6  A    between atoms: N_16  and  C_17
REMARK    7  A    between atoms: C_17  and  C_18
REMARK    8  A    between atoms: C_18  and  C_20
REMARK    9  A    between atoms: C_18  and  N_30
REMARK   10  A    between atoms: C_23  and  C_26
REMARK   11  A    between atoms: C_26  and  C_27
REMARK   12  A    between atoms: C_26  and  C_28
REMARK   13  A    between atoms: C_26  and  C_29
REMARK                            x       y       z     vdW  Elec       q    Type
REMARK                         _______ _______ _______ _____ _____    ______ ____
ROOT
ATOM      1  C   UNL     1       3.543  -4.237  -8.606  0.00  0.00    +0.094 C 
ENDROOT
BRANCH   1   4
ATOM      2  C   UNL     1       5.574  -2.970  -8.150  0.00  0.00    +0.248 C 
ATOM      3  O   UNL     1       5.593  -3.458  -7.037  0.00  0.00    -0.270 OA
ATOM      4  N   UNL     1       4.589  -3.296  -9.012  0.00  0.00    -0.312 N 
ATOM      5  H   UNL     1       4.574  -2.907  -9.900  0.00  0.00    +0.149 HD
BRANCH   2   9
ATOM      6  C   UNL     1       8.543  -0.299  -9.301  0.00  0.00    +0.272 A 
ATOM      7  N   UNL     1       7.590  -0.603 -10.160  0.00  0.00    -0.219 NA
ATOM      8  C   UNL     1       6.627  -1.448  -9.836  0.00  0.00    +0.130 A 
ATOM      9  C   UNL     1       6.629  -2.021  -8.560  0.00  0.00    +0.092 A 
ATOM     10  C   UNL     1       7.662  -1.669  -7.680  0.00  0.00    +0.146 A 
ATOM     11  N   UNL     1       8.589  -0.818  -8.091  0.00  0.00    -0.199 NA
ATOM     12 CL   UNL     1       7.728  -2.341  -6.081  0.00  0.00    -0.061 Cl
BRANCH   6  13
ATOM     13  S   UNL     1       9.802   0.834  -9.791  0.00  0.00    +0.032 S 
ATOM     14  O   UNL     1      10.265   1.408  -8.577  0.00  0.00    -0.166 OA
ATOM     15  O   UNL     1       9.194   1.642 -10.789  0.00  0.00    -0.166 OA
BRANCH  13  16
ATOM     16  C   UNL     1      11.098  -0.200 -10.528  0.00  0.00    +0.175 C 
BRANCH  16  18
ATOM     17  C   UNL     1      13.347  -0.184 -11.616  0.00  0.00    +0.005 C 
ATOM     18  C   UNL     1      12.254   0.688 -10.994  0.00  0.00    +0.020 C 
ENDBRANCH  16  18
ENDBRANCH  13  16
ENDBRANCH   6  13
ENDBRANCH   2   9
ENDBRANCH   1   4
BRANCH   1  19
ATOM     19  C   UNL     1       2.495  -4.344  -9.716  0.00  0.00    -0.020 C 
BRANCH  19  20
ATOM     20  N   UNL     1       1.397  -5.213  -9.271  0.00  0.00    +0.385 N 
ATOM     21  C   UNL     1       0.421  -5.361 -10.357  0.00  0.00    -0.078 C 
ATOM     22  C   UNL     1      -0.683  -6.329  -9.928  0.00  0.00    -0.019 C 
ATOM     23  C   UNL     1      -1.382  -5.778  -8.682  0.00  0.00    -0.004 C 
ATOM     24  C   UNL     1      -0.342  -5.559  -7.580  0.00  0.00    -0.019 C 
ATOM     25  C   UNL     1       0.750  -4.619  -8.096  0.00  0.00    -0.078 C 
ATOM     26  H   UNL     1       1.766  -6.121  -9.028  0.00  0.00    -0.081 HD
ENDBRANCH  19  20
BRANCH  19  27
ATOM     27  C   UNL     1       3.130  -4.929 -10.951  0.00  0.00    -0.059 A 
ATOM     28  C   UNL     1       3.318  -6.295 -11.051  0.00  0.00    +0.002 A 
ATOM     29  C   UNL     1       3.900  -6.831 -12.184  0.00  0.00    +0.004 A 
ATOM     30  C   UNL     1       4.294  -6.002 -13.218  0.00  0.00    -0.042 A 
ATOM     31  C   UNL     1       4.106  -4.636 -13.118  0.00  0.00    +0.004 A 
ATOM     32  C   UNL     1       3.519  -4.100 -11.987  0.00  0.00    +0.002 A 
BRANCH  30  33
ATOM     33  C   UNL     1       4.930  -6.587 -14.452  0.00  0.00    -0.013 C 
ATOM     34  C   UNL     1       3.956  -7.564 -15.114  0.00  0.00    +0.015 C 
ATOM     35  C   UNL     1       5.269  -5.462 -15.433  0.00  0.00    +0.015 C 
ATOM     36  C   UNL     1       6.211  -7.328 -14.064  0.00  0.00    +0.015 C 
ENDBRANCH  30  33
ENDBRANCH  19  27
ENDBRANCH   1  19
TORSDOF 9
