REMARK  Name = ZINC20757370
REMARK  6 active torsions:
REMARK  status: ('A' for Active; 'I' for Inactive)
REMARK    1  A    between atoms: C_1  and  C_2
REMARK    2  A    between atoms: C_2  and  N_3
REMARK    3  A    between atoms: N_3  and  C_4
REMARK    4  A    between atoms: C_10  and  C_12
REMARK    5  A    between atoms: C_25  and  C_28
REMARK    6  A    between atoms: C_31  and  N_34
REMARK                            x       y       z     vdW  Elec       q    Type
REMARK                         _______ _______ _______ _____ _____    ______ ____
ROOT
ATOM      1  C   UNL     1      -1.107   1.549  -1.224  0.00  0.00    +0.038 A 
ATOM      2  C   UNL     1      -1.428   2.896  -1.026  0.00  0.00    +0.015 A 
ATOM      3  C   UNL     1      -2.611   3.399  -1.511  0.00  0.00    +0.024 A 
ATOM      4  C   UNL     1      -3.499   2.579  -2.203  0.00  0.00    +0.031 A 
ATOM      5  C   UNL     1      -3.170   1.231  -2.414  0.00  0.00    -0.019 A 
ATOM      6  C   UNL     1      -1.989   0.725  -1.929  0.00  0.00    +0.019 A 
ATOM      7  C   UNL     1      -4.122   0.411  -3.193  0.00  0.00    +0.049 C 
ATOM      8  C   UNL     1      -4.206  -1.063  -3.034  0.00  0.00    -0.023 C 
ATOM      9  C   UNL     1      -5.457  -1.444  -3.270  0.00  0.00    -0.030 C 
ATOM     10  C   UNL     1      -6.326  -0.223  -3.577  0.00  0.00    +0.033 C 
ATOM     11  C   UNL     1      -5.563   0.891  -2.846  0.00  0.00    +0.029 C 
ATOM     12  C   UNL     1      -5.663   2.302  -3.397  0.00  0.00    +0.105 C 
ATOM     13  N   UNL     1      -4.706   3.112  -2.653  0.00  0.00    -0.336 N 
ATOM     14  H   UNL     1      -4.929   4.167  -2.436  0.00  0.00    +0.147 HD
ENDROOT
BRANCH  12  15
ATOM     15  C   UNL     1      -7.060   2.836  -3.208  0.00  0.00    -0.027 A 
ATOM     16  C   UNL     1      -7.450   3.330  -1.977  0.00  0.00    +0.008 A 
ATOM     17  C   UNL     1      -8.729   3.824  -1.805  0.00  0.00    +0.033 A 
ATOM     18  C   UNL     1      -9.622   3.816  -2.861  0.00  0.00    +0.126 A 
ATOM     19  C   UNL     1      -9.233   3.317  -4.090  0.00  0.00    +0.033 A 
ATOM     20  C   UNL     1      -7.952   2.827  -4.264  0.00  0.00    +0.008 A 
BRANCH  18  21
ATOM     21  N   UNL     1     -10.993   4.342  -2.675  0.00  0.00    +0.056 N 
ATOM     22  O   UNL     1     -11.779   4.335  -3.606  0.00  0.00    -0.126 OA
ATOM     23  O   UNL     1     -11.335   4.781  -1.592  0.00  0.00    -0.126 OA
ENDBRANCH  18  21
ENDBRANCH  12  15
BRANCH   1  25
ATOM     24  N   UNL     1       1.208   1.820  -0.485  0.00  0.00    -0.268 N 
ATOM     25  C   UNL     1       0.157   1.003  -0.698  0.00  0.00    +0.251 C 
ATOM     26  O   UNL     1       0.254  -0.186  -0.460  0.00  0.00    -0.270 OA
BRANCH  24  27
ATOM     27  C   UNL     1       2.365   1.327   0.127  0.00  0.00    +0.037 A 
ATOM     28  C   UNL     1       3.517   2.102   0.163  0.00  0.00    +0.023 A 
ATOM     29  C   UNL     1       4.656   1.614   0.772  0.00  0.00    +0.002 A 
ATOM     30  C   UNL     1       4.654   0.351   1.336  0.00  0.00    +0.000 A 
ATOM     31  C   UNL     1       3.510  -0.425   1.297  0.00  0.00    +0.002 A 
ATOM     32  C   UNL     1       2.366   0.059   0.694  0.00  0.00    +0.023 A 
ENDBRANCH  24  27
BRANCH  24  34
ATOM     33  C   UNL     1       0.987   4.110   0.344  0.00  0.00    +0.025 C 
ATOM     34  C   UNL     1       1.137   3.225  -0.895  0.00  0.00    +0.110 C 
ENDBRANCH  24  34
ENDBRANCH   1  25
TORSDOF 5
