REMARK  Name = ZINC01869120
REMARK  13 active torsions:
REMARK  status: ('A' for Active; 'I' for Inactive)
REMARK    1  A    between atoms: C_1  and  C_2
REMARK    2  A    between atoms: C_2  and  C_3
REMARK    3  A    between atoms: C_8  and  C_33
REMARK    4  A    between atoms: C_9  and  C_28
REMARK    5  A    between atoms: C_12  and  C_15
REMARK    6  A    between atoms: C_13  and  O_14
REMARK    7  A    between atoms: C_15  and  N_16
REMARK    8  A    between atoms: C_18  and  C_27
REMARK    9  A    between atoms: C_23  and  C_25
REMARK   10  A    between atoms: C_23  and  C_26
REMARK   11  A    between atoms: C_28  and  O_30
REMARK   12  A    between atoms: O_30  and  C_31
REMARK   13  A    between atoms: C_31  and  C_32
REMARK                            x       y       z     vdW  Elec       q    Type
REMARK                         _______ _______ _______ _____ _____    ______ ____
ROOT
ATOM      1  C   UNL     1      -2.300  -0.190   0.201  0.00  0.00    -0.005 A 
ATOM      2  C   UNL     1      -3.235   0.252   1.093  0.00  0.00    +0.022 A 
ATOM      3  C   UNL     1      -4.566   0.382   0.694  0.00  0.00    +0.065 A 
ATOM      4  C   UNL     1      -5.604   0.842   1.633  0.00  0.00    +0.201 A 
ATOM      5  O   UNL     1      -5.326   1.342   2.708  0.00  0.00    -0.286 OA
ATOM      6  C   UNL     1      -7.008   0.659   1.191  0.00  0.00    +0.079 A 
ATOM      7  C   UNL     1      -7.231   0.340  -0.132  0.00  0.00    +0.223 A 
ATOM      8  O   UNL     1      -6.231   0.206  -1.016  0.00  0.00    -0.447 OA
ATOM      9  C   UNL     1      -4.951   0.067  -0.623  0.00  0.00    +0.144 A 
ATOM     10  C   UNL     1      -3.987  -0.385  -1.516  0.00  0.00    +0.021 A 
ATOM     11  C   UNL     1      -2.670  -0.507  -1.105  0.00  0.00    +0.125 A 
ENDROOT
BRANCH   6  12
ATOM     12  C   UNL     1      -8.132   0.815   2.139  0.00  0.00    -0.007 A 
ATOM     13  C   UNL     1      -9.059   1.845   1.963  0.00  0.00    +0.012 A 
ATOM     14  C   UNL     1     -10.105   1.988   2.848  0.00  0.00    +0.050 A 
ATOM     15  C   UNL     1     -10.242   1.111   3.917  0.00  0.00    +0.162 A 
ATOM     16  C   UNL     1      -9.323   0.081   4.097  0.00  0.00    +0.163 A 
ATOM     17  C   UNL     1      -8.273  -0.071   3.208  0.00  0.00    +0.058 A 
ATOM     18  O   UNL     1      -9.448  -0.791   5.135  0.00  0.00    -0.485 OA
ATOM     19  C   UNL     1     -10.300  -0.390   6.213  0.00  0.00    +0.270 C 
ATOM     20  C   UNL     1     -11.604   0.158   5.618  0.00  0.00    +0.270 C 
ATOM     21  O   UNL     1     -11.280   1.274   4.782  0.00  0.00    -0.485 OA
ENDBRANCH   6  12
BRANCH   1  23
ATOM     22  C   UNL     1      -0.093   0.938   0.258  0.00  0.00    +0.009 C 
ATOM     23  C   UNL     1      -0.862  -0.332   0.628  0.00  0.00    +0.035 C 
ENDBRANCH   1  23
BRANCH  11  24
ATOM     24  O   UNL     1      -1.731  -0.944  -1.982  0.00  0.00    -0.506 OA
ATOM     25  H   UNL     1      -1.616  -1.904  -1.990  0.00  0.00    +0.292 HD
ENDBRANCH  11  24
BRANCH   7  26
ATOM     26  C   UNL     1      -8.618   0.138  -0.590  0.00  0.00    +0.376 C 
ATOM     27  O   UNL     1      -9.534   0.182   0.207  0.00  0.00    -0.241 OA
BRANCH  26  28
ATOM     28  O   UNL     1      -8.870  -0.096  -1.894  0.00  0.00    -0.459 OA
BRANCH  28  29
ATOM     29  C   UNL     1     -10.242  -0.166  -2.288  0.00  0.00    +0.229 C 
ATOM     30  C   UNL     1     -10.329  -0.525  -3.772  0.00  0.00    +0.048 C 
ENDBRANCH  28  29
ENDBRANCH  26  28
ENDBRANCH   7  26
BRANCH  10  31
ATOM     31  C   UNL     1      -4.373  -0.737  -2.929  0.00  0.00    -0.035 C 
BRANCH  31  32
ATOM     32  N   UNL     1      -4.926  -2.086  -2.961  0.00  0.00    +0.385 N 
ATOM     33  C   UNL     1      -3.907  -3.096  -2.619  0.00  0.00    -0.071 C 
ATOM     34  C   UNL     1      -4.121  -4.278  -3.594  0.00  0.00    -0.048 C 
ATOM     35  C   UNL     1      -5.529  -4.014  -4.190  0.00  0.00    -0.011 C 
ATOM     36  C   UNL     1      -5.484  -2.463  -4.275  0.00  0.00    -0.067 C 
ATOM     37  C   UNL     1      -4.567  -2.089  -5.422  0.00  0.00    -0.009 C 
ATOM     38  C   UNL     1      -3.289  -2.883  -5.574  0.00  0.00    -0.036 C 
ATOM     39  C   UNL     1      -3.120  -4.135  -4.739  0.00  0.00    +0.011 C 
ATOM     40  C   UNL     1      -2.087  -1.951  -5.317  0.00  0.00    +0.011 C 
ATOM     41  C   UNL     1      -3.187  -3.308  -7.061  0.00  0.00    +0.011 C 
ATOM     42  C   UNL     1      -4.028  -5.639  -2.889  0.00  0.00    +0.009 C 
ATOM     43  H   UNL     1      -5.674  -2.148  -2.266  0.00  0.00    -0.081 HD
ENDBRANCH  31  32
ENDBRANCH  10  31
TORSDOF 8
