REMARK  Name = ZINC10066994
REMARK  12 active torsions:
REMARK  status: ('A' for Active; 'I' for Inactive)
REMARK    1  A    between atoms: C_1  and  C_2
REMARK    2  A    between atoms: C_2  and  N_61
REMARK    3  A    between atoms: C_3  and  C_4
REMARK    4  A    between atoms: C_3  and  N_61
REMARK    5  A    between atoms: C_5  and  C_6
REMARK    6  A    between atoms: C_5  and  N_61
REMARK    7  A    between atoms: C_6  and  N_7
REMARK    8  A    between atoms: C_12  and  O_19
REMARK    9  A    between atoms: C_13  and  O_17
REMARK   10  A    between atoms: O_17  and  C_18
REMARK   11  A    between atoms: O_19  and  C_20
REMARK   12  A    between atoms: C_21  and  C_23
REMARK                            x       y       z     vdW  Elec       q    Type
REMARK                         _______ _______ _______ _____ _____    ______ ____
ROOT
ATOM      1  N   UNL     1       7.219   3.611   0.344  0.00  0.00    -0.248 N 
ATOM      2  C   UNL     1       5.939   3.116   0.161  0.00  0.00    +0.168 A 
ATOM      3  N   UNL     1       4.849   3.760  -0.185  0.00  0.00    -0.224 NA
ATOM      4  C   UNL     1       3.655   3.142  -0.327  0.00  0.00    +0.084 A 
ATOM      5  C   UNL     1       2.415   3.716  -0.693  0.00  0.00    +0.078 A 
ATOM      6  C   UNL     1       1.285   2.942  -0.794  0.00  0.00    +0.164 A 
ATOM      7  C   UNL     1       1.319   1.570  -0.540  0.00  0.00    +0.163 A 
ATOM      8  C   UNL     1       2.519   0.981  -0.173  0.00  0.00    +0.066 A 
ATOM      9  C   UNL     1       3.652   1.752  -0.078  0.00  0.00    +0.044 A 
ATOM     10  S   UNL     1       5.351   1.438   0.338  0.00  0.00    -0.052 S 
ATOM     11  C   UNL     1       7.467   4.923   0.161  0.00  0.00    +0.259 C 
ATOM     12  O   UNL     1       6.559   5.678  -0.133  0.00  0.00    -0.269 OA
ENDROOT
BRANCH  11  13
ATOM     13  C   UNL     1       8.835   5.443   0.317  0.00  0.00    +0.122 A 
ATOM     14  C   UNL     1       9.929   4.616   0.127  0.00  0.00    +0.031 A 
ATOM     15  C   UNL     1      11.229   5.160   0.283  0.00  0.00    +0.018 A 
ATOM     16  C   UNL     1      12.360   4.351   0.092  0.00  0.00    +0.011 A 
ATOM     17  C   UNL     1      13.608   4.880   0.250  0.00  0.00    +0.001 A 
ATOM     18  C   UNL     1      13.769   6.215   0.598  0.00  0.00    +0.004 A 
ATOM     19  C   UNL     1      12.672   7.027   0.790  0.00  0.00    +0.047 A 
ATOM     20  C   UNL     1      11.389   6.512   0.635  0.00  0.00    +0.139 A 
ATOM     21  O   UNL     1      10.317   7.310   0.824  0.00  0.00    -0.422 OA
ATOM     22  C   UNL     1       9.064   6.846   0.683  0.00  0.00    +0.350 A 
ATOM     23  O   UNL     1       8.117   7.590   0.859  0.00  0.00    -0.244 OA
ENDBRANCH  11  13
BRANCH   7  24
ATOM     24  O   UNL     1       0.188   0.822  -0.646  0.00  0.00    -0.491 OA
ATOM     25  C   UNL     1       0.307  -0.575  -0.370  0.00  0.00    +0.277 C 
ENDBRANCH   7  24
BRANCH   6  26
ATOM     26  O   UNL     1       0.108   3.525  -1.149  0.00  0.00    -0.491 OA
ATOM     27  C   UNL     1       0.129   4.932  -1.397  0.00  0.00    +0.277 C 
ENDBRANCH   6  26
BRANCH   1  28
ATOM     28  C   UNL     1       8.305   2.709   0.736  0.00  0.00    +0.097 C 
BRANCH  28  29
ATOM     29  C   UNL     1       8.714   1.851  -0.464  0.00  0.00    -0.059 C 
BRANCH  29  30
ATOM     30  N   UNL     1       9.823   0.963  -0.059  0.00  0.00    +0.380 N 
ATOM     31  H   UNL     1      10.560   1.527   0.378  0.00  0.00    -0.082 HD
BRANCH  30  33
ATOM     32  C   UNL     1       8.288  -0.946   0.281  0.00  0.00    -0.017 C 
ATOM     33  C   UNL     1       9.339  -0.035   0.919  0.00  0.00    -0.082 C 
ENDBRANCH  30  33
BRANCH  30  34
ATOM     34  C   UNL     1      10.381   0.279  -1.244  0.00  0.00    -0.082 C 
ATOM     35  C   UNL     1      11.723  -0.350  -0.863  0.00  0.00    -0.017 C 
ENDBRANCH  30  34
ENDBRANCH  29  30
ENDBRANCH  28  29
ENDBRANCH   1  28
TORSDOF 8
