REMARK  Name = ZINC09677830
REMARK  6 active torsions:
REMARK  status: ('A' for Active; 'I' for Inactive)
REMARK    1  A    between atoms: C_4  and  C_7
REMARK    2  A    between atoms: C_7  and  C_8
REMARK    3  A    between atoms: C_13  and  C_14
REMARK    4  A    between atoms: C_13  and  N_68
REMARK    5  A    between atoms: C_14  and  N_15
REMARK    6  A    between atoms: C_16  and  C_18
REMARK                            x       y       z     vdW  Elec       q    Type
REMARK                         _______ _______ _______ _____ _____    ______ ____
ROOT
ATOM      1  N   UNL     1      -8.081   0.620   3.270  0.00  0.00    -0.313 N 
ATOM      2  C   UNL     1      -8.925   0.390   2.245  0.00  0.00    +0.248 C 
ATOM      3  O   UNL     1     -10.123   0.320   2.447  0.00  0.00    -0.270 OA
ATOM      4  H   UNL     1      -7.135   0.749   3.099  0.00  0.00    +0.149 HD
ENDROOT
BRANCH   2   5
ATOM      5  C   UNL     1      -8.399   0.225   0.880  0.00  0.00    +0.080 A 
ATOM      6  C   UNL     1      -9.239  -0.132  -0.169  0.00  0.00    +0.018 A 
ATOM      7  C   UNL     1      -8.702  -0.279  -1.450  0.00  0.00    +0.019 A 
ATOM      8  C   UNL     1      -7.386  -0.081  -1.684  0.00  0.00    +0.096 A 
ATOM      9  N   UNL     1      -6.521   0.270  -0.689  0.00  0.00    -0.267 N 
ATOM     10  C   UNL     1      -6.977   0.432   0.594  0.00  0.00    +0.154 A 
ATOM     11  N   UNL     1      -6.152   0.772   1.572  0.00  0.00    -0.221 NA
ATOM     12  C   UNL     1      -4.864   0.962   1.338  0.00  0.00    +0.116 A 
ATOM     13  C   UNL     1      -4.308   0.817   0.052  0.00  0.00    +0.076 A 
ATOM     14  C   UNL     1      -5.218   0.453  -0.985  0.00  0.00    +0.267 A 
ATOM     15  O   UNL     1      -4.821   0.309  -2.128  0.00  0.00    -0.267 OA
ATOM     16  C   UNL     1      -2.867   1.059  -0.050  0.00  0.00    -0.023 A 
ATOM     17  C   UNL     1      -2.220   1.393   1.085  0.00  0.00    -0.004 A 
ATOM     18  S   UNL     1      -3.470   1.408   2.342  0.00  0.00    -0.073 S 
ATOM     19  C   UNL     1      -0.756   1.687   1.246  0.00  0.00    +0.043 C 
ATOM     20  C   UNL     1      -0.026   1.191  -0.010  0.00  0.00    +0.005 C 
ATOM     21  C   UNL     1      -0.782   1.683  -1.248  0.00  0.00    +0.005 C 
ATOM     22  C   UNL     1      -2.114   0.942  -1.372  0.00  0.00    +0.037 C 
ENDBRANCH   2   5
BRANCH   1  23
ATOM     23  C   UNL     1      -8.591   0.674   4.642  0.00  0.00    +0.086 C 
BRANCH  23  24
ATOM     24  C   UNL     1      -7.435   0.946   5.606  0.00  0.00    -0.060 C 
BRANCH  24  30
ATOM     25  C   UNL     1      -8.356   2.112   9.615  0.00  0.00    -0.010 C 
ATOM     26  C   UNL     1      -7.413   0.931   9.371  0.00  0.00    -0.015 C 
ATOM     27  C   UNL     1      -6.846   1.022   7.953  0.00  0.00    -0.078 C 
ATOM     28  C   UNL     1      -8.840   2.151   7.166  0.00  0.00    -0.078 C 
ATOM     29  C   UNL     1      -9.467   2.094   8.561  0.00  0.00    -0.015 C 
ATOM     30  N   UNL     1      -7.963   0.975   6.986  0.00  0.00    +0.381 N 
ATOM     31  H   UNL     1      -8.511   0.122   7.151  0.00  0.00    -0.082 HD
BRANCH  25  32
ATOM     32  C   UNL     1      -8.972   1.995  11.011  0.00  0.00    +0.038 C 
BRANCH  32  36
ATOM     33  C   UNL     1     -11.330   5.464  11.823  0.00  0.00    +0.000 A 
ATOM     34  C   UNL     1     -11.907   4.361  11.222  0.00  0.00    +0.000 A 
ATOM     35  C   UNL     1     -11.144   3.238  10.959  0.00  0.00    +0.003 A 
ATOM     36  C   UNL     1      -9.804   3.219  11.297  0.00  0.00    -0.047 A 
ATOM     37  C   UNL     1      -9.228   4.320  11.902  0.00  0.00    +0.003 A 
ATOM     38  C   UNL     1      -9.989   5.444  12.161  0.00  0.00    +0.000 A 
ENDBRANCH  32  36
ENDBRANCH  25  32
ENDBRANCH  24  30
ENDBRANCH  23  24
ENDBRANCH   1  23
TORSDOF 6
