REMARK  Name = ZINC50833122
REMARK  4 active torsions:
REMARK  status: ('A' for Active; 'I' for Inactive)
REMARK    1  A    between atoms: C_6  and  O_7
REMARK    2  A    between atoms: O_7  and  C_8
REMARK    3  A    between atoms: C_8  and  C_9
REMARK    4  A    between atoms: C_10  and  N_14
REMARK                            x       y       z     vdW  Elec       q    Type
REMARK                         _______ _______ _______ _____ _____    ______ ____
ROOT
ATOM      1  O   UNL     1      -1.166  -0.700   0.010  0.00  0.00    -0.486 OA
ENDROOT
BRANCH   1   7
ATOM      2  C   UNL     1      -0.017   1.383   0.010  0.00  0.00    +0.048 A 
ATOM      3  C   UNL     1       1.171   2.090   0.002  0.00  0.00    +0.045 A 
ATOM      4  C   UNL     1       2.379   1.416  -0.013  0.00  0.00    +0.159 A 
ATOM      5  C   UNL     1       2.400   0.029  -0.021  0.00  0.00    +0.162 A 
ATOM      6  C   UNL     1       1.213  -0.680  -0.013  0.00  0.00    +0.087 A 
ATOM      7  C   UNL     1       0.002  -0.004   0.002  0.00  0.00    +0.124 A 
ATOM      8  F   UNL     1       3.580  -0.628  -0.036  0.00  0.00    -0.202 F 
ATOM      9  F   UNL     1       3.538   2.109  -0.021  0.00  0.00    -0.202 F 
ENDBRANCH   1   7
BRANCH   1  10
ATOM     10  C   UNL     1      -1.071  -2.126   0.001  0.00  0.00    +0.288 C 
BRANCH  10  11
ATOM     11  C   UNL     1      -2.455  -2.721   0.012  0.00  0.00    +0.130 A 
ATOM     12  C   UNL     1      -3.108  -3.007   1.177  0.00  0.00    +0.110 A 
ATOM     13  S   UNL     1      -4.565  -3.631   0.616  0.00  0.00    +0.051 S 
ATOM     14  N   UNL     1      -4.285  -3.503  -1.031  0.00  0.00    -0.108 NA
ATOM     15  N   UNL     1      -3.104  -2.989  -1.100  0.00  0.00    -0.141 NA
BRANCH  12  16
ATOM     16  N   UNL     1      -2.678  -2.829   2.489  0.00  0.00    -0.350 N 
ATOM     17  H   UNL     1      -1.801  -2.453   2.666  0.00  0.00    +0.143 HD
ATOM     18  H   UNL     1      -3.255  -3.081   3.227  0.00  0.00    +0.143 HD
ENDBRANCH  12  16
ENDBRANCH  10  11
ENDBRANCH   1  10
TORSDOF 4
