REMARK  Name = ZINC49488678
REMARK  12 active torsions:
REMARK  status: ('A' for Active; 'I' for Inactive)
REMARK    1  A    between atoms: C_1  and  C_2
REMARK    2  A    between atoms: C_5  and  C_8
REMARK    3  A    between atoms: C_8  and  C_10
REMARK    4  A    between atoms: C_8  and  N_32
REMARK    5  A    between atoms: C_10  and  N_11
REMARK    6  A    between atoms: C_12  and  C_14
REMARK    7  A    between atoms: N_16  and  C_17
REMARK    8  A    between atoms: C_27  and  C_29
REMARK    9  A    between atoms: C_29  and  C_30
REMARK   10  A    between atoms: C_29  and  C_31
REMARK   11  A    between atoms: N_32  and  C_33
REMARK   12  A    between atoms: N_32  and  C_34
REMARK                            x       y       z     vdW  Elec       q    Type
REMARK                         _______ _______ _______ _____ _____    ______ ____
ROOT
ATOM      1  C   UNL     1      -2.233  -8.296   0.442  0.00  0.00    +0.303 C 
ATOM      2  O   UNL     1      -1.176  -8.764   0.071  0.00  0.00    -0.265 OA
ATOM      3  N   UNL     1      -3.296  -9.102   0.634  0.00  0.00    -0.278 N 
ATOM      4  H   UNL     1      -4.119  -8.740   0.999  0.00  0.00    +0.155 HD
ENDROOT
BRANCH   3   5
ATOM      5  C   UNL     1      -3.213 -10.458   0.308  0.00  0.00    +0.036 A 
ATOM      6  C   UNL     1      -2.022 -11.150   0.499  0.00  0.00    +0.024 A 
ATOM      7  C   UNL     1      -1.941 -12.489   0.175  0.00  0.00    +0.007 A 
ATOM      8  C   UNL     1      -3.042 -13.154  -0.341  0.00  0.00    -0.026 A 
ATOM      9  C   UNL     1      -4.232 -12.468  -0.530  0.00  0.00    +0.041 A 
ATOM     10  C   UNL     1      -4.319 -11.121  -0.202  0.00  0.00    +0.047 A 
ATOM     11  N   UNL     1      -5.363 -13.119  -1.041  0.00  0.00    -0.271 N 
ATOM     12  C   UNL     1      -5.202 -14.445  -1.654  0.00  0.00    +0.114 C 
ATOM     13  C   UNL     1      -4.289 -15.275  -0.742  0.00  0.00    +0.024 C 
ATOM     14  C   UNL     1      -2.913 -14.614  -0.687  0.00  0.00    +0.038 C 
ATOM     15  C   UNL     1      -6.578 -12.540  -0.971  0.00  0.00    +0.222 C 
ATOM     16  O   UNL     1      -6.693 -11.427  -0.502  0.00  0.00    -0.275 OA
BRANCH  15  17
ATOM     17  C   UNL     1      -7.793 -13.274  -1.476  0.00  0.00    +0.069 C 
ATOM     18  C   UNL     1      -8.221 -14.320  -0.446  0.00  0.00    +0.017 C 
ATOM     19  C   UNL     1      -8.934 -12.279  -1.698  0.00  0.00    +0.017 C 
ENDBRANCH  15  17
ENDBRANCH   3   5
BRANCH   1  21
ATOM     20  N   UNL     1      -1.291  -6.022   0.495  0.00  0.00    -0.309 N 
ATOM     21  C   UNL     1      -2.355  -6.828   0.687  0.00  0.00    +0.299 C 
ATOM     22  O   UNL     1      -3.411  -6.360   1.059  0.00  0.00    -0.265 OA
ATOM     23  H   UNL     1      -0.447  -6.396   0.198  0.00  0.00    +0.149 HD
BRANCH  20  24
ATOM     24  C   UNL     1      -1.411  -4.582   0.735  0.00  0.00    +0.094 C 
BRANCH  24  25
ATOM     25  C   UNL     1      -0.112  -3.886   0.323  0.00  0.00    -0.021 C 
BRANCH  25  30
ATOM     26  C   UNL     1       0.680  -4.510  -5.367  0.00  0.00    +0.044 C 
ATOM     27  C   UNL     1       0.474  -4.347  -3.883  0.00  0.00    -0.050 A 
ATOM     28  C   UNL     1       1.153  -5.163  -2.998  0.00  0.00    +0.003 A 
ATOM     29  C   UNL     1       0.963  -5.014  -1.636  0.00  0.00    +0.002 A 
ATOM     30  C   UNL     1       0.095  -4.049  -1.161  0.00  0.00    -0.059 A 
ATOM     31  C   UNL     1      -0.583  -3.232  -2.047  0.00  0.00    +0.002 A 
ATOM     32  C   UNL     1      -0.390  -3.379  -3.408  0.00  0.00    +0.003 A 
ENDBRANCH  25  30
BRANCH  25  33
ATOM     33  N   UNL     1      -0.196  -2.457   0.652  0.00  0.00    +0.382 N 
ATOM     34  C   UNL     1      -0.310  -2.296   2.108  0.00  0.00    -0.096 C 
ATOM     35  C   UNL     1       1.015  -1.774   0.177  0.00  0.00    -0.096 C 
ATOM     36  H   UNL     1      -1.006  -2.056   0.205  0.00  0.00    -0.082 HD
ENDBRANCH  25  33
ENDBRANCH  24  25
ENDBRANCH  20  24
ENDBRANCH   1  21
TORSDOF 7
