REMARK  Name = ZINC06881846
REMARK  8 active torsions:
REMARK  status: ('A' for Active; 'I' for Inactive)
REMARK    1  A    between atoms: C_1  and  N_38
REMARK    2  A    between atoms: C_2  and  N_38
REMARK    3  A    between atoms: C_3  and  C_5
REMARK    4  A    between atoms: C_3  and  C_15
REMARK    5  A    between atoms: C_3  and  N_38
REMARK    6  A    between atoms: C_5  and  N_6
REMARK    7  A    between atoms: N_6  and  C_7
REMARK    8  A    between atoms: C_8  and  N_12
REMARK                            x       y       z     vdW  Elec       q    Type
REMARK                         _______ _______ _______ _____ _____    ______ ____
ROOT
ATOM      1  C   UNL     1      -1.148  -1.295   0.468  0.00  0.00    -0.017 C 
ENDROOT
BRANCH   1   2
ATOM      2  C   UNL     1       0.148  -0.581   0.184  0.00  0.00    -0.006 A 
ATOM      3  C   UNL     1       1.123  -1.195  -0.586  0.00  0.00    +0.126 A 
ATOM      4  C   UNL     1       2.313  -0.538  -0.846  0.00  0.00    +0.038 A 
ATOM      5  C   UNL     1       2.529   0.729  -0.337  0.00  0.00    +0.004 A 
ATOM      6  C   UNL     1       1.557   1.341   0.430  0.00  0.00    +0.020 A 
ATOM      7  C   UNL     1       0.366   0.687   0.691  0.00  0.00    +0.045 A 
ATOM      8 CL   UNL     1      -0.858   1.460   1.650  0.00  0.00    -0.083 Cl
ATOM      9  F   UNL     1       0.911  -2.433  -1.082  0.00  0.00    -0.205 F 
ENDBRANCH   1   2
BRANCH   1  12
ATOM     10  C   UNL     1       0.162  -2.734   1.909  0.00  0.00    -0.096 C 
ATOM     11  C   UNL     1      -2.094  -3.365   1.295  0.00  0.00    -0.096 C 
ATOM     12  N   UNL     1      -0.857  -2.696   0.839  0.00  0.00    +0.382 N 
ATOM     13  H   UNL     1      -0.495  -3.191   0.016  0.00  0.00    -0.082 HD
ENDBRANCH   1  12
BRANCH   1  14
ATOM     14  C   UNL     1      -2.020  -1.289  -0.789  0.00  0.00    +0.092 C 
BRANCH  14  15
ATOM     15  N   UNL     1      -3.363  -1.768  -0.454  0.00  0.00    -0.330 N 
ATOM     16  H   UNL     1      -3.605  -1.925   0.472  0.00  0.00    +0.147 HD
BRANCH  15  17
ATOM     17  C   UNL     1      -4.291  -1.999  -1.464  0.00  0.00    +0.127 A 
ATOM     18  C   UNL     1      -5.600  -2.333  -1.134  0.00  0.00    +0.164 A 
ATOM     19  C   UNL     1      -6.513  -2.559  -2.148  0.00  0.00    +0.037 A 
ATOM     20  C   UNL     1      -6.083  -2.444  -3.464  0.00  0.00    +0.020 A 
ATOM     21  C   UNL     1      -4.769  -2.109  -3.719  0.00  0.00    +0.084 A 
ATOM     22  N   UNL     1      -3.846  -1.874  -2.748  0.00  0.00    -0.348 N 
ATOM     23  H   UNL     1      -2.876  -1.619  -2.967  0.00  0.00    +0.167 HD
BRANCH  18  24
ATOM     24  N   UNL     1      -5.977  -2.435   0.164  0.00  0.00    +0.060 N 
ATOM     25  O   UNL     1      -7.088  -2.848   0.445  0.00  0.00    -0.126 OA
ATOM     26  O   UNL     1      -5.204  -2.114   1.049  0.00  0.00    -0.126 OA
ENDBRANCH  18  24
ENDBRANCH  15  17
ENDBRANCH  14  15
ENDBRANCH   1  14
TORSDOF 6
