REMARK  Name = ZINC35303307
REMARK  9 active torsions:
REMARK  status: ('A' for Active; 'I' for Inactive)
REMARK    1  A    between atoms: C_1  and  C_2
REMARK    2  A    between atoms: C_2  and  N_3
REMARK    3  A    between atoms: C_4  and  C_23
REMARK    4  A    between atoms: C_5  and  C_18
REMARK    5  A    between atoms: C_6  and  C_11
REMARK    6  A    between atoms: C_14  and  N_17
REMARK    7  A    between atoms: C_18  and  O_20
REMARK    8  A    between atoms: O_20  and  C_21
REMARK    9  A    between atoms: C_21  and  C_22
REMARK                            x       y       z     vdW  Elec       q    Type
REMARK                         _______ _______ _______ _____ _____    ______ ____
ROOT
ATOM      1  N   UNL     1      -1.458  -0.323   0.041  0.00  0.00    -0.286 N 
ATOM      2  C   UNL     1      -1.931  -0.834   1.215  0.00  0.00    +0.021 C 
ATOM      3  C   UNL     1      -3.108  -1.494   1.265  0.00  0.00    +0.078 C 
ATOM      4  C   UNL     1      -3.886  -1.646  -0.027  0.00  0.00    +0.141 C 
ATOM      5  N   UNL     1      -3.289  -1.057  -1.238  0.00  0.00    -0.315 N 
ATOM      6  C   UNL     1      -2.106  -0.423  -1.126  0.00  0.00    +0.138 C 
ATOM      7  S   UNL     1      -1.403   0.271  -2.525  0.00  0.00    -0.018 S 
ATOM      8  C   UNL     1      -1.125  -0.660   2.477  0.00  0.00    +0.061 C 
ATOM      9  H   UNL     1      -3.739  -1.122  -2.095  0.00  0.00    +0.149 HD
ENDROOT
BRANCH   4  10
ATOM     10  C   UNL     1      -5.243  -1.022   0.172  0.00  0.00    -0.022 A 
ATOM     11  C   UNL     1      -5.393   0.350   0.076  0.00  0.00    +0.007 A 
ATOM     12  C   UNL     1      -6.635   0.925   0.258  0.00  0.00    +0.023 A 
ATOM     13  C   UNL     1      -7.735   0.125   0.537  0.00  0.00    +0.025 A 
ATOM     14  C   UNL     1      -7.582  -1.253   0.632  0.00  0.00    +0.023 A 
ATOM     15  C   UNL     1      -6.338  -1.822   0.443  0.00  0.00    +0.007 A 
BRANCH  13  16
ATOM     16  N   UNL     1      -8.993   0.703   0.721  0.00  0.00    -0.358 N 
ATOM     17  H   UNL     1      -9.099   1.665   0.655  0.00  0.00    +0.142 HD
ATOM     18  H   UNL     1      -9.761   0.143   0.916  0.00  0.00    +0.142 HD
ENDBRANCH  13  16
ENDBRANCH   4  10
BRANCH   1  20
ATOM     19  C   UNL     1       0.965  -0.633  -0.067  0.00  0.00    +0.025 C 
ATOM     20  C   UNL     1      -0.173   0.381   0.061  0.00  0.00    +0.109 C 
ENDBRANCH   1  20
BRANCH   3  21
ATOM     21  C   UNL     1      -3.598  -2.025   2.480  0.00  0.00    +0.339 C 
ATOM     22  O   UNL     1      -2.957  -1.891   3.505  0.00  0.00    -0.245 OA
BRANCH  21  23
ATOM     23  O   UNL     1      -4.778  -2.680   2.503  0.00  0.00    -0.462 OA
BRANCH  23  24
ATOM     24  C   UNL     1      -5.212  -3.190   3.766  0.00  0.00    +0.229 C 
ATOM     25  C   UNL     1      -6.559  -3.896   3.595  0.00  0.00    +0.048 C 
ENDBRANCH  23  24
ENDBRANCH  21  23
ENDBRANCH   3  21
TORSDOF 6
