REMARK  Name = ZINC32564519
REMARK  7 active torsions:
REMARK  status: ('A' for Active; 'I' for Inactive)
REMARK    1  A    between atoms: C_1  and  C_2
REMARK    2  A    between atoms: C_2  and  C_4
REMARK    3  A    between atoms: C_2  and  N_14
REMARK    4  A    between atoms: C_15  and  C_17
REMARK    5  A    between atoms: C_17  and  S_18
REMARK    6  A    between atoms: S_18  and  C_19
REMARK    7  A    between atoms: N_23  and  C_24
REMARK                            x       y       z     vdW  Elec       q    Type
REMARK                         _______ _______ _______ _____ _____    ______ ____
ROOT
ATOM      1  C   UNL     1      -6.653  -0.158  -2.322  0.00  0.00    +0.173 C 
ENDROOT
BRANCH   1   3
ATOM      2  N   UNL     1      -4.657  -0.137  -0.860  0.00  0.00    -0.308 N 
ATOM      3  C   UNL     1      -5.660  -0.844  -1.419  0.00  0.00    +0.224 C 
ATOM      4  O   UNL     1      -5.762  -2.031  -1.195  0.00  0.00    -0.275 OA
ATOM      5  H   UNL     1      -4.564   0.940  -1.063  0.00  0.00    +0.149 HD
BRANCH   2   7
ATOM      6  C   UNL     1      -4.250  -0.858   1.441  0.00  0.00    +0.033 C 
ATOM      7  C   UNL     1      -3.692  -0.803   0.018  0.00  0.00    +0.100 C 
BRANCH   7   8
ATOM      8  C   UNL     1      -2.397  -0.033   0.016  0.00  0.00    -0.024 A 
ATOM      9  C   UNL     1      -2.415   1.349   0.025  0.00  0.00    +0.009 A 
ATOM     10  C   UNL     1      -1.229   2.059   0.019  0.00  0.00    +0.050 A 
ATOM     11  C   UNL     1      -0.017   1.385   0.010  0.00  0.00    +0.162 A 
ATOM     12  C   UNL     1       0.002  -0.004   0.002  0.00  0.00    +0.162 A 
ATOM     13  C   UNL     1      -1.192  -0.710   0.004  0.00  0.00    +0.055 A 
ATOM     14  O   UNL     1       1.181  -0.685  -0.007  0.00  0.00    -0.485 OA
ATOM     15  C   UNL     1       2.347   0.053  -0.387  0.00  0.00    +0.270 C 
ATOM     16  C   UNL     1       2.334   1.392   0.364  0.00  0.00    +0.270 C 
ATOM     17  O   UNL     1       1.143   2.098   0.002  0.00  0.00    -0.485 OA
ENDBRANCH   7   8
ENDBRANCH   2   7
ENDBRANCH   1   3
BRANCH   1  18
ATOM     18  S   UNL     1      -7.866  -1.365  -2.910  0.00  0.00    -0.078 S 
BRANCH  18  19
ATOM     19  C   UNL     1      -8.873  -0.323  -3.913  0.00  0.00    +0.174 A 
ATOM     20  N   UNL     1      -8.697   0.966  -4.101  0.00  0.00    -0.226 NA
ATOM     21  C   UNL     1      -9.648   1.427  -4.923  0.00  0.00    +0.064 A 
ATOM     22  C   UNL     1     -10.454   0.400  -5.256  0.00  0.00    +0.047 A 
ATOM     23  N   UNL     1      -9.972  -0.717  -4.622  0.00  0.00    -0.291 N 
ATOM     24  C   UNL     1     -11.652   0.514  -6.162  0.00  0.00    +0.056 C 
ATOM     25  C   UNL     1     -12.025   1.997  -6.287  0.00  0.00    +0.007 C 
ATOM     26  C   UNL     1     -10.774   2.809  -6.630  0.00  0.00    +0.007 C 
ATOM     27  C   UNL     1      -9.836   2.841  -5.418  0.00  0.00    +0.057 C 
BRANCH  23  28
ATOM     28  C   UNL     1     -10.505  -2.012  -4.689  0.00  0.00    +0.049 A 
ATOM     29  C   UNL     1     -10.509  -2.701  -5.894  0.00  0.00    +0.026 A 
ATOM     30  C   UNL     1     -11.030  -3.979  -5.956  0.00  0.00    +0.002 A 
ATOM     31  C   UNL     1     -11.558  -4.567  -4.821  0.00  0.00    +0.000 A 
ATOM     32  C   UNL     1     -11.560  -3.881  -3.621  0.00  0.00    +0.002 A 
ATOM     33  C   UNL     1     -11.036  -2.605  -3.552  0.00  0.00    +0.026 A 
ENDBRANCH  23  28
ENDBRANCH  18  19
ENDBRANCH   1  18
TORSDOF 6
