REMARK  Name = ZINC41069969
REMARK  6 active torsions:
REMARK  status: ('A' for Active; 'I' for Inactive)
REMARK    1  A    between atoms: C_1  and  C_2
REMARK    2  A    between atoms: C_8  and  N_10
REMARK    3  A    between atoms: N_10  and  S_11
REMARK    4  A    between atoms: S_11  and  C_14
REMARK    5  A    between atoms: C_19  and  N_20
REMARK    6  A    between atoms: N_20  and  N_21
REMARK                            x       y       z     vdW  Elec       q    Type
REMARK                         _______ _______ _______ _____ _____    ______ ____
ROOT
ATOM      1  S   UNL     1       2.757   0.461   2.591  0.00  0.00    +0.062 S 
ATOM      2  O   UNL     1       4.013   1.082   2.354  0.00  0.00    -0.153 OA
ATOM      3  O   UNL     1       1.664   1.152   3.179  0.00  0.00    -0.153 OA
ENDROOT
BRANCH   1   4
ATOM      4  C   UNL     1       3.074  -0.941   3.610  0.00  0.00    +0.147 A 
ATOM      5  C   UNL     1       2.334  -1.153   4.760  0.00  0.00    +0.048 A 
ATOM      6  C   UNL     1       2.617  -2.271   5.534  0.00  0.00    +0.038 A 
ATOM      7  C   UNL     1       3.622  -3.132   5.136  0.00  0.00    +0.128 A 
ATOM      8  N   UNL     1       4.311  -2.904   4.034  0.00  0.00    -0.236 NA
ATOM      9  C   UNL     1       4.067  -1.853   3.267  0.00  0.00    +0.159 A 
ATOM     10 BR   UNL     1       1.638  -2.611   7.115  0.00  0.00    -0.049 Br
BRANCH   9  11
ATOM     11  N   UNL     1       4.814  -1.655   2.111  0.00  0.00    -0.266 N 
ATOM     12  H   UNL     1       4.612  -0.909   1.525  0.00  0.00    +0.167 HD
BRANCH  11  13
ATOM     13  N   UNL     1       5.832  -2.511   1.801  0.00  0.00    -0.255 NA
ATOM     14  H   UNL     1       6.280  -2.242   0.938  0.00  0.00    +0.140 HD
ATOM     15  H   UNL     1       6.500  -2.566   2.554  0.00  0.00    +0.140 HD
ENDBRANCH  11  13
ENDBRANCH   9  11
ENDBRANCH   1   4
BRANCH   1  16
ATOM     16  N   UNL     1       2.227  -0.107   1.128  0.00  0.00    -0.187 NA
ATOM     17  H   UNL     1       2.755   0.044   0.329  0.00  0.00    +0.148 HD
BRANCH  16  24
ATOM     18  C   UNL     1      -0.214   1.272   0.400  0.00  0.00    +0.009 C 
ATOM     19  C   UNL     1       0.061  -0.178  -0.005  0.00  0.00    +0.005 C 
ATOM     20  C   UNL     1       0.758  -0.204  -1.366  0.00  0.00    +0.005 C 
ATOM     21  C   UNL     1       1.033  -1.654  -1.771  0.00  0.00    +0.000 C 
ATOM     22  C   UNL     1       1.932  -2.314  -0.724  0.00  0.00    +0.002 C 
ATOM     23  C   UNL     1       1.235  -2.288   0.637  0.00  0.00    +0.020 C 
ATOM     24  C   UNL     1       0.960  -0.838   1.042  0.00  0.00    +0.079 C 
ENDBRANCH  16  24
ENDBRANCH   1  16
TORSDOF 5
