REMARK  Name = ZINC00989363
REMARK  8 active torsions:
REMARK  status: ('A' for Active; 'I' for Inactive)
REMARK    1  A    between atoms: C_1  and  C_2
REMARK    2  A    between atoms: C_3  and  C_28
REMARK    3  A    between atoms: C_14  and  C_18
REMARK    4  A    between atoms: C_15  and  N_17
REMARK    5  A    between atoms: C_18  and  O_20
REMARK    6  A    between atoms: O_20  and  C_21
REMARK    7  A    between atoms: C_21  and  C_22
REMARK    8  A    between atoms: C_28  and  C_30
REMARK                            x       y       z     vdW  Elec       q    Type
REMARK                         _______ _______ _______ _____ _____    ______ ____
ROOT
ATOM      1  C   UNL     1      -1.880  -2.261   2.454  0.00  0.00    +0.086 C 
ATOM      2  C   UNL     1      -1.399  -1.627   1.174  0.00  0.00    +0.113 C 
ATOM      3  C   UNL     1      -0.700  -0.483   1.240  0.00  0.00    +0.062 C 
ATOM      4  C   UNL     1      -0.204   0.188  -0.008  0.00  0.00    +0.142 C 
ATOM      5  C   UNL     1       1.288   0.013  -0.144  0.00  0.00    -0.002 A 
ATOM      6  C   UNL     1       2.098  -1.093  -0.272  0.00  0.00    +0.007 A 
ATOM      7  C   UNL     1       3.469  -0.937  -0.378  0.00  0.00    +0.000 A 
ATOM      8  C   UNL     1       4.021   0.331  -0.356  0.00  0.00    +0.002 A 
ATOM      9  C   UNL     1       3.212   1.441  -0.229  0.00  0.00    +0.023 A 
ATOM     10  C   UNL     1       1.831   1.292  -0.122  0.00  0.00    +0.038 A 
ATOM     11  N   UNL     1       0.819   2.244   0.012  0.00  0.00    -0.284 N 
ATOM     12  C   UNL     1      -0.401   1.682   0.085  0.00  0.00    +0.237 C 
ATOM     13  O   UNL     1      -1.459   2.265   0.198  0.00  0.00    -0.274 OA
ATOM     14  C   UNL     1      -0.910  -0.360  -1.215  0.00  0.00    +0.117 C 
ATOM     15  C   UNL     1      -1.605  -1.526  -1.135  0.00  0.00    +0.195 C 
ATOM     16  O   UNL     1      -1.681  -2.226   0.009  0.00  0.00    -0.446 OA
ATOM     17  H   UNL     1       0.977   3.200   0.049  0.00  0.00    +0.155 HD
ENDROOT
BRANCH  15  18
ATOM     18  N   UNL     1      -2.242  -2.000  -2.251  0.00  0.00    -0.329 N 
ATOM     19  H   UNL     1      -2.133  -1.546  -3.101  0.00  0.00    +0.145 HD
ATOM     20  H   UNL     1      -2.804  -2.788  -2.190  0.00  0.00    +0.145 HD
ENDBRANCH  15  18
BRANCH  14  21
ATOM     21  C   UNL     1      -0.853   0.336  -2.432  0.00  0.00    +0.342 C 
ATOM     22  O   UNL     1       0.160   0.300  -3.107  0.00  0.00    -0.245 OA
BRANCH  21  23
ATOM     23  O   UNL     1      -1.921   1.046  -2.855  0.00  0.00    -0.456 OA
BRANCH  23  24
ATOM     24  C   UNL     1      -1.793   1.730  -4.103  0.00  0.00    +0.268 C 
BRANCH  24  25
ATOM     25  C   UNL     1      -3.074   2.462  -4.408  0.00  0.00    -0.010 A 
ATOM     26  C   UNL     1      -4.075   1.834  -5.126  0.00  0.00    +0.007 A 
ATOM     27  C   UNL     1      -5.252   2.505  -5.403  0.00  0.00    +0.000 A 
ATOM     28  C   UNL     1      -5.424   3.806  -4.970  0.00  0.00    +0.000 A 
ATOM     29  C   UNL     1      -4.421   4.436  -4.257  0.00  0.00    +0.000 A 
ATOM     30  C   UNL     1      -3.246   3.764  -3.976  0.00  0.00    +0.007 A 
ENDBRANCH  24  25
ENDBRANCH  23  24
ENDBRANCH  21  23
ENDBRANCH  14  21
BRANCH   3  31
ATOM     31  C   UNL     1      -0.427   0.098   2.503  0.00  0.00    +0.194 C 
ATOM     32  O   UNL     1       0.681  -0.007   2.996  0.00  0.00    -0.287 OA
BRANCH  31  33
ATOM     33  C   UNL     1      -1.490   0.834   3.224  0.00  0.00    +0.022 A 
ATOM     34  C   UNL     1      -2.738   1.025   2.628  0.00  0.00    +0.012 A 
ATOM     35  C   UNL     1      -3.726   1.707   3.308  0.00  0.00    +0.001 A 
ATOM     36  C   UNL     1      -3.478   2.211   4.572  0.00  0.00    +0.000 A 
ATOM     37  C   UNL     1      -2.241   2.031   5.165  0.00  0.00    +0.001 A 
ATOM     38  C   UNL     1      -1.247   1.346   4.499  0.00  0.00    +0.012 A 
ENDBRANCH  31  33
ENDBRANCH   3  31
TORSDOF 7
