REMARK  Name = ZINC40036762
REMARK  5 active torsions:
REMARK  status: ('A' for Active; 'I' for Inactive)
REMARK    1  A    between atoms: C_1  and  O_2
REMARK    2  A    between atoms: O_2  and  C_3
REMARK    3  A    between atoms: C_6  and  N_9
REMARK    4  A    between atoms: N_16  and  N_17
REMARK    5  A    between atoms: C_18  and  C_19
REMARK                            x       y       z     vdW  Elec       q    Type
REMARK                         _______ _______ _______ _____ _____    ______ ____
ROOT
ATOM      1  N   UNL     1      -4.923  -2.568  -0.178  0.00  0.00    -0.248 N 
ATOM      2  C   UNL     1      -4.980  -3.913  -0.279  0.00  0.00    +0.264 A 
ATOM      3  O   UNL     1      -3.990  -4.558  -0.588  0.00  0.00    -0.267 OA
ATOM      4  C   UNL     1      -6.199  -4.553  -0.022  0.00  0.00    +0.050 A 
ATOM      5  C   UNL     1      -7.297  -3.785   0.329  0.00  0.00    +0.084 A 
ATOM      6  N   UNL     1      -7.190  -2.453   0.384  0.00  0.00    -0.214 NA
ATOM      7  C   UNL     1      -6.040  -1.856   0.147  0.00  0.00    +0.223 A 
ATOM      8  N   UNL     1      -5.965  -0.490   0.223  0.00  0.00    -0.206 N 
ATOM      9  C   UNL     1      -8.570  -4.461   0.668  0.00  0.00    +0.004 A 
ATOM     10  C   UNL     1      -9.763  -3.745   0.726  0.00  0.00    +0.010 A 
ATOM     11  C   UNL     1     -10.941  -4.400   1.025  0.00  0.00    +0.001 A 
ATOM     12  C   UNL     1     -10.934  -5.763   1.263  0.00  0.00    +0.000 A 
ATOM     13  C   UNL     1      -9.750  -6.477   1.214  0.00  0.00    +0.004 A 
ATOM     14  C   UNL     1      -8.565  -5.831   0.928  0.00  0.00    -0.037 A 
ATOM     15  C   UNL     1      -7.267  -6.594   0.926  0.00  0.00    +0.047 C 
ATOM     16  C   UNL     1      -6.320  -6.048  -0.141  0.00  0.00    +0.007 C 
ATOM     17  C   UNL     1      -6.859  -6.405  -1.529  0.00  0.00    +0.012 C 
ATOM     18  C   UNL     1      -6.977  -7.925  -1.655  0.00  0.00    +0.001 C 
ATOM     19  C   UNL     1      -5.598  -8.561  -1.469  0.00  0.00    +0.000 C 
ATOM     20  C   UNL     1      -5.053  -8.203  -0.085  0.00  0.00    +0.001 C 
ATOM     21  C   UNL     1      -4.937  -6.682   0.039  0.00  0.00    +0.012 C 
ATOM     22  H   UNL     1      -5.109  -0.044   0.124  0.00  0.00    +0.177 HD
ENDROOT
BRANCH   1  26
ATOM     23  C   UNL     1      -1.315  -0.585  -0.843  0.00  0.00    +0.120 A 
ATOM     24  C   UNL     1      -1.641  -1.020   0.433  0.00  0.00    +0.047 A 
ATOM     25  C   UNL     1      -2.836  -1.677   0.654  0.00  0.00    +0.030 A 
ATOM     26  C   UNL     1      -3.710  -1.901  -0.402  0.00  0.00    +0.053 A 
ATOM     27  C   UNL     1      -3.382  -1.464  -1.678  0.00  0.00    +0.030 A 
ATOM     28  C   UNL     1      -2.190  -0.803  -1.897  0.00  0.00    +0.047 A 
BRANCH  23  30
ATOM     29  C   UNL     1       0.714   0.253   0.070  0.00  0.00    +0.277 C 
ATOM     30  O   UNL     1      -0.139   0.062  -1.060  0.00  0.00    -0.495 OA
ENDBRANCH  23  30
ENDBRANCH   1  26
BRANCH   8  31
ATOM     31  N   UNL     1      -7.126   0.264   0.444  0.00  0.00    -0.188 NA
ATOM     32  C   UNL     1      -7.055   1.558   0.517  0.00  0.00    +0.138 C 
BRANCH  32  33
ATOM     33  C   UNL     1      -8.277   2.351   0.750  0.00  0.00    -0.005 A 
ATOM     34  C   UNL     1      -9.510   1.712   0.898  0.00  0.00    +0.012 A 
ATOM     35  C   UNL     1     -10.648   2.459   1.116  0.00  0.00    +0.039 A 
ATOM     36  C   UNL     1     -10.571   3.841   1.186  0.00  0.00    +0.123 A 
ATOM     37  C   UNL     1      -9.350   4.480   1.040  0.00  0.00    +0.039 A 
ATOM     38  C   UNL     1      -8.204   3.744   0.828  0.00  0.00    +0.012 A 
ATOM     39  F   UNL     1     -11.690   4.567   1.399  0.00  0.00    -0.205 F 
ENDBRANCH  32  33
ENDBRANCH   8  31
TORSDOF 4
