REMARK  Name = ZINC14965080
REMARK  8 active torsions:
REMARK  status: ('A' for Active; 'I' for Inactive)
REMARK    1  A    between atoms: C_1  and  N_2
REMARK    2  A    between atoms: N_2  and  C_3
REMARK    3  A    between atoms: C_3  and  C_5
REMARK    4  A    between atoms: C_3  and  C_13
REMARK    5  A    between atoms: C_5  and  C_6
REMARK    6  A    between atoms: C_18  and  C_19
REMARK    7  A    between atoms: C_18  and  N_63
REMARK    8  A    between atoms: C_28  and  C_30
REMARK                            x       y       z     vdW  Elec       q    Type
REMARK                         _______ _______ _______ _____ _____    ______ ____
ROOT
ATOM      1  C   UNL     1      -4.918   0.839   5.469  0.00  0.00    +0.083 C 
ENDROOT
BRANCH   1   2
ATOM      2  C   UNL     1      -4.746   1.206   3.994  0.00  0.00    +0.006 C 
ATOM      3  C   UNL     1      -4.818  -0.063   3.139  0.00  0.00    -0.013 C 
ATOM      4  C   UNL     1      -4.585   0.303   1.671  0.00  0.00    -0.078 C 
ATOM      5  C   UNL     1      -3.192   2.183   2.301  0.00  0.00    -0.078 C 
ATOM      6  C   UNL     1      -3.383   1.873   3.788  0.00  0.00    -0.013 C 
ATOM      7  N   UNL     1      -3.248   0.919   1.537  0.00  0.00    +0.382 N 
ATOM      8  H   UNL     1      -2.544   0.271   1.911  0.00  0.00    -0.081 HD
BRANCH   7   9
ATOM      9  C   UNL     1      -2.952   1.177   0.112  0.00  0.00    -0.043 C 
BRANCH   9  10
ATOM     10  C   UNL     1      -1.722   2.041   0.012  0.00  0.00    -0.060 A 
ATOM     11  C   UNL     1      -0.471   1.456  -0.046  0.00  0.00    +0.005 A 
ATOM     12  C   UNL     1       0.660   2.245  -0.143  0.00  0.00    +0.050 A 
ATOM     13  C   UNL     1       0.543   3.625  -0.178  0.00  0.00    +0.166 A 
ATOM     14  C   UNL     1      -0.717   4.214  -0.115  0.00  0.00    +0.166 A 
ATOM     15  C   UNL     1      -1.847   3.418  -0.016  0.00  0.00    +0.051 A 
ATOM     16  O   UNL     1      -0.568   5.570  -0.167  0.00  0.00    -0.453 OA
ATOM     17  C   UNL     1       0.762   5.791  -0.673  0.00  0.00    +0.466 C 
ATOM     18  O   UNL     1       1.482   4.611  -0.270  0.00  0.00    -0.453 OA
ENDBRANCH   9  10
ENDBRANCH   7   9
ENDBRANCH   1   2
BRANCH   1  20
ATOM     19  C   UNL     1      -2.501   0.179   5.874  0.00  0.00    +0.132 C 
ATOM     20  N   UNL     1      -3.923  -0.171   5.840  0.00  0.00    -0.297 N 
ATOM     21  C   UNL     1      -4.317  -1.423   6.149  0.00  0.00    +0.253 C 
ATOM     22  O   UNL     1      -3.507  -2.229   6.566  0.00  0.00    -0.269 OA
BRANCH  21  23
ATOM     23  C   UNL     1      -5.720  -1.812   5.984  0.00  0.00    +0.074 A 
ATOM     24  C   UNL     1      -6.396  -2.895   6.522  0.00  0.00    +0.021 A 
ATOM     25  C   UNL     1      -7.725  -3.024   6.204  0.00  0.00    +0.008 A 
ATOM     26  C   UNL     1      -8.303  -2.108   5.384  0.00  0.00    +0.046 A 
ATOM     27  S   UNL     1      -7.002  -1.018   5.030  0.00  0.00    -0.092 S 
ENDBRANCH  21  23
ENDBRANCH   1  20
BRANCH   1  28
ATOM     28  C   UNL     1      -4.722   2.087   6.331  0.00  0.00    +0.060 C 
BRANCH  28  29
ATOM     29  C   UNL     1      -5.012   1.753   7.772  0.00  0.00    -0.010 A 
ATOM     30  C   UNL     1      -6.266   1.995   8.299  0.00  0.00    +0.006 A 
ATOM     31  C   UNL     1      -6.534   1.683   9.619  0.00  0.00    +0.000 A 
ATOM     32  C   UNL     1      -5.543   1.140  10.416  0.00  0.00    +0.003 A 
ATOM     33  C   UNL     1      -4.287   0.903   9.893  0.00  0.00    +0.038 A 
ATOM     34  C   UNL     1      -4.019   1.210   8.569  0.00  0.00    +0.127 A 
ATOM     35  F   UNL     1      -2.791   0.979   8.057  0.00  0.00    -0.205 F 
ENDBRANCH  28  29
ENDBRANCH   1  28
TORSDOF 7
