REMARK  Name = ZINC42289739
REMARK  4 active torsions:
REMARK  status: ('A' for Active; 'I' for Inactive)
REMARK    1  A    between atoms: C_1  and  C_2
REMARK    2  A    between atoms: N_11  and  C_12
REMARK    3  A    between atoms: C_15  and  N_21
REMARK    4  A    between atoms: C_16  and  C_18
REMARK                            x       y       z     vdW  Elec       q    Type
REMARK                         _______ _______ _______ _____ _____    ______ ____
ROOT
ATOM      1  C   UNL     1       2.165  -0.260   1.245  0.00  0.00    +0.035 A 
ATOM      2  C   UNL     1       2.476   0.274   2.493  0.00  0.00    +0.025 A 
ATOM      3  C   UNL     1       3.786   0.544   2.828  0.00  0.00    +0.025 A 
ATOM      4  C   UNL     1       4.806   0.286   1.920  0.00  0.00    +0.037 A 
ATOM      5  C   UNL     1       4.500  -0.252   0.661  0.00  0.00    +0.059 A 
ATOM      6  C   UNL     1       3.170  -0.528   0.333  0.00  0.00    +0.038 A 
ENDROOT
BRANCH   1  16
ATOM      7  C   UNL     1       0.084   1.532  -0.195  0.00  0.00    +0.029 C 
ATOM      8  C   UNL     1       0.131   0.004  -0.257  0.00  0.00    +0.080 C 
ATOM      9  C   UNL     1      -1.290  -0.577  -0.179  0.00  0.00    +0.059 C 
ATOM     10  C   UNL     1      -1.286  -1.424   1.073  0.00  0.00    -0.024 A 
ATOM     11  C   UNL     1      -2.280  -2.188   1.654  0.00  0.00    +0.005 A 
ATOM     12  C   UNL     1      -2.028  -2.885   2.821  0.00  0.00    +0.000 A 
ATOM     13  C   UNL     1      -0.777  -2.817   3.407  0.00  0.00    +0.002 A 
ATOM     14  C   UNL     1       0.218  -2.056   2.832  0.00  0.00    +0.024 A 
ATOM     15  C   UNL     1      -0.029  -1.349   1.653  0.00  0.00    +0.037 A 
ATOM     16  N   UNL     1       0.831  -0.530   0.915  0.00  0.00    -0.297 N 
ENDBRANCH   1  16
BRANCH   5  17
ATOM     17  C   UNL     1       5.576  -0.530  -0.308  0.00  0.00    +0.243 C 
ATOM     18  O   UNL     1       6.716  -0.185  -0.065  0.00  0.00    -0.270 OA
ATOM     19  N   UNL     1       5.295  -1.165  -1.463  0.00  0.00    -0.325 N 
ATOM     20  H   UNL     1       4.385  -1.440  -1.656  0.00  0.00    +0.145 HD
ATOM     21  H   UNL     1       6.003  -1.348  -2.100  0.00  0.00    +0.145 HD
ENDBRANCH   5  17
BRANCH   4  22
ATOM     22  N   UNL     1       6.128   0.560   2.259  0.00  0.00    -0.357 N 
ATOM     23  H   UNL     1       6.347   0.855   3.157  0.00  0.00    +0.142 HD
ATOM     24  H   UNL     1       6.829   0.456   1.598  0.00  0.00    +0.142 HD
ENDBRANCH   4  22
TORSDOF 3
