REMARK  Name = ZINC39469620
REMARK  7 active torsions:
REMARK  status: ('A' for Active; 'I' for Inactive)
REMARK    1  A    between atoms: C_1  and  S_2
REMARK    2  A    between atoms: S_2  and  C_3
REMARK    3  A    between atoms: C_15  and  C_16
REMARK    4  A    between atoms: C_21  and  O_22
REMARK    5  A    between atoms: P_25  and  S_28
REMARK    6  A    between atoms: S_28  and  O_31
REMARK    7  A    between atoms: O_31  and  C_32
REMARK                            x       y       z     vdW  Elec       q    Type
REMARK                         _______ _______ _______ _____ _____    ______ ____
ROOT
ATOM      1  C   UNL     1      -1.702  -0.454   0.016  0.00  0.00    +0.011 C 
ATOM      2  C   UNL     1      -2.650   0.490   0.024  0.00  0.00    -0.010 C 
ATOM      3  C   UNL     1      -4.099   0.087   0.047  0.00  0.00    +0.005 C 
ATOM      4  C   UNL     1      -4.960   1.210   0.608  0.00  0.00    -0.046 C 
ATOM      5  N   UNL     1      -4.591   1.517   2.000  0.00  0.00    +0.398 N 
ATOM      6  C   UNL     1      -4.789   0.341   2.850  0.00  0.00    -0.020 C 
ATOM      7  C   UNL     1      -3.922  -0.823   2.353  0.00  0.00    -0.003 C 
ATOM      8  C   UNL     1      -4.275  -1.156   0.923  0.00  0.00    +0.016 C 
ATOM      9  C   UNL     1      -3.321  -2.227   0.453  0.00  0.00    -0.013 C 
ATOM     10  C   UNL     1      -2.100  -1.882   0.012  0.00  0.00    -0.005 C 
ATOM     11  C   UNL     1      -4.374   0.617   4.301  0.00  0.00    +0.158 C 
ATOM     12  O   UNL     1      -5.191   1.672   4.841  0.00  0.00    -0.301 OA
ATOM     13  P   UNL     1      -5.329   3.040   3.971  0.00  0.00    +0.431 P 
ATOM     14  O   UNL     1      -4.142   3.899   4.173  0.00  0.00    -0.246 OA
ATOM     15  N   UNL     1      -5.422   2.544   2.395  0.00  0.00    -0.271 NA
ATOM     16  H   UNL     1      -6.034   2.962   1.768  0.00  0.00    +0.113 HD
ATOM     17  H   UNL     1      -3.630   1.822   2.038  0.00  0.00    -0.055 HD
ENDROOT
BRANCH  10  18
ATOM     18  C   UNL     1      -1.156  -2.919  -0.469  0.00  0.00    +0.024 A 
ATOM     19  C   UNL     1      -1.338  -3.505  -1.720  0.00  0.00    +0.012 A 
ATOM     20  C   UNL     1      -0.456  -4.470  -2.163  0.00  0.00    +0.001 A 
ATOM     21  C   UNL     1       0.609  -4.858  -1.369  0.00  0.00    +0.004 A 
ATOM     22  C   UNL     1       0.799  -4.284  -0.127  0.00  0.00    +0.046 A 
ATOM     23  C   UNL     1      -0.075  -3.309   0.328  0.00  0.00    +0.125 A 
BRANCH  23  24
ATOM     24  O   UNL     1       0.114  -2.739   1.547  0.00  0.00    -0.506 OA
ATOM     25  H   UNL     1      -0.331  -3.201   2.270  0.00  0.00    +0.292 HD
ENDBRANCH  23  24
ENDBRANCH  10  18
BRANCH  13  26
ATOM     26  S   UNL     1      -7.092   4.083   4.518  0.00  0.00    +0.209 S 
ATOM     27  O   UNL     1      -7.062   5.323   3.824  0.00  0.00    -0.126 OA
ATOM     28  O   UNL     1      -8.166   3.163   4.387  0.00  0.00    -0.126 OA
BRANCH  26  29
ATOM     29  O   UNL     1      -6.979   4.412   6.000  0.00  0.00    -0.339 OA
BRANCH  29  30
ATOM     30  C   UNL     1      -6.119   5.427   6.277  0.00  0.00    +0.157 A 
ATOM     31  C   UNL     1      -4.780   5.157   6.520  0.00  0.00    +0.048 A 
ATOM     32  C   UNL     1      -3.908   6.191   6.801  0.00  0.00    +0.004 A 
ATOM     33  C   UNL     1      -4.369   7.494   6.841  0.00  0.00    +0.000 A 
ATOM     34  C   UNL     1      -5.703   7.765   6.600  0.00  0.00    +0.004 A 
ATOM     35  C   UNL     1      -6.578   6.736   6.312  0.00  0.00    +0.048 A 
ENDBRANCH  29  30
ENDBRANCH  26  29
ENDBRANCH  13  26
BRANCH   1  37
ATOM     36  C   UNL     1      -0.022   1.810   0.012  0.00  0.00    +0.090 C 
ATOM     37  S   UNL     1       0.002  -0.004   0.002  0.00  0.00    -0.128 S 
ENDBRANCH   1  37
TORSDOF 6
