REMARK  Name = ZINC01147046
REMARK  11 active torsions:
REMARK  status: ('A' for Active; 'I' for Inactive)
REMARK    1  A    between atoms: C_1  and  C_2
REMARK    2  A    between atoms: C_4  and  C_33
REMARK    3  A    between atoms: C_6  and  N_8
REMARK    4  A    between atoms: N_8  and  C_9
REMARK    5  A    between atoms: N_8  and  S_24
REMARK    6  A    between atoms: C_9  and  C_10
REMARK    7  A    between atoms: N_12  and  C_13
REMARK    8  A    between atoms: C_15  and  N_21
REMARK    9  A    between atoms: C_18  and  O_19
REMARK   10  A    between atoms: O_19  and  C_20
REMARK   11  A    between atoms: S_24  and  C_27
REMARK                            x       y       z     vdW  Elec       q    Type
REMARK                         _______ _______ _______ _____ _____    ______ ____
ROOT
ATOM      1  N   UNL     1       4.341  -1.057  -1.875  0.00  0.00    -0.194 N 
ENDROOT
BRANCH   1   7
ATOM      2  C   UNL     1       5.572   3.448  -3.408  0.00  0.00    +0.044 C 
ATOM      3  C   UNL     1       5.485   1.961  -3.634  0.00  0.00    -0.048 A 
ATOM      4  C   UNL     1       5.934   1.416  -4.823  0.00  0.00    +0.006 A 
ATOM      5  C   UNL     1       5.856   0.051  -5.035  0.00  0.00    -0.048 A 
ATOM      6  C   UNL     1       5.329  -0.772  -4.059  0.00  0.00    +0.028 A 
ATOM      7  C   UNL     1       4.876  -0.227  -2.864  0.00  0.00    +0.052 A 
ATOM      8  C   UNL     1       4.951   1.144  -2.656  0.00  0.00    +0.028 A 
ATOM      9  C   UNL     1       6.348  -0.538  -6.332  0.00  0.00    +0.044 C 
ENDBRANCH   1   7
BRANCH   1  10
ATOM     10  S   UNL     1       5.077  -1.161  -0.395  0.00  0.00    +0.075 S 
ATOM     11  O   UNL     1       6.438  -0.804  -0.592  0.00  0.00    -0.150 OA
ATOM     12  O   UNL     1       4.689  -2.408   0.164  0.00  0.00    -0.150 OA
BRANCH  10  13
ATOM     13  C   UNL     1       4.371   0.090   0.626  0.00  0.00    +0.109 A 
ATOM     14  C   UNL     1       3.181  -0.147   1.288  0.00  0.00    +0.029 A 
ATOM     15  C   UNL     1       2.627   0.834   2.088  0.00  0.00    +0.002 A 
ATOM     16  C   UNL     1       3.264   2.054   2.227  0.00  0.00    +0.000 A 
ATOM     17  C   UNL     1       4.454   2.291   1.565  0.00  0.00    +0.002 A 
ATOM     18  C   UNL     1       5.007   1.310   0.764  0.00  0.00    +0.029 A 
ENDBRANCH  10  13
ENDBRANCH   1  10
BRANCH   1  19
ATOM     19  C   UNL     1       3.131  -1.835  -2.148  0.00  0.00    +0.227 C 
BRANCH  19  20
ATOM     20  C   UNL     1       1.916  -0.982  -1.886  0.00  0.00    +0.236 C 
ATOM     21  O   UNL     1       2.049   0.163  -1.509  0.00  0.00    -0.274 OA
ATOM     22  N   UNL     1       0.682  -1.492  -2.071  0.00  0.00    -0.281 N 
ATOM     23  H   UNL     1       0.576  -2.386  -2.431  0.00  0.00    +0.155 HD
BRANCH  22  24
ATOM     24  C   UNL     1      -0.447  -0.729  -1.744  0.00  0.00    +0.078 A 
ATOM     25  C   UNL     1      -0.394   0.655  -1.808  0.00  0.00    +0.059 A 
ATOM     26  C   UNL     1      -1.510   1.405  -1.490  0.00  0.00    +0.128 A 
ATOM     27  C   UNL     1      -2.679   0.779  -1.098  0.00  0.00    +0.036 A 
ATOM     28  C   UNL     1      -2.738  -0.601  -1.027  0.00  0.00    +0.050 A 
ATOM     29  C   UNL     1      -1.625  -1.360  -1.349  0.00  0.00    +0.141 A 
BRANCH  26  30
ATOM     30  N   UNL     1      -1.453   2.882  -1.563  0.00  0.00    +0.056 N 
ATOM     31  O   UNL     1      -2.435   3.545  -1.279  0.00  0.00    -0.126 OA
ATOM     32  O   UNL     1      -0.425   3.436  -1.908  0.00  0.00    -0.126 OA
ENDBRANCH  26  30
BRANCH  29  33
ATOM     33  O   UNL     1      -1.682  -2.716  -1.280  0.00  0.00    -0.493 OA
ATOM     34  C   UNL     1      -2.922  -3.294  -0.867  0.00  0.00    +0.277 C 
ENDBRANCH  29  33
ENDBRANCH  22  24
ENDBRANCH  19  20
ENDBRANCH   1  19
TORSDOF 8
