REMARK  Name = ZINC42463239
REMARK  5 active torsions:
REMARK  status: ('A' for Active; 'I' for Inactive)
REMARK    1  A    between atoms: C_1  and  C_2
REMARK    2  A    between atoms: C_2  and  C_18
REMARK    3  A    between atoms: C_11  and  C_13
REMARK    4  A    between atoms: C_13  and  C_14
REMARK    5  A    between atoms: C_14  and  C_15
REMARK                            x       y       z     vdW  Elec       q    Type
REMARK                         _______ _______ _______ _____ _____    ______ ____
ROOT
ATOM      1  C   UNL     1       0.009   1.543   0.053  0.00  0.00    +0.034 C 
ATOM      2  C   UNL     1      -0.065   0.017  -0.039  0.00  0.00    +0.057 C 
ATOM      3  C   UNL     1      -1.522  -0.438   0.095  0.00  0.00    +0.185 C 
ATOM      4  O   UNL     1      -1.980  -0.166   1.421  0.00  0.00    -0.376 OA
ATOM      5  C   UNL     1      -1.272  -0.872   2.442  0.00  0.00    +0.179 C 
ATOM      6  C   UNL     1       0.199  -0.439   2.428  0.00  0.00    +0.138 C 
ATOM      7  N   UNL     1       0.712  -0.583   1.057  0.00  0.00    -0.276 N 
ATOM      8  C   UNL     1       1.860  -1.246   0.811  0.00  0.00    +0.309 C 
ATOM      9  O   UNL     1       2.322  -1.266  -0.313  0.00  0.00    -0.252 OA
ATOM     10  N   UNL     1       2.496  -1.885   1.813  0.00  0.00    -0.240 N 
ATOM     11  C   UNL     1       3.696  -2.457   1.592  0.00  0.00    +0.221 C 
ATOM     12  O   UNL     1       4.204  -2.396   0.493  0.00  0.00    -0.275 OA
ATOM     13  C   UNL     1       0.499  -0.445  -1.384  0.00  0.00    +0.034 C 
ATOM     14  H   UNL     1       2.090  -1.934   2.692  0.00  0.00    +0.159 HD
ENDROOT
BRANCH  11  15
ATOM     15  C   UNL     1       4.407  -3.173   2.712  0.00  0.00    +0.107 C 
BRANCH  15  16
ATOM     16  C   UNL     1       5.739  -3.726   2.199  0.00  0.00    +0.134 C 
BRANCH  16  17
ATOM     17  C   UNL     1       6.449  -4.441   3.319  0.00  0.00    +0.356 C 
ATOM     18  O   UNL     1       5.939  -4.503   4.424  0.00  0.00    -0.246 OA
ATOM     19  O   UNL     1       7.535  -4.959   3.119  0.00  0.00    -0.246 OA
ENDBRANCH  16  17
ENDBRANCH  15  16
ENDBRANCH  11  15
TORSDOF 3
