REMARK  Name = ZINC28057022
REMARK  4 active torsions:
REMARK  status: ('A' for Active; 'I' for Inactive)
REMARK    1  A    between atoms: C_1  and  O_2
REMARK    2  A    between atoms: O_2  and  C_3
REMARK    3  A    between atoms: C_7  and  C_9
REMARK    4  A    between atoms: C_20  and  C_22
REMARK                            x       y       z     vdW  Elec       q    Type
REMARK                         _______ _______ _______ _____ _____    ______ ____
ROOT
ATOM      1  C   UNL     1       2.710  -0.207   2.246  0.00  0.00    +0.174 C 
ATOM      2  C   UNL     1       3.046   0.989   1.389  0.00  0.00    +0.025 C 
ATOM      3  C   UNL     1       3.816   1.987   1.827  0.00  0.00    +0.050 C 
ATOM      4  C   UNL     1       4.110   3.108   0.902  0.00  0.00    +0.039 A 
ATOM      5  C   UNL     1       4.603   4.322   1.365  0.00  0.00    +0.033 A 
ATOM      6  C   UNL     1       4.866   5.338   0.464  0.00  0.00    +0.042 A 
ATOM      7  C   UNL     1       4.641   5.148  -0.889  0.00  0.00    +0.023 A 
ATOM      8  C   UNL     1       4.149   3.943  -1.357  0.00  0.00    +0.048 A 
ATOM      9  C   UNL     1       3.881   2.919  -0.467  0.00  0.00    +0.131 A 
ATOM     10  O   UNL     1       3.397   1.722  -0.887  0.00  0.00    -0.479 OA
ATOM     11  C   UNL     1       2.490   1.047  -0.016  0.00  0.00    +0.234 C 
ATOM     12 CL   UNL     1       5.482   6.858   1.033  0.00  0.00    -0.084 Cl
ATOM     13  N   UNL     1       4.344   2.012   3.123  0.00  0.00    -0.282 N 
ATOM     14  C   UNL     1       3.837   1.099   4.034  0.00  0.00    +0.240 A 
ATOM     15  N   UNL     1       3.063   0.057   3.634  0.00  0.00    -0.201 N 
ATOM     16  N   UNL     1       2.733  -0.630   4.802  0.00  0.00    -0.042 NA
ATOM     17  N   UNL     1       3.301   0.005   5.776  0.00  0.00    -0.021 NA
ATOM     18  N   UNL     1       3.953   1.024   5.328  0.00  0.00    -0.092 NA
ATOM     19  H   UNL     1       5.129   2.737   3.383  0.00  0.00    +0.155 HD
ENDROOT
BRANCH  11  20
ATOM     20  C   UNL     1       1.175   1.783   0.000  0.00  0.00    -0.002 A 
ATOM     21  C   UNL     1      -0.012   1.079  -0.085  0.00  0.00    +0.007 A 
ATOM     22  C   UNL     1      -1.218   1.754  -0.076  0.00  0.00    +0.002 A 
ATOM     23  C   UNL     1      -1.238   3.132   0.030  0.00  0.00    +0.020 A 
ATOM     24  C   UNL     1      -0.051   3.837   0.116  0.00  0.00    +0.041 A 
ATOM     25  C   UNL     1       1.156   3.161   0.101  0.00  0.00    +0.027 A 
ATOM     26 CL   UNL     1      -0.076   5.568   0.242  0.00  0.00    -0.084 Cl
ENDBRANCH  11  20
BRANCH   1  31
ATOM     27  C   UNL     1       3.516  -3.633   0.871  0.00  0.00    +0.120 A 
ATOM     28  C   UNL     1       4.903  -3.604   0.859  0.00  0.00    +0.045 A 
ATOM     29  C   UNL     1       5.574  -2.478   1.294  0.00  0.00    +0.004 A 
ATOM     30  C   UNL     1       4.863  -1.379   1.743  0.00  0.00    +0.006 A 
ATOM     31  C   UNL     1       3.481  -1.405   1.756  0.00  0.00    -0.015 A 
ATOM     32  C   UNL     1       2.806  -2.532   1.326  0.00  0.00    +0.051 A 
BRANCH  27  34
ATOM     33  C   UNL     1       3.651  -5.839  -0.006  0.00  0.00    +0.277 C 
ATOM     34  O   UNL     1       2.854  -4.740   0.443  0.00  0.00    -0.495 OA
ENDBRANCH  27  34
ENDBRANCH   1  31
TORSDOF 3
