REMARK  Name = ZINC32011575
REMARK  4 active torsions:
REMARK  status: ('A' for Active; 'I' for Inactive)
REMARK    1  A    between atoms: C_1  and  C_2
REMARK    2  A    between atoms: N_9  and  N_10
REMARK    3  A    between atoms: C_13  and  C_16
REMARK    4  A    between atoms: C_26  and  C_29
REMARK                            x       y       z     vdW  Elec       q    Type
REMARK                         _______ _______ _______ _____ _____    ______ ____
ROOT
ATOM      1  C   UNL     1      -8.776   5.024   0.729  0.00  0.00    +0.044 C 
ATOM      2  C   UNL     1      -9.106   6.452   0.375  0.00  0.00    -0.050 A 
ATOM      3  C   UNL     1     -10.405   6.799   0.046  0.00  0.00    +0.007 A 
ATOM      4  C   UNL     1     -10.724   8.104  -0.279  0.00  0.00    +0.046 A 
ATOM      5  C   UNL     1      -9.739   9.081  -0.279  0.00  0.00    +0.130 A 
ATOM      6  C   UNL     1      -8.424   8.727   0.050  0.00  0.00    +0.040 A 
ATOM      7  C   UNL     1      -8.112   7.410   0.378  0.00  0.00    +0.016 A 
ATOM      8  C   UNL     1      -7.377   9.772   0.041  0.00  0.00    +0.074 C 
ATOM      9  N   UNL     1      -6.115   9.475   0.111  0.00  0.00    -0.185 NA
ATOM     10  C   UNL     1      -7.856  11.210  -0.046  0.00  0.00    +0.107 C 
ATOM     11  C   UNL     1      -9.024  11.233  -1.049  0.00  0.00    +0.209 C 
ATOM     12  O   UNL     1     -10.057  10.362  -0.588  0.00  0.00    -0.483 OA
ENDROOT
BRANCH   9  13
ATOM     13  N   UNL     1      -5.678   8.188  -0.230  0.00  0.00    -0.215 N 
ATOM     14  C   UNL     1      -4.356   7.830  -0.026  0.00  0.00    +0.178 A 
ATOM     15  N   UNL     1      -3.754   6.683  -0.283  0.00  0.00    -0.220 NA
ATOM     16  C   UNL     1      -2.461   6.510  -0.016  0.00  0.00    +0.115 A 
ATOM     17  C   UNL     1      -1.745   7.545   0.523  0.00  0.00    +0.080 A 
ATOM     18  S   UNL     1      -3.013   8.800   0.645  0.00  0.00    -0.059 S 
ATOM     19  H   UNL     1      -6.385   7.463  -0.658  0.00  0.00    +0.176 HD
BRANCH  16  20
ATOM     20  C   UNL     1      -1.805   5.218  -0.303  0.00  0.00    +0.155 A 
ATOM     21  C   UNL     1      -2.420   4.133  -0.834  0.00  0.00    +0.060 A 
ATOM     22  C   UNL     1      -1.391   3.095  -0.941  0.00  0.00    +0.021 A 
ATOM     23  C   UNL     1      -1.382   1.779  -1.405  0.00  0.00    +0.011 A 
ATOM     24  C   UNL     1      -0.223   1.054  -1.363  0.00  0.00    +0.001 A 
ATOM     25  C   UNL     1       0.944   1.623  -0.874  0.00  0.00    +0.004 A 
ATOM     26  C   UNL     1       0.955   2.925  -0.418  0.00  0.00    +0.047 A 
ATOM     27  C   UNL     1      -0.211   3.677  -0.445  0.00  0.00    +0.136 A 
ATOM     28  O   UNL     1      -0.505   4.941  -0.077  0.00  0.00    -0.453 OA
ENDBRANCH  16  20
ENDBRANCH   9  13
BRANCH  11  29
ATOM     29  C   UNL     1      -9.563  12.637  -1.159  0.00  0.00    -0.007 A 
ATOM     30  C   UNL     1     -10.425  13.124  -0.195  0.00  0.00    +0.007 A 
ATOM     31  C   UNL     1     -10.915  14.413  -0.293  0.00  0.00    +0.000 A 
ATOM     32  C   UNL     1     -10.551  15.211  -1.362  0.00  0.00    +0.000 A 
ATOM     33  C   UNL     1      -9.693  14.722  -2.329  0.00  0.00    +0.000 A 
ATOM     34  C   UNL     1      -9.199  13.434  -2.228  0.00  0.00    +0.007 A 
ENDBRANCH  11  29
TORSDOF 3
