REMARK  Name = ZINC13316767
REMARK  10 active torsions:
REMARK  status: ('A' for Active; 'I' for Inactive)
REMARK    1  A    between atoms: C_1  and  C_2
REMARK    2  A    between atoms: C_4  and  C_18
REMARK    3  A    between atoms: C_5  and  C_17
REMARK    4  A    between atoms: N_6  and  C_7
REMARK    5  A    between atoms: C_10  and  O_13
REMARK    6  A    between atoms: O_13  and  C_14
REMARK    7  A    between atoms: C_18  and  C_20
REMARK    8  A    between atoms: C_20  and  N_21
REMARK    9  A    between atoms: C_23  and  N_30
REMARK   10  A    between atoms: C_25  and  C_28
REMARK                            x       y       z     vdW  Elec       q    Type
REMARK                         _______ _______ _______ _____ _____    ______ ____
ROOT
ATOM      1  C   UNL     1       2.493   1.455  -0.013  0.00  0.00    +0.064 C 
ATOM      2  C   UNL     1       1.052   1.895   0.002  0.00  0.00    +0.022 A 
ATOM      3  C   UNL     1      -0.013   1.076   0.008  0.00  0.00    +0.034 A 
ATOM      4  C   UNL     1      -1.201   1.940   0.018  0.00  0.00    +0.040 A 
ATOM      5  C   UNL     1      -0.726   3.238   0.026  0.00  0.00    +0.031 A 
ATOM      6  N   UNL     1       0.620   3.192   0.013  0.00  0.00    -0.317 N 
ATOM      7  C   UNL     1      -1.567   4.488   0.042  0.00  0.00    +0.064 C 
ENDROOT
BRANCH   6   8
ATOM      8  C   UNL     1       1.460   4.316   0.012  0.00  0.00    +0.047 A 
ATOM      9  C   UNL     1       1.475   5.173   1.104  0.00  0.00    +0.030 A 
ATOM     10  C   UNL     1       2.306   6.276   1.104  0.00  0.00    +0.048 A 
ATOM     11  C   UNL     1       3.118   6.533   0.009  0.00  0.00    +0.127 A 
ATOM     12  C   UNL     1       3.099   5.680  -1.085  0.00  0.00    +0.048 A 
ATOM     13  C   UNL     1       2.272   4.574  -1.084  0.00  0.00    +0.030 A 
BRANCH  11  14
ATOM     14  O   UNL     1       3.932   7.622   0.007  0.00  0.00    -0.434 OA
BRANCH  14  15
ATOM     15  C   UNL     1       3.900   8.457   1.166  0.00  0.00    +0.541 C 
ATOM     16  F   UNL     1       2.605   8.956   1.347  0.00  0.00    -0.166 F 
ATOM     17  F   UNL     1       4.273   7.711   2.289  0.00  0.00    -0.166 F 
ENDBRANCH  14  15
ENDBRANCH  11  14
ENDBRANCH   6   8
BRANCH   4  18
ATOM     18  C   UNL     1      -2.602   1.513   0.020  0.00  0.00    +0.184 C 
ATOM     19  O   UNL     1      -3.488   2.342   0.028  0.00  0.00    -0.290 OA
BRANCH  18  20
ATOM     20  C   UNL     1      -2.942   0.045   0.014  0.00  0.00    +0.204 C 
BRANCH  20  21
ATOM     21  N   UNL     1      -4.398  -0.118   0.018  0.00  0.00    -0.305 N 
ATOM     22  C   UNL     1      -5.064  -0.186  -1.159  0.00  0.00    +0.122 A 
ATOM     23  C   UNL     1      -6.413  -0.337  -1.196  0.00  0.00    +0.143 A 
ATOM     24  C   UNL     1      -7.141  -0.426  -0.011  0.00  0.00    +0.054 A 
ATOM     25  C   UNL     1      -6.462  -0.357   1.205  0.00  0.00    +0.130 A 
ATOM     26  C   UNL     1      -5.051  -0.204   1.193  0.00  0.00    +0.266 A 
ATOM     27  O   UNL     1      -4.434  -0.146   2.242  0.00  0.00    -0.267 OA
BRANCH  25  28
ATOM     28  C   UNL     1      -7.194  -0.446   2.476  0.00  0.00    +0.392 C 
ATOM     29  O   UNL     1      -8.402  -0.582   2.474  0.00  0.00    -0.240 OA
ATOM     30  O   UNL     1      -6.525  -0.378   3.645  0.00  0.00    -0.240 OA
ENDBRANCH  25  28
BRANCH  23  31
ATOM     31  N   UNL     1      -7.112  -0.407  -2.499  0.00  0.00    +0.058 N 
ATOM     32  O   UNL     1      -6.477  -0.329  -3.536  0.00  0.00    -0.126 OA
ATOM     33  O   UNL     1      -8.322  -0.542  -2.535  0.00  0.00    -0.126 OA
ENDBRANCH  23  31
ENDBRANCH  20  21
ENDBRANCH  18  20
ENDBRANCH   4  18
TORSDOF 8
