REMARK  Name = ZINC06149569
REMARK  13 active torsions:
REMARK  status: ('A' for Active; 'I' for Inactive)
REMARK    1  A    between atoms: C_1  and  C_2
REMARK    2  A    between atoms: C_2  and  C_3
REMARK    3  A    between atoms: C_3  and  C_4
REMARK    4  A    between atoms: C_3  and  C_5
REMARK    5  A    between atoms: C_3  and  N_6
REMARK    6  A    between atoms: C_7  and  C_11
REMARK    7  A    between atoms: C_11  and  C_13
REMARK    8  A    between atoms: C_11  and  N_70
REMARK    9  A    between atoms: C_18  and  C_25
REMARK   10  A    between atoms: C_26  and  C_27
REMARK   11  A    between atoms: C_26  and  N_70
REMARK   12  A    between atoms: C_32  and  C_33
REMARK   13  A    between atoms: C_32  and  N_70
REMARK                            x       y       z     vdW  Elec       q    Type
REMARK                         _______ _______ _______ _____ _____    ______ ____
ROOT
ATOM      1  C   UNL     1      -2.526   3.624   6.928  0.00  0.00    +0.039 C 
ENDROOT
BRANCH   1   2
ATOM      2  C   UNL     1      -1.567   3.374   5.793  0.00  0.00    +0.011 A 
ATOM      3  C   UNL     1      -2.018   2.841   4.631  0.00  0.00    +0.017 A 
ATOM      4  C   UNL     1      -1.060   2.610   3.549  0.00  0.00    -0.001 A 
ATOM      5  C   UNL     1      -1.467   2.063   2.327  0.00  0.00    +0.010 A 
ATOM      6  C   UNL     1      -0.549   1.865   1.335  0.00  0.00    +0.004 A 
ATOM      7  C   UNL     1       0.785   2.193   1.531  0.00  0.00    -0.048 A 
ATOM      8  C   UNL     1       1.208   2.734   2.726  0.00  0.00    +0.029 A 
ATOM      9  C   UNL     1       0.291   2.949   3.749  0.00  0.00    +0.049 A 
ATOM     10  N   UNL     1       0.686   3.489   4.955  0.00  0.00    -0.322 N 
ATOM     11  H   UNL     1       1.647   3.729   5.096  0.00  0.00    +0.169 HD
ATOM     12  C   UNL     1      -0.201   3.697   5.944  0.00  0.00    +0.251 A 
ATOM     13  O   UNL     1       0.184   4.176   6.996  0.00  0.00    -0.268 OA
ATOM     14  C   UNL     1       1.781   1.960   0.424  0.00  0.00    +0.044 C 
ENDBRANCH   1   2
BRANCH   1  16
ATOM     15  N   UNL     1      -2.876   1.694   8.558  0.00  0.00    -0.225 N 
ATOM     16  C   UNL     1      -2.167   2.740   8.094  0.00  0.00    +0.143 A 
ATOM     17  N   UNL     1      -1.106   2.843   8.857  0.00  0.00    -0.115 NA
ATOM     18  N   UNL     1      -1.158   1.907   9.740  0.00  0.00    -0.023 NA
ATOM     19  N   UNL     1      -2.225   1.208   9.560  0.00  0.00    -0.043 NA
BRANCH  15  20
ATOM     20  C   UNL     1      -4.147   1.199   8.023  0.00  0.00    +0.061 C 
ATOM     21  C   UNL     1      -5.224   2.272   8.190  0.00  0.00    +0.036 C 
ATOM     22  C   UNL     1      -3.982   0.869   6.538  0.00  0.00    +0.036 C 
BRANCH  20  24
ATOM     23  C   UNL     1      -5.889  -0.581   8.224  0.00  0.00    +0.006 C 
ATOM     24  C   UNL     1      -4.562  -0.063   8.782  0.00  0.00    +0.026 C 
ENDBRANCH  20  24
ENDBRANCH  15  20
ENDBRANCH   1  16
BRANCH   1  25
ATOM     25  N   UNL     1      -2.419   5.037   7.351  0.00  0.00    +0.394 N 
ATOM     26  H   UNL     1      -1.521   5.173   7.831  0.00  0.00    -0.080 HD
BRANCH  25  27
ATOM     27  C   UNL     1      -2.472   5.923   6.170  0.00  0.00    -0.034 C 
BRANCH  27  28
ATOM     28  C   UNL     1      -2.005   7.298   6.575  0.00  0.00    -0.027 A 
ATOM     29  C   UNL     1      -0.757   7.824   6.522  0.00  0.00    +0.009 A 
ATOM     30  C   UNL     1      -0.559   9.124   6.949  0.00  0.00    +0.008 A 
ATOM     31  C   UNL     1      -1.618   9.830   7.417  0.00  0.00    +0.045 A 
ATOM     32  S   UNL     1      -2.949   8.651   7.255  0.00  0.00    -0.103 S 
ENDBRANCH  27  28
ENDBRANCH  25  27
BRANCH  25  33
ATOM     33  C   UNL     1      -3.517   5.370   8.283  0.00  0.00    -0.045 C 
BRANCH  33  34
ATOM     34  C   UNL     1      -3.153   4.848   9.674  0.00  0.00    +0.102 C 
ATOM     35  C   UNL     1      -4.229   5.261  10.702  0.00  0.00    +0.032 C 
ATOM     36  C   UNL     1      -3.425   5.575  11.983  0.00  0.00    +0.030 C 
ATOM     37  C   UNL     1      -1.957   5.314  11.578  0.00  0.00    +0.160 C 
ATOM     38  O   UNL     1      -1.937   5.471  10.143  0.00  0.00    -0.378 OA
ENDBRANCH  33  34
ENDBRANCH  25  33
ENDBRANCH   1  25
TORSDOF 9
