REMARK  Name = ZINC09529486
REMARK  7 active torsions:
REMARK  status: ('A' for Active; 'I' for Inactive)
REMARK    1  A    between atoms: C_1  and  C_2
REMARK    2  A    between atoms: C_5  and  N_8
REMARK    3  A    between atoms: C_10  and  C_26
REMARK    4  A    between atoms: C_12  and  S_13
REMARK    5  A    between atoms: S_13  and  C_14
REMARK    6  A    between atoms: C_14  and  C_15
REMARK    7  A    between atoms: N_17  and  C_18
REMARK                            x       y       z     vdW  Elec       q    Type
REMARK                         _______ _______ _______ _____ _____    ______ ____
ROOT
ATOM      1  N   UNL     1       2.279   3.375  -0.058  0.00  0.00    -0.294 N 
ATOM      2  C   UNL     1       3.643   3.193  -0.075  0.00  0.00    +0.122 A 
ATOM      3  C   UNL     1       3.862   1.855  -0.081  0.00  0.00    +0.090 A 
ATOM      4  N   UNL     1       2.657   1.234  -0.062  0.00  0.00    -0.222 NA
ATOM      5  C   UNL     1       1.706   2.137  -0.044  0.00  0.00    +0.174 A 
ENDROOT
BRANCH   3   6
ATOM      6  C   UNL     1       5.187   1.188  -0.104  0.00  0.00    +0.006 A 
ATOM      7  C   UNL     1       6.353   1.948  -0.017  0.00  0.00    +0.014 A 
ATOM      8  C   UNL     1       7.585   1.326  -0.038  0.00  0.00    +0.050 A 
ATOM      9  C   UNL     1       7.668  -0.054  -0.146  0.00  0.00    +0.166 A 
ATOM     10  C   UNL     1       6.505  -0.818  -0.234  0.00  0.00    +0.167 A 
ATOM     11  C   UNL     1       5.268  -0.199  -0.207  0.00  0.00    +0.059 A 
ATOM     12  O   UNL     1       6.855  -2.134  -0.330  0.00  0.00    -0.453 OA
ATOM     13  C   UNL     1       8.224  -2.202   0.110  0.00  0.00    +0.466 C 
ATOM     14  O   UNL     1       8.745  -0.893  -0.188  0.00  0.00    -0.453 OA
ENDBRANCH   3   6
BRANCH   1  19
ATOM     15  C   UNL     1      -0.454   8.349  -0.034  0.00  0.00    +0.044 C 
ATOM     16  C   UNL     1       0.272   7.028  -0.040  0.00  0.00    -0.050 A 
ATOM     17  C   UNL     1       1.294   6.798   0.863  0.00  0.00    +0.005 A 
ATOM     18  C   UNL     1       1.961   5.588   0.859  0.00  0.00    +0.026 A 
ATOM     19  C   UNL     1       1.604   4.604  -0.052  0.00  0.00    +0.049 A 
ATOM     20  C   UNL     1       0.582   4.840  -0.961  0.00  0.00    +0.026 A 
ATOM     21  C   UNL     1      -0.086   6.049  -0.949  0.00  0.00    +0.005 A 
ENDBRANCH   1  19
BRANCH   5  22
ATOM     22  S   UNL     1      -0.025   1.807  -0.016  0.00  0.00    -0.078 S 
BRANCH  22  23
ATOM     23  C   UNL     1       0.001  -0.003  -0.018  0.00  0.00    +0.173 C 
BRANCH  23  24
ATOM     24  C   UNL     1      -1.412  -0.526   0.005  0.00  0.00    +0.228 C 
ATOM     25  O   UNL     1      -2.345   0.250   0.022  0.00  0.00    -0.275 OA
ATOM     26  N   UNL     1      -1.640  -1.854   0.008  0.00  0.00    -0.283 N 
ATOM     27  H   UNL     1      -0.898  -2.473  -0.070  0.00  0.00    +0.155 HD
BRANCH  26  28
ATOM     28  C   UNL     1      -2.949  -2.340   0.123  0.00  0.00    +0.069 A 
ATOM     29  C   UNL     1      -4.003  -1.645  -0.454  0.00  0.00    +0.029 A 
ATOM     30  C   UNL     1      -5.293  -2.126  -0.339  0.00  0.00    +0.040 A 
ATOM     31  C   UNL     1      -5.536  -3.302   0.351  0.00  0.00    +0.126 A 
ATOM     32  C   UNL     1      -4.488  -3.998   0.928  0.00  0.00    +0.078 A 
ATOM     33  C   UNL     1      -3.194  -3.523   0.812  0.00  0.00    +0.147 A 
ATOM     34  F   UNL     1      -2.171  -4.205   1.370  0.00  0.00    -0.203 F 
ATOM     35  F   UNL     1      -6.799  -3.770   0.461  0.00  0.00    -0.205 F 
ENDBRANCH  26  28
ENDBRANCH  23  24
ENDBRANCH  22  23
ENDBRANCH   5  22
TORSDOF 6
