REMARK  Name = ZINC25497449
REMARK  14 active torsions:
REMARK  status: ('A' for Active; 'I' for Inactive)
REMARK    1  A    between atoms: C_1  and  C_2
REMARK    2  A    between atoms: C_2  and  C_4
REMARK    3  A    between atoms: C_2  and  N_12
REMARK    4  A    between atoms: C_9  and  O_10
REMARK    5  A    between atoms: O_10  and  C_11
REMARK    6  A    between atoms: C_13  and  C_15
REMARK    7  A    between atoms: C_15  and  C_17
REMARK    8  A    between atoms: C_15  and  N_18
REMARK    9  A    between atoms: N_18  and  C_19
REMARK   10  A    between atoms: C_22  and  N_25
REMARK   11  A    between atoms: C_26  and  C_28
REMARK   12  A    between atoms: C_28  and  C_29
REMARK   13  A    between atoms: C_29  and  C_30
REMARK   14  A    between atoms: C_29  and  C_31
REMARK                            x       y       z     vdW  Elec       q    Type
REMARK                         _______ _______ _______ _____ _____    ______ ____
ROOT
ATOM      1  C   UNL     1       2.764  -1.134   2.382  0.00  0.00    +0.154 C 
ATOM      2  C   UNL     1       2.474  -0.202   3.560  0.00  0.00    +0.038 C 
ENDROOT
BRANCH   1   4
ATOM      3  N   UNL     1       0.690  -0.539   1.171  0.00  0.00    -0.307 N 
ATOM      4  C   UNL     1       2.034  -0.640   1.159  0.00  0.00    +0.233 C 
ATOM      5  O   UNL     1       2.656  -0.334   0.165  0.00  0.00    -0.274 OA
ATOM      6  H   UNL     1       0.193  -0.785   1.967  0.00  0.00    +0.149 HD
BRANCH   3   8
ATOM      7  C   UNL     1      -0.051   1.470  -0.009  0.00  0.00    +0.033 C 
ATOM      8  C   UNL     1      -0.019  -0.060  -0.017  0.00  0.00    +0.104 C 
BRANCH   8   9
ATOM      9  C   UNL     1      -1.429  -0.591  -0.010  0.00  0.00    +0.014 A 
ATOM     10  C   UNL     1      -2.033  -0.933   1.185  0.00  0.00    +0.009 A 
ATOM     11  C   UNL     1      -3.326  -1.422   1.193  0.00  0.00    +0.001 A 
ATOM     12  C   UNL     1      -4.019  -1.569   0.005  0.00  0.00    +0.004 A 
ATOM     13  C   UNL     1      -3.420  -1.228  -1.192  0.00  0.00    +0.046 A 
ATOM     14  C   UNL     1      -2.124  -0.733  -1.202  0.00  0.00    +0.125 A 
BRANCH  14  15
ATOM     15  O   UNL     1      -1.535  -0.391  -2.378  0.00  0.00    -0.495 OA
ATOM     16  C   UNL     1      -2.310  -0.563  -3.566  0.00  0.00    +0.277 C 
ENDBRANCH  14  15
ENDBRANCH   8   9
ENDBRANCH   3   8
ENDBRANCH   1   4
BRANCH   1  17
ATOM     17  N   UNL     1       4.205  -1.152   2.117  0.00  0.00    -0.333 N 
ATOM     18  H   UNL     1       4.581  -0.563   1.444  0.00  0.00    +0.147 HD
BRANCH  17  19
ATOM     19  C   UNL     1       5.037  -2.018   2.834  0.00  0.00    +0.028 A 
ATOM     20  C   UNL     1       4.497  -2.865   3.793  0.00  0.00    +0.025 A 
ATOM     21  C   UNL     1       5.318  -3.720   4.501  0.00  0.00    +0.025 A 
ATOM     22  C   UNL     1       6.684  -3.732   4.254  0.00  0.00    +0.033 A 
ATOM     23  C   UNL     1       7.225  -2.885   3.295  0.00  0.00    +0.025 A 
ATOM     24  C   UNL     1       6.403  -2.035   2.583  0.00  0.00    +0.025 A 
BRANCH  22  25
ATOM     25  N   UNL     1       7.518  -4.600   4.973  0.00  0.00    -0.285 N 
ATOM     26  C   UNL     1       7.251  -4.875   6.264  0.00  0.00    +0.217 C 
ATOM     27  O   UNL     1       6.244  -4.440   6.782  0.00  0.00    -0.275 OA
ATOM     28  H   UNL     1       8.288  -5.002   4.540  0.00  0.00    +0.155 HD
BRANCH  26  29
ATOM     29  C   UNL     1       8.204  -5.724   7.067  0.00  0.00    +0.099 C 
BRANCH  29  30
ATOM     30  C   UNL     1       7.669  -5.882   8.492  0.00  0.00    -0.008 C 
ATOM     31  C   UNL     1       8.569  -6.844   9.270  0.00  0.00    +0.008 C 
ATOM     32  C   UNL     1       7.658  -4.519   9.187  0.00  0.00    +0.008 C 
ENDBRANCH  29  30
ENDBRANCH  26  29
ENDBRANCH  22  25
ENDBRANCH  17  19
ENDBRANCH   1  17
TORSDOF 9
