REMARK  Name = ZINC22608856
REMARK  9 active torsions:
REMARK  status: ('A' for Active; 'I' for Inactive)
REMARK    1  A    between atoms: C_1  and  C_2
REMARK    2  A    between atoms: C_5  and  S_11
REMARK    3  A    between atoms: C_7  and  N_8
REMARK    4  A    between atoms: S_11  and  N_14
REMARK    5  A    between atoms: C_18  and  C_20
REMARK    6  A    between atoms: C_23  and  O_28
REMARK    7  A    between atoms: C_24  and  O_26
REMARK    8  A    between atoms: O_26  and  C_27
REMARK    9  A    between atoms: O_28  and  C_29
REMARK                            x       y       z     vdW  Elec       q    Type
REMARK                         _______ _______ _______ _____ _____    ______ ____
ROOT
ATOM      1  N   UNL     1       1.635  -1.171   6.060  0.00  0.00    -0.169 NA
ATOM      2  C   UNL     1       3.065  -0.880   6.268  0.00  0.00    +0.110 C 
ATOM      3  C   UNL     1       3.087   0.449   7.064  0.00  0.00    +0.019 C 
ATOM      4  C   UNL     1       1.897   1.214   6.427  0.00  0.00    +0.027 C 
ATOM      5  C   UNL     1       0.882   0.089   6.133  0.00  0.00    +0.110 C 
ENDROOT
BRANCH   5   6
ATOM      6  C   UNL     1       0.193   0.351   4.819  0.00  0.00    -0.025 A 
ATOM      7  C   UNL     1       0.846   0.077   3.631  0.00  0.00    +0.009 A 
ATOM      8  C   UNL     1       0.218   0.316   2.423  0.00  0.00    +0.050 A 
ATOM      9  C   UNL     1      -1.067   0.832   2.400  0.00  0.00    +0.162 A 
ATOM     10  C   UNL     1      -1.722   1.113   3.595  0.00  0.00    +0.162 A 
ATOM     11  C   UNL     1      -1.090   0.866   4.803  0.00  0.00    +0.054 A 
BRANCH  10  12
ATOM     12  O   UNL     1      -2.982   1.625   3.577  0.00  0.00    -0.491 OA
ATOM     13  C   UNL     1      -3.593   1.889   4.842  0.00  0.00    +0.277 C 
ENDBRANCH  10  12
BRANCH   9  14
ATOM     14  O   UNL     1      -1.686   1.067   1.212  0.00  0.00    -0.491 OA
ATOM     15  C   UNL     1      -0.951   0.760   0.025  0.00  0.00    +0.277 C 
ENDBRANCH   9  14
ENDBRANCH   5   6
BRANCH   1  16
ATOM     16  S   UNL     1       0.985  -2.670   5.788  0.00  0.00    +0.061 S 
ATOM     17  O   UNL     1       1.897  -3.613   6.335  0.00  0.00    -0.153 OA
ATOM     18  O   UNL     1      -0.375  -2.602   6.194  0.00  0.00    -0.153 OA
BRANCH  16  23
ATOM     19  C   UNL     1       0.965  -3.551  -0.181  0.00  0.00    +0.046 C 
ATOM     20  C   UNL     1       0.970  -3.331   1.310  0.00  0.00    -0.020 A 
ATOM     21  C   UNL     1       2.065  -3.716   2.062  0.00  0.00    +0.007 A 
ATOM     22  C   UNL     1       2.069  -3.514   3.429  0.00  0.00    +0.029 A 
ATOM     23  C   UNL     1       0.980  -2.927   4.045  0.00  0.00    +0.108 A 
ATOM     24  C   UNL     1      -0.117  -2.547   3.294  0.00  0.00    +0.061 A 
ATOM     25  C   UNL     1      -0.119  -2.744   1.926  0.00  0.00    +0.131 A 
BRANCH  25  26
ATOM     26  N   UNL     1      -1.291  -2.332   1.121  0.00  0.00    +0.057 N 
ATOM     27  O   UNL     1      -2.204  -1.719   1.644  0.00  0.00    -0.126 OA
ATOM     28  O   UNL     1      -1.342  -2.605  -0.065  0.00  0.00    -0.126 OA
ENDBRANCH  25  26
ENDBRANCH  16  23
ENDBRANCH   1  16
TORSDOF 6
