REMARK  Name = ZINC59782551
REMARK  9 active torsions:
REMARK  status: ('A' for Active; 'I' for Inactive)
REMARK    1  A    between atoms: C_1  and  O_2
REMARK    2  A    between atoms: O_2  and  C_3
REMARK    3  A    between atoms: C_8  and  C_9
REMARK    4  A    between atoms: C_9  and  C_11
REMARK    5  A    between atoms: C_9  and  N_28
REMARK    6  A    between atoms: C_11  and  N_12
REMARK    7  A    between atoms: C_13  and  C_15
REMARK    8  A    between atoms: C_15  and  C_16
REMARK    9  A    between atoms: C_16  and  N_17
REMARK                            x       y       z     vdW  Elec       q    Type
REMARK                         _______ _______ _______ _____ _____    ______ ____
ROOT
ATOM      1  C   UNL     1       0.791  -2.896  -1.330  0.00  0.00    +0.093 C 
ENDROOT
BRANCH   1   2
ATOM      2  N   UNL     1       0.122  -3.828  -2.241  0.00  0.00    -0.316 N 
ATOM      3  C   UNL     1       0.681  -4.126  -3.430  0.00  0.00    +0.214 C 
ATOM      4  O   UNL     1       1.739  -3.623  -3.746  0.00  0.00    -0.276 OA
ATOM      5  H   UNL     1      -0.724  -4.229  -1.989  0.00  0.00    +0.149 HD
BRANCH   3   6
ATOM      6  C   UNL     1      -0.007  -5.083  -4.368  0.00  0.00    +0.115 C 
BRANCH   6   7
ATOM      7  C   UNL     1       0.832  -5.247  -5.637  0.00  0.00    +0.126 C 
BRANCH   7   8
ATOM      8  N   UNL     1       0.162  -6.178  -6.549  0.00  0.00    -0.234 N 
ATOM      9  C   UNL     1       0.352  -7.510  -6.551  0.00  0.00    +0.254 C 
ATOM     10  O   UNL     1       1.094  -8.121  -5.810  0.00  0.00    -0.270 OA
ATOM     11  C   UNL     1      -0.495  -8.104  -7.607  0.00  0.00    +0.049 A 
ATOM     12  C   UNL     1      -0.711  -9.395  -8.062  0.00  0.00    +0.014 A 
ATOM     13  C   UNL     1      -1.598  -9.617  -9.104  0.00  0.00    +0.001 A 
ATOM     14  C   UNL     1      -2.268  -8.561  -9.691  0.00  0.00    +0.001 A 
ATOM     15  C   UNL     1      -2.062  -7.264  -9.246  0.00  0.00    +0.014 A 
ATOM     16  C   UNL     1      -1.178  -7.027  -8.206  0.00  0.00    +0.049 A 
ATOM     17  C   UNL     1      -0.728  -5.814  -7.490  0.00  0.00    +0.254 C 
ATOM     18  O   UNL     1      -1.098  -4.680  -7.715  0.00  0.00    -0.270 OA
ENDBRANCH   7   8
ENDBRANCH   6   7
ENDBRANCH   3   6
ENDBRANCH   1   2
BRANCH   1  19
ATOM     19  C   UNL     1       0.021  -2.832  -0.009  0.00  0.00    -0.017 C 
BRANCH  19  20
ATOM     20  N   UNL     1      -0.138  -4.189   0.532  0.00  0.00    +0.385 N 
ATOM     21  C   UNL     1      -0.768  -4.116   1.855  0.00  0.00    -0.078 C 
ATOM     22  C   UNL     1      -1.009  -5.530   2.388  0.00  0.00    -0.019 C 
ATOM     23  C   UNL     1       0.331  -6.263   2.499  0.00  0.00    -0.004 C 
ATOM     24  C   UNL     1       1.014  -6.268   1.129  0.00  0.00    -0.019 C 
ATOM     25  C   UNL     1       1.180  -4.827   0.642  0.00  0.00    -0.078 C 
ATOM     26  H   UNL     1      -0.721  -4.731  -0.088  0.00  0.00    -0.081 HD
ENDBRANCH  19  20
BRANCH  19  32
ATOM     27  C   UNL     1      -1.474  -0.850  -0.356  0.00  0.00    +0.122 A 
ATOM     28  C   UNL     1      -2.726  -0.294  -0.583  0.00  0.00    +0.046 A 
ATOM     29  C   UNL     1      -3.833  -1.113  -0.696  0.00  0.00    +0.004 A 
ATOM     30  C   UNL     1      -3.695  -2.484  -0.585  0.00  0.00    +0.000 A 
ATOM     31  C   UNL     1      -2.449  -3.040  -0.359  0.00  0.00    +0.005 A 
ATOM     32  C   UNL     1      -1.338  -2.226  -0.250  0.00  0.00    -0.018 A 
BRANCH  27  34
ATOM     33  C   UNL     1      -0.599   1.361  -0.364  0.00  0.00    +0.277 C 
ATOM     34  O   UNL     1      -0.384  -0.046  -0.244  0.00  0.00    -0.495 OA
ENDBRANCH  27  34
ENDBRANCH  19  32
ENDBRANCH   1  19
TORSDOF 8
