REMARK  Name = ZINC55309240
REMARK  5 active torsions:
REMARK  status: ('A' for Active; 'I' for Inactive)
REMARK    1  A    between atoms: C_1  and  C_2
REMARK    2  A    between atoms: C_2  and  C_3
REMARK    3  A    between atoms: C_2  and  C_4
REMARK    4  A    between atoms: C_19  and  C_21
REMARK    5  A    between atoms: C_26  and  C_27
REMARK                            x       y       z     vdW  Elec       q    Type
REMARK                         _______ _______ _______ _____ _____    ______ ____
ROOT
ATOM      1  C   UNL     1      -1.713  -0.769  -0.039  0.00  0.00    +0.126 C 
ATOM      2  C   UNL     1      -1.984  -2.256  -0.095  0.00  0.00    +0.041 A 
ATOM      3  C   UNL     1      -2.600  -2.939   0.894  0.00  0.00    -0.016 A 
ATOM      4  C   UNL     1      -2.667  -4.324   0.472  0.00  0.00    +0.003 A 
ATOM      5  C   UNL     1      -3.185  -5.474   1.076  0.00  0.00    +0.010 A 
ATOM      6  C   UNL     1      -3.075  -6.647   0.371  0.00  0.00    +0.001 A 
ATOM      7  C   UNL     1      -2.481  -6.702  -0.879  0.00  0.00    +0.002 A 
ATOM      8  C   UNL     1      -1.960  -5.580  -1.499  0.00  0.00    +0.026 A 
ATOM      9  C   UNL     1      -2.058  -4.374  -0.807  0.00  0.00    +0.047 A 
ATOM     10  N   UNL     1      -1.657  -3.106  -1.117  0.00  0.00    -0.356 N 
ATOM     11  H   UNL     1      -1.210  -2.847  -1.938  0.00  0.00    +0.166 HD
ATOM     12  C   UNL     1      -3.109  -2.327   2.174  0.00  0.00    +0.056 C 
ATOM     13  C   UNL     1      -2.441  -0.961   2.374  0.00  0.00    +0.113 C 
ATOM     14  N   UNL     1      -2.470  -0.223   1.101  0.00  0.00    -0.288 N 
ATOM     15  C   UNL     1      -3.171   0.922   0.980  0.00  0.00    +0.250 C 
ATOM     16  O   UNL     1      -3.249   1.477  -0.099  0.00  0.00    -0.270 OA
ENDROOT
BRANCH  15  17
ATOM     17  C   UNL     1      -3.843   1.503   2.157  0.00  0.00    +0.077 A 
ATOM     18  C   UNL     1      -4.682   0.841   3.031  0.00  0.00    +0.118 A 
ATOM     19  N   UNL     1      -5.078   1.728   3.958  0.00  0.00    -0.284 N 
ATOM     20  H   UNL     1      -5.673   1.544   4.701  0.00  0.00    +0.188 HD
ATOM     21  N   UNL     1      -4.486   2.963   3.671  0.00  0.00    -0.178 NA
ATOM     22  C   UNL     1      -3.744   2.839   2.605  0.00  0.00    +0.078 A 
BRANCH  22  23
ATOM     23  C   UNL     1      -2.929   3.931   1.962  0.00  0.00    +0.040 C 
ATOM     24  C   UNL     1      -2.799   5.254   2.718  0.00  0.00    +0.010 C 
ATOM     25  C   UNL     1      -3.674   5.171   1.466  0.00  0.00    +0.010 C 
ENDBRANCH  22  23
ENDBRANCH  15  17
BRANCH   1  27
ATOM     26  C   UNL     1       0.550  -0.989  -1.074  0.00  0.00    +0.009 C 
ATOM     27  C   UNL     1      -0.217  -0.520   0.164  0.00  0.00    +0.009 C 
ATOM     28  C   UNL     1       0.027   0.975   0.379  0.00  0.00    +0.009 C 
ENDBRANCH   1  27
TORSDOF 3
