REMARK  Name = ZINC16827530
REMARK  7 active torsions:
REMARK  status: ('A' for Active; 'I' for Inactive)
REMARK    1  A    between atoms: C_1  and  C_2
REMARK    2  A    between atoms: C_2  and  C_4
REMARK    3  A    between atoms: C_2  and  S_15
REMARK    4  A    between atoms: N_6  and  C_7
REMARK    5  A    between atoms: S_15  and  C_16
REMARK    6  A    between atoms: C_19  and  C_27
REMARK    7  A    between atoms: N_20  and  C_21
REMARK                            x       y       z     vdW  Elec       q    Type
REMARK                         _______ _______ _______ _____ _____    ______ ____
ROOT
ATOM      1  C   UNL     1       0.815  -2.897  -1.027  0.00  0.00    +0.197 A 
ATOM      2  N   UNL     1       1.032  -4.129  -0.625  0.00  0.00    -0.122 NA
ATOM      3  N   UNL     1       1.594  -4.126   0.530  0.00  0.00    -0.128 NA
ATOM      4  C   UNL     1       1.778  -2.891   0.937  0.00  0.00    +0.169 A 
ATOM      5  N   UNL     1       1.278  -2.064  -0.045  0.00  0.00    -0.270 N 
ENDROOT
BRANCH   4   6
ATOM      6  C   UNL     1       2.400  -2.469   2.210  0.00  0.00    +0.023 A 
ATOM      7  C   UNL     1       2.250  -1.156   2.659  0.00  0.00    +0.015 A 
ATOM      8  C   UNL     1       2.831  -0.764   3.847  0.00  0.00    +0.050 A 
ATOM      9  C   UNL     1       3.563  -1.670   4.599  0.00  0.00    +0.166 A 
ATOM     10  C   UNL     1       3.716  -2.983   4.156  0.00  0.00    +0.167 A 
ATOM     11  C   UNL     1       3.133  -3.383   2.968  0.00  0.00    +0.061 A 
ATOM     12  O   UNL     1       4.471  -3.666   5.066  0.00  0.00    -0.453 OA
ATOM     13  C   UNL     1       4.435  -2.873   6.267  0.00  0.00    +0.466 C 
ATOM     14  O   UNL     1       4.223  -1.533   5.787  0.00  0.00    -0.453 OA
ENDBRANCH   4   6
BRANCH   5  15
ATOM     15  C   UNL     1       1.256  -0.662  -0.042  0.00  0.00    +0.051 A 
ATOM     16  C   UNL     1       0.043   0.014  -0.019  0.00  0.00    +0.026 A 
ATOM     17  C   UNL     1       0.024   1.395  -0.016  0.00  0.00    +0.002 A 
ATOM     18  C   UNL     1       1.211   2.104  -0.035  0.00  0.00    +0.000 A 
ATOM     19  C   UNL     1       2.420   1.434  -0.057  0.00  0.00    +0.002 A 
ATOM     20  C   UNL     1       2.446   0.053  -0.061  0.00  0.00    +0.026 A 
ENDBRANCH   5  15
BRANCH   1  21
ATOM     21  S   UNL     1       0.067  -2.409  -2.546  0.00  0.00    -0.073 S 
BRANCH  21  23
ATOM     22  C   UNL     1      -1.284  -4.780  -2.414  0.00  0.00    +0.029 C 
ATOM     23  C   UNL     1      -0.260  -4.034  -3.272  0.00  0.00    +0.137 C 
BRANCH  23  24
ATOM     24  C   UNL     1      -0.804  -3.861  -4.667  0.00  0.00    +0.230 C 
ATOM     25  O   UNL     1      -1.294  -2.802  -4.999  0.00  0.00    -0.274 OA
ATOM     26  N   UNL     1      -0.745  -4.882  -5.545  0.00  0.00    -0.282 N 
ATOM     27  H   UNL     1      -0.296  -5.706  -5.301  0.00  0.00    +0.155 HD
BRANCH  26  28
ATOM     28  C   UNL     1      -1.334  -4.753  -6.810  0.00  0.00    +0.069 A 
ATOM     29  C   UNL     1      -1.329  -3.525  -7.457  0.00  0.00    +0.029 A 
ATOM     30  C   UNL     1      -1.909  -3.399  -8.704  0.00  0.00    +0.040 A 
ATOM     31  C   UNL     1      -2.496  -4.497  -9.310  0.00  0.00    +0.126 A 
ATOM     32  C   UNL     1      -2.504  -5.724  -8.668  0.00  0.00    +0.078 A 
ATOM     33  C   UNL     1      -1.920  -5.856  -7.421  0.00  0.00    +0.147 A 
ATOM     34  F   UNL     1      -1.921  -7.053  -6.796  0.00  0.00    -0.203 F 
ATOM     35  F   UNL     1      -3.063  -4.372 -10.530  0.00  0.00    -0.205 F 
ENDBRANCH  26  28
ENDBRANCH  23  24
ENDBRANCH  21  23
ENDBRANCH   1  21
TORSDOF 6
