REMARK  Name = ZINC56159649
REMARK  10 active torsions:
REMARK  status: ('A' for Active; 'I' for Inactive)
REMARK    1  A    between atoms: C_1  and  C_2
REMARK    2  A    between atoms: C_5  and  N_9
REMARK    3  A    between atoms: C_10  and  C_12
REMARK    4  A    between atoms: C_12  and  C_14
REMARK    5  A    between atoms: C_12  and  N_15
REMARK    6  A    between atoms: N_15  and  C_16
REMARK    7  A    between atoms: C_16  and  C_18
REMARK    8  A    between atoms: C_16  and  C_19
REMARK    9  A    between atoms: C_22  and  N_25
REMARK   10  A    between atoms: N_28  and  C_29
REMARK                            x       y       z     vdW  Elec       q    Type
REMARK                         _______ _______ _______ _____ _____    ______ ____
ROOT
ATOM      1  N   UNL     1      -0.044  -6.789   2.191  0.00  0.00    +0.391 N 
ATOM      2  H   UNL     1       0.154  -6.433   1.268  0.00  0.00    -0.084 HD
ATOM      3  H   UNL     1       0.695  -6.517   2.822  0.00  0.00    -0.084 HD
ENDROOT
BRANCH   1   4
ATOM      4  C   UNL     1      -1.321  -6.236   2.665  0.00  0.00    +0.014 C 
ATOM      5  C   UNL     1      -2.411  -6.508   1.627  0.00  0.00    -0.004 C 
BRANCH   4   7
ATOM      6  N   UNL     1      -2.231  -4.027   3.303  0.00  0.00    -0.287 N 
ATOM      7  C   UNL     1      -1.180  -4.750   2.868  0.00  0.00    +0.203 C 
ATOM      8  O   UNL     1      -0.121  -4.204   2.641  0.00  0.00    -0.277 OA
ATOM      9  H   UNL     1      -3.054  -4.472   3.558  0.00  0.00    +0.155 HD
BRANCH   6  14
ATOM     10  C   UNL     1      -1.840   1.625   3.637  0.00  0.00    +0.047 C 
ATOM     11  C   UNL     1      -1.944   0.124   3.549  0.00  0.00    -0.015 A 
ATOM     12  C   UNL     1      -1.252  -0.559   2.566  0.00  0.00    +0.008 A 
ATOM     13  C   UNL     1      -1.346  -1.935   2.482  0.00  0.00    +0.024 A 
ATOM     14  C   UNL     1      -2.135  -2.633   3.387  0.00  0.00    +0.036 A 
ATOM     15  C   UNL     1      -2.828  -1.947   4.374  0.00  0.00    +0.062 A 
ATOM     16  C   UNL     1      -2.727  -0.569   4.457  0.00  0.00    +0.128 A 
ATOM     17  F   UNL     1      -3.397   0.100   5.420  0.00  0.00    -0.205 F 
ENDBRANCH   6  14
ENDBRANCH   4   7
ENDBRANCH   1   4
BRANCH   1  18
ATOM     18  C   UNL     1      -0.133  -8.254   2.143  0.00  0.00    -0.043 C 
ATOM     19  C   UNL     1       1.137  -8.821   1.504  0.00  0.00    -0.009 C 
BRANCH  18  20
ATOM     20  C   UNL     1      -0.276  -8.795   3.542  0.00  0.00    -0.062 A 
ATOM     21  C   UNL     1       0.448  -8.233   4.577  0.00  0.00    +0.004 A 
ATOM     22  C   UNL     1       0.320  -8.727   5.860  0.00  0.00    +0.023 A 
ATOM     23  C   UNL     1      -0.539  -9.789   6.111  0.00  0.00    +0.035 A 
ATOM     24  C   UNL     1      -1.265 -10.352   5.069  0.00  0.00    +0.023 A 
ATOM     25  C   UNL     1      -1.136  -9.850   3.789  0.00  0.00    +0.004 A 
BRANCH  23  26
ATOM     26  N   UNL     1      -0.672 -10.292   7.410  0.00  0.00    -0.269 N 
ATOM     27  C   UNL     1      -0.570  -9.462   8.467  0.00  0.00    +0.304 C 
ATOM     28  O   UNL     1      -0.458  -8.264   8.291  0.00  0.00    -0.253 OA
ATOM     29  N   UNL     1      -0.591  -9.961   9.719  0.00  0.00    -0.296 N 
ATOM     30  H   UNL     1      -0.837 -11.237   7.549  0.00  0.00    +0.156 HD
ATOM     31  H   UNL     1      -0.680 -10.916   9.859  0.00  0.00    +0.151 HD
BRANCH  29  32
ATOM     32  C   UNL     1      -0.481  -9.059  10.868  0.00  0.00    +0.075 C 
ATOM     33  C   UNL     1       0.444  -9.482  12.012  0.00  0.00    +0.024 C 
ATOM     34  C   UNL     1      -1.074  -9.531  12.197  0.00  0.00    +0.024 C 
ENDBRANCH  29  32
ENDBRANCH  23  26
ENDBRANCH  18  20
ENDBRANCH   1  18
TORSDOF 7
