REMARK  Name = ZINC47334207
REMARK  8 active torsions:
REMARK  status: ('A' for Active; 'I' for Inactive)
REMARK    1  A    between atoms: C_6  and  N_7
REMARK    2  A    between atoms: C_8  and  N_29
REMARK    3  A    between atoms: C_9  and  C_27
REMARK    4  A    between atoms: C_10  and  C_12
REMARK    5  A    between atoms: C_12  and  C_13
REMARK    6  A    between atoms: C_13  and  C_14
REMARK    7  A    between atoms: C_14  and  N_15
REMARK    8  A    between atoms: N_18  and  C_19
REMARK                            x       y       z     vdW  Elec       q    Type
REMARK                         _______ _______ _______ _____ _____    ______ ____
ROOT
ATOM      1  N   UNL     1      -1.215  -0.785  -0.029  0.00  0.00    -0.217 N 
ATOM      2  C   UNL     1      -1.447  -1.963  -0.651  0.00  0.00    +0.138 A 
ATOM      3  C   UNL     1      -2.766  -2.317  -0.378  0.00  0.00    +0.114 A 
ATOM      4  C   UNL     1      -3.309  -1.295   0.436  0.00  0.00    +0.083 A 
ATOM      5  N   UNL     1      -2.383  -0.400   0.639  0.00  0.00    -0.168 NA
ENDROOT
BRANCH   1  11
ATOM      6  C   UNL     1      -0.019   1.316  -0.045  0.00  0.00    +0.030 A 
ATOM      7  C   UNL     1       1.171   2.015  -0.061  0.00  0.00    +0.040 A 
ATOM      8  C   UNL     1       2.376   1.333  -0.078  0.00  0.00    +0.124 A 
ATOM      9  C   UNL     1       2.390  -0.052  -0.079  0.00  0.00    +0.040 A 
ATOM     10  C   UNL     1       1.201  -0.755  -0.063  0.00  0.00    +0.030 A 
ATOM     11  C   UNL     1      -0.008  -0.072  -0.046  0.00  0.00    +0.068 A 
ATOM     12  F   UNL     1       3.540   2.019  -0.095  0.00  0.00    -0.205 F 
ENDBRANCH   1  11
BRANCH   2  13
ATOM     13  N   UNL     1      -0.546  -2.679  -1.415  0.00  0.00    -0.342 N 
ATOM     14  H   UNL     1       0.354  -2.343  -1.545  0.00  0.00    +0.144 HD
ATOM     15  H   UNL     1      -0.814  -3.519  -1.820  0.00  0.00    +0.144 HD
ENDBRANCH   2  13
BRANCH   3  16
ATOM     16  C   UNL     1      -3.444  -3.492  -0.835  0.00  0.00    +0.104 C 
ATOM     17  N   UNL     1      -3.982  -4.425  -1.197  0.00  0.00    -0.191 NA
ENDBRANCH   3  16
BRANCH   4  18
ATOM     18  C   UNL     1      -4.713  -1.252   0.979  0.00  0.00    +0.060 C 
BRANCH  18  19
ATOM     19  C   UNL     1      -4.755  -1.945   2.342  0.00  0.00    +0.025 C 
BRANCH  19  20
ATOM     20  C   UNL     1      -6.181  -1.901   2.894  0.00  0.00    +0.106 C 
BRANCH  20  21
ATOM     21  N   UNL     1      -6.221  -2.566   4.199  0.00  0.00    -0.299 N 
ATOM     22  C   UNL     1      -7.382  -2.648   4.878  0.00  0.00    +0.304 C 
ATOM     23  O   UNL     1      -8.397  -2.172   4.407  0.00  0.00    -0.253 OA
ATOM     24  N   UNL     1      -7.419  -3.260   6.079  0.00  0.00    -0.267 N 
ATOM     25  H   UNL     1      -5.411  -2.946   4.574  0.00  0.00    +0.150 HD
ATOM     26  H   UNL     1      -6.625  -3.696   6.425  0.00  0.00    +0.156 HD
BRANCH  24  27
ATOM     27  C   UNL     1      -8.604  -3.264   6.827  0.00  0.00    +0.070 A 
ATOM     28  C   UNL     1      -9.832  -3.334   6.184  0.00  0.00    +0.029 A 
ATOM     29  C   UNL     1     -10.999  -3.338   6.923  0.00  0.00    +0.040 A 
ATOM     30  C   UNL     1     -10.946  -3.274   8.305  0.00  0.00    +0.126 A 
ATOM     31  C   UNL     1      -9.723  -3.204   8.950  0.00  0.00    +0.078 A 
ATOM     32  C   UNL     1      -8.551  -3.205   8.215  0.00  0.00    +0.147 A 
ATOM     33  F   UNL     1      -7.357  -3.143   8.845  0.00  0.00    -0.203 F 
ATOM     34  F   UNL     1     -12.089  -3.279   9.025  0.00  0.00    -0.205 F 
ENDBRANCH  24  27
ENDBRANCH  20  21
ENDBRANCH  19  20
ENDBRANCH  18  19
ENDBRANCH   4  18
TORSDOF 8
