REMARK  Name = ZINC63141965
REMARK  6 active torsions:
REMARK  status: ('A' for Active; 'I' for Inactive)
REMARK    1  A    between atoms: C_4  and  C_7
REMARK    2  A    between atoms: C_7  and  C_8
REMARK    3  A    between atoms: C_8  and  C_9
REMARK    4  A    between atoms: N_28  and  C_31
REMARK    5  A    between atoms: C_31  and  C_32
REMARK    6  A    between atoms: C_32  and  C_33
REMARK                            x       y       z     vdW  Elec       q    Type
REMARK                         _______ _______ _______ _____ _____    ______ ____
ROOT
ATOM      1  C   UNL     1       5.507  -1.710   1.381  0.00  0.00    +0.104 C 
ATOM      2  C   UNL     1       5.924  -2.062   2.812  0.00  0.00    +0.127 C 
ATOM      3  C   UNL     1       6.295  -0.752   3.495  0.00  0.00    -0.034 C 
ATOM      4  C   UNL     1       5.544  -0.672   4.587  0.00  0.00    -0.001 A 
ATOM      5  C   UNL     1       5.502   0.317   5.676  0.00  0.00    +0.010 A 
ATOM      6  C   UNL     1       4.583   0.094   6.653  0.00  0.00    +0.001 A 
ATOM      7  C   UNL     1       3.712  -1.000   6.654  0.00  0.00    +0.002 A 
ATOM      8  C   UNL     1       3.685  -1.961   5.696  0.00  0.00    +0.026 A 
ATOM      9  C   UNL     1       4.610  -1.838   4.618  0.00  0.00    +0.043 A 
ATOM     10  N   UNL     1       4.815  -2.629   3.582  0.00  0.00    -0.376 N 
ATOM     11  C   UNL     1       7.283   0.220   2.897  0.00  0.00    +0.065 C 
ATOM     12  C   UNL     1       6.851   0.441   1.435  0.00  0.00    +0.167 C 
ATOM     13  N   UNL     1       6.559  -0.843   0.805  0.00  0.00    -0.283 N 
ATOM     14  C   UNL     1       7.206  -1.281  -0.281  0.00  0.00    +0.234 C 
ATOM     15  O   UNL     1       6.902  -2.372  -0.717  0.00  0.00    -0.274 OA
ATOM     16  C   UNL     1       8.275  -0.523  -0.996  0.00  0.00    +0.203 C 
ATOM     17  N   UNL     1       8.538   0.767  -0.381  0.00  0.00    -0.291 N 
ATOM     18  C   UNL     1       7.907   1.209   0.710  0.00  0.00    +0.237 C 
ATOM     19  O   UNL     1       8.208   2.303   1.138  0.00  0.00    -0.274 OA
ATOM     20  H   UNL     1       4.324  -3.436   3.359  0.00  0.00    +0.160 HD
ENDROOT
BRANCH   1  21
ATOM     21  C   UNL     1       4.171  -0.963   1.399  0.00  0.00    +0.029 C 
BRANCH  21  22
ATOM     22  C   UNL     1       3.711  -0.707  -0.038  0.00  0.00    +0.037 C 
BRANCH  22  26
ATOM     23  C   UNL     1      -0.017   1.378   0.010  0.00  0.00    +0.000 A 
ATOM     24  C   UNL     1       1.171   2.086   0.002  0.00  0.00    +0.000 A 
ATOM     25  C   UNL     1       2.377   1.411  -0.013  0.00  0.00    +0.003 A 
ATOM     26  C   UNL     1       2.396   0.029  -0.020  0.00  0.00    -0.047 A 
ATOM     27  C   UNL     1       1.208  -0.679  -0.012  0.00  0.00    +0.003 A 
ATOM     28  C   UNL     1       0.002  -0.004   0.002  0.00  0.00    +0.000 A 
ENDBRANCH  22  26
ENDBRANCH  21  22
ENDBRANCH   1  21
BRANCH  17  29
ATOM     29  C   UNL     1       9.553   1.631  -0.990  0.00  0.00    +0.113 C 
BRANCH  29  30
ATOM     30  C   UNL     1       8.894   2.534  -2.034  0.00  0.00    +0.054 C 
BRANCH  30  31
ATOM     31  C   UNL     1       9.938   3.422  -2.660  0.00  0.00    -0.046 A 
ATOM     32  C   UNL     1      10.222   4.654  -2.103  0.00  0.00    +0.005 A 
ATOM     33  C   UNL     1      11.180   5.469  -2.677  0.00  0.00    +0.020 A 
ATOM     34  C   UNL     1      11.854   5.051  -3.810  0.00  0.00    +0.041 A 
ATOM     35  C   UNL     1      11.570   3.817  -4.367  0.00  0.00    +0.020 A 
ATOM     36  C   UNL     1      10.616   3.001  -3.789  0.00  0.00    +0.005 A 
ATOM     37 CL   UNL     1      13.057   6.074  -4.532  0.00  0.00    -0.084 Cl
ENDBRANCH  30  31
ENDBRANCH  29  30
ENDBRANCH  17  29
TORSDOF 6
