REMARK  Name = ZINC14744230
REMARK  11 active torsions:
REMARK  status: ('A' for Active; 'I' for Inactive)
REMARK    1  A    between atoms: C_1  and  C_2
REMARK    2  A    between atoms: C_2  and  C_3
REMARK    3  A    between atoms: C_2  and  C_4
REMARK    4  A    between atoms: C_4  and  N_5
REMARK    5  A    between atoms: C_13  and  C_14
REMARK    6  A    between atoms: C_13  and  N_71
REMARK    7  A    between atoms: N_23  and  C_26
REMARK    8  A    between atoms: C_26  and  C_27
REMARK    9  A    between atoms: C_27  and  C_28
REMARK   10  A    between atoms: C_31  and  O_34
REMARK   11  A    between atoms: O_34  and  C_35
REMARK                            x       y       z     vdW  Elec       q    Type
REMARK                         _______ _______ _______ _____ _____    ______ ____
ROOT
ATOM      1  N   UNL     1      -0.938   0.355  -3.133  0.00  0.00    -0.224 N 
ATOM      2  C   UNL     1      -0.055   1.151  -2.495  0.00  0.00    +0.247 C 
ATOM      3  O   UNL     1       1.069   1.434  -2.850  0.00  0.00    -0.273 OA
ATOM      4  C   UNL     1      -0.763   1.616  -1.244  0.00  0.00    +0.112 C 
ATOM      5  C   UNL     1      -0.012   1.149  -0.001  0.00  0.00    +0.017 C 
ATOM      6  C   UNL     1      -0.736   1.657   1.250  0.00  0.00    -0.076 C 
ATOM      7  C   UNL     1      -1.600   3.578   0.047  0.00  0.00    -0.076 C 
ATOM      8  C   UNL     1      -0.905   3.135  -1.243  0.00  0.00    +0.017 C 
ATOM      9  N   UNL     1      -2.082   0.976  -1.320  0.00  0.00    -0.271 N 
ATOM     10  C   UNL     1      -2.091   0.258  -2.460  0.00  0.00    +0.312 C 
ATOM     11  O   UNL     1      -3.039  -0.403  -2.834  0.00  0.00    -0.252 OA
ATOM     12  N   UNL     1      -0.791   3.135   1.203  0.00  0.00    +0.385 N 
ATOM     13  H   UNL     1       0.163   3.500   1.101  0.00  0.00    -0.081 HD
ENDROOT
BRANCH   1  14
ATOM     14  C   UNL     1      -0.669  -0.319  -4.406  0.00  0.00    +0.121 C 
BRANCH  14  16
ATOM     15  C   UNL     1      -1.089  -2.576  -3.420  0.00  0.00    +0.009 C 
ATOM     16  C   UNL     1      -0.061  -1.697  -4.134  0.00  0.00    +0.001 C 
ATOM     17  C   UNL     1       0.335  -2.350  -5.460  0.00  0.00    +0.009 C 
ENDBRANCH  14  16
ENDBRANCH   1  14
BRANCH  12  18
ATOM     18  C   UNL     1      -1.373   3.657   2.456  0.00  0.00    -0.003 C 
BRANCH  18  19
ATOM     19  C   UNL     1      -0.418   3.378   3.588  0.00  0.00    +0.090 A 
ATOM     20  C   UNL     1       0.570   4.195   3.977  0.00  0.00    +0.051 A 
ATOM     21  C   UNL     1       1.236   3.526   5.101  0.00  0.00    +0.020 A 
ATOM     22  C   UNL     1       2.311   3.846   5.928  0.00  0.00    +0.011 A 
ATOM     23  C   UNL     1       2.691   2.978   6.914  0.00  0.00    +0.001 A 
ATOM     24  C   UNL     1       2.011   1.782   7.096  0.00  0.00    +0.004 A 
ATOM     25  C   UNL     1       0.945   1.448   6.289  0.00  0.00    +0.047 A 
ATOM     26  C   UNL     1       0.544   2.316   5.280  0.00  0.00    +0.135 A 
ATOM     27  O   UNL     1      -0.438   2.276   4.357  0.00  0.00    -0.462 OA
ENDBRANCH  18  19
ENDBRANCH  12  18
BRANCH   9  28
ATOM     28  C   UNL     1      -3.172   1.093  -0.348  0.00  0.00    +0.115 C 
BRANCH  28  29
ATOM     29  C   UNL     1      -4.347   1.836  -0.987  0.00  0.00    +0.054 C 
BRANCH  29  30
ATOM     30  C   UNL     1      -5.419   2.064   0.048  0.00  0.00    -0.046 A 
ATOM     31  C   UNL     1      -6.417   1.123   0.226  0.00  0.00    +0.007 A 
ATOM     32  C   UNL     1      -7.398   1.327   1.177  0.00  0.00    +0.046 A 
ATOM     33  C   UNL     1      -7.387   2.482   1.946  0.00  0.00    +0.120 A 
ATOM     34  C   UNL     1      -6.388   3.426   1.761  0.00  0.00    +0.046 A 
ATOM     35  C   UNL     1      -5.407   3.215   0.813  0.00  0.00    +0.007 A 
BRANCH  33  36
ATOM     36  O   UNL     1      -8.354   2.687   2.879  0.00  0.00    -0.495 OA
ATOM     37  C   UNL     1      -9.351   1.672   3.015  0.00  0.00    +0.277 C 
ENDBRANCH  33  36
ENDBRANCH  29  30
ENDBRANCH  28  29
ENDBRANCH   9  28
TORSDOF 8
