REMARK  Name = ZINC65305402
REMARK  9 active torsions:
REMARK  status: ('A' for Active; 'I' for Inactive)
REMARK    1  A    between atoms: C_1  and  O_2
REMARK    2  A    between atoms: O_2  and  C_3
REMARK    3  A    between atoms: C_6  and  N_11
REMARK    4  A    between atoms: C_8  and  O_9
REMARK    5  A    between atoms: O_9  and  C_10
REMARK    6  A    between atoms: C_12  and  C_14
REMARK    7  A    between atoms: C_14  and  N_15
REMARK    8  A    between atoms: N_26  and  C_29
REMARK    9  A    between atoms: C_29  and  C_30
REMARK                            x       y       z     vdW  Elec       q    Type
REMARK                         _______ _______ _______ _____ _____    ______ ____
ROOT
ATOM      1  N   UNL     1       3.919  -1.362  -7.515  0.00  0.00    -0.202 N 
ATOM      2  C   UNL     1       5.144  -0.797  -7.590  0.00  0.00    +0.353 A 
ATOM      3  O   UNL     1       6.096  -1.043  -6.870  0.00  0.00    -0.244 OA
ATOM      4  N   UNL     1       5.120   0.087  -8.607  0.00  0.00    -0.228 N 
ATOM      5  C   UNL     1       6.125   0.937  -9.109  0.00  0.00    +0.074 A 
ATOM      6  C   UNL     1       7.441   1.099  -8.685  0.00  0.00    +0.035 A 
ATOM      7  C   UNL     1       8.244   1.982  -9.318  0.00  0.00    +0.048 A 
ATOM      8  S   UNL     1       7.272   2.643 -10.519  0.00  0.00    -0.090 S 
ATOM      9  C   UNL     1       5.778   1.746 -10.190  0.00  0.00    +0.101 A 
ATOM     10  C   UNL     1       4.497   1.722 -10.755  0.00  0.00    +0.270 A 
ATOM     11  O   UNL     1       4.230   2.443 -11.700  0.00  0.00    -0.266 OA
ATOM     12  N   UNL     1       3.558   0.894 -10.248  0.00  0.00    -0.271 N 
ATOM     13  C   UNL     1       3.867   0.074  -9.171  0.00  0.00    +0.240 A 
ATOM     14  N   UNL     1       3.136  -0.797  -8.530  0.00  0.00    -0.129 NA
ENDROOT
BRANCH   1  15
ATOM     15  C   UNL     1       3.491  -2.381  -6.554  0.00  0.00    +0.245 C 
BRANCH  15  17
ATOM     16  N   UNL     1       2.462  -2.456  -4.306  0.00  0.00    -0.284 N 
ATOM     17  C   UNL     1       2.923  -1.710  -5.330  0.00  0.00    +0.239 C 
ATOM     18  O   UNL     1       2.880  -0.500  -5.267  0.00  0.00    -0.273 OA
ATOM     19  H   UNL     1       2.566  -3.420  -4.322  0.00  0.00    +0.155 HD
BRANCH  16  23
ATOM     20  C   UNL     1       0.588  -0.611  -1.066  0.00  0.00    +0.162 A 
ATOM     21  C   UNL     1       0.454  -0.081  -2.340  0.00  0.00    +0.051 A 
ATOM     22  C   UNL     1       1.075  -0.692  -3.412  0.00  0.00    +0.027 A 
ATOM     23  C   UNL     1       1.834  -1.838  -3.217  0.00  0.00    +0.037 A 
ATOM     24  C   UNL     1       1.969  -2.371  -1.942  0.00  0.00    +0.072 A 
ATOM     25  C   UNL     1       1.352  -1.756  -0.866  0.00  0.00    +0.163 A 
BRANCH  20  27
ATOM     26  C   UNL     1      -0.793   1.164  -0.289  0.00  0.00    +0.277 C 
ATOM     27  O   UNL     1      -0.024  -0.008  -0.011  0.00  0.00    -0.491 OA
ENDBRANCH  20  27
BRANCH  25  28
ATOM     28  O   UNL     1       1.488  -2.274   0.384  0.00  0.00    -0.491 OA
ATOM     29  C   UNL     1       2.287  -3.451   0.515  0.00  0.00    +0.277 C 
ENDBRANCH  25  28
ENDBRANCH  16  23
ENDBRANCH  15  17
ENDBRANCH   1  15
BRANCH  12  30
ATOM     30  C   UNL     1       2.215   0.863 -10.832  0.00  0.00    +0.170 C 
BRANCH  30  31
ATOM     31  C   UNL     1       2.169  -0.169 -11.930  0.00  0.00    +0.010 A 
ATOM     32  C   UNL     1       1.851  -1.484 -11.853  0.00  0.00    +0.013 A 
ATOM     33  C   UNL     1       1.875  -2.248 -13.004  0.00  0.00    +0.008 A 
ATOM     34  C   UNL     1       2.217  -1.660 -14.176  0.00  0.00    +0.045 A 
ATOM     35  S   UNL     1       2.513   0.026 -13.671  0.00  0.00    -0.100 S 
ENDBRANCH  30  31
ENDBRANCH  12  30
TORSDOF 7
