REMARK  Name = ZINC40038463
REMARK  10 active torsions:
REMARK  status: ('A' for Active; 'I' for Inactive)
REMARK    1  A    between atoms: C_1  and  C_2
REMARK    2  A    between atoms: C_6  and  C_31
REMARK    3  A    between atoms: C_7  and  C_12
REMARK    4  A    between atoms: C_10  and  C_11
REMARK    5  A    between atoms: N_14  and  C_15
REMARK    6  A    between atoms: C_16  and  C_24
REMARK    7  A    between atoms: N_26  and  C_27
REMARK    8  A    between atoms: C_27  and  C_28
REMARK    9  A    between atoms: C_28  and  O_29
REMARK   10  A    between atoms: O_29  and  C_30
REMARK                            x       y       z     vdW  Elec       q    Type
REMARK                         _______ _______ _______ _____ _____    ______ ____
ROOT
ATOM      1  C   UNL     1       0.114  -6.606   4.534  0.00  0.00    +0.085 A 
ATOM      2  C   UNL     1       0.117  -6.740   5.915  0.00  0.00    +0.069 A 
ATOM      3  C   UNL     1       0.139  -8.089   6.451  0.00  0.00    -0.023 A 
ATOM      4  C   UNL     1       0.154  -9.058   5.509  0.00  0.00    -0.004 A 
ATOM      5  S   UNL     1       0.131  -8.187   3.970  0.00  0.00    -0.077 S 
ATOM      6  C   UNL     1       0.180 -10.537   5.741  0.00  0.00    +0.043 C 
ATOM      7  C   UNL     1       0.567 -10.789   7.205  0.00  0.00    +0.005 C 
ATOM      8  C   UNL     1      -0.283  -9.888   8.105  0.00  0.00    +0.005 C 
ATOM      9  C   UNL     1       0.144  -8.428   7.934  0.00  0.00    +0.037 C 
ENDROOT
BRANCH   1  12
ATOM     10  C   UNL     1       0.089  -5.493   2.446  0.00  0.00    +0.284 C 
ATOM     11  O   UNL     1       0.100  -6.571   1.882  0.00  0.00    -0.266 OA
ATOM     12  N   UNL     1       0.095  -5.437   3.792  0.00  0.00    -0.273 N 
ATOM     13  H   UNL     1       0.086  -4.577   4.242  0.00  0.00    +0.156 HD
BRANCH  10  20
ATOM     14  C   UNL     1      -0.018   1.503   0.010  0.00  0.00    +0.044 C 
ATOM     15  C   UNL     1       0.002  -0.004   0.002  0.00  0.00    -0.044 A 
ATOM     16  C   UNL     1       0.006  -0.684  -1.209  0.00  0.00    +0.004 A 
ATOM     17  C   UNL     1       0.024  -2.050  -1.236  0.00  0.00    +0.012 A 
ATOM     18  C   UNL     1       0.040  -2.766  -0.036  0.00  0.00    +0.024 A 
ATOM     19  C   UNL     1       0.061  -4.188   0.301  0.00  0.00    +0.008 A 
ATOM     20  C   UNL     1       0.069  -4.253   1.659  0.00  0.00    +0.194 A 
ATOM     21  O   UNL     1       0.054  -3.006   2.174  0.00  0.00    -0.450 OA
ATOM     22  C   UNL     1       0.037  -2.082   1.194  0.00  0.00    +0.139 A 
ATOM     23  C   UNL     1       0.023  -0.692   1.196  0.00  0.00    -0.005 A 
ATOM     24  C   UNL     1       0.024   0.062   2.501  0.00  0.00    +0.048 C 
ATOM     25  C   UNL     1       0.071  -5.348  -0.661  0.00  0.00    +0.048 C 
ENDBRANCH  10  20
ENDBRANCH   1  12
BRANCH   2  26
ATOM     26  C   UNL     1       0.100  -5.568   6.795  0.00  0.00    +0.247 C 
ATOM     27  O   UNL     1      -0.962  -5.098   7.162  0.00  0.00    -0.270 OA
ATOM     28  N   UNL     1       1.258  -5.011   7.199  0.00  0.00    -0.309 N 
ATOM     29  H   UNL     1       2.104  -5.385   6.907  0.00  0.00    +0.149 HD
BRANCH  28  30
ATOM     30  C   UNL     1       1.241  -3.840   8.080  0.00  0.00    +0.132 C 
BRANCH  30  31
ATOM     31  C   UNL     1       2.677  -3.410   8.384  0.00  0.00    +0.178 C 
BRANCH  31  32
ATOM     32  O   UNL     1       3.308  -2.968   7.181  0.00  0.00    -0.381 OA
ATOM     33  C   UNL     1       4.660  -2.542   7.356  0.00  0.00    +0.194 C 
ENDBRANCH  31  32
ENDBRANCH  30  31
ENDBRANCH  28  30
ENDBRANCH   2  26
TORSDOF 6
