REMARK  Name = ZINC59404225
REMARK  12 active torsions:
REMARK  status: ('A' for Active; 'I' for Inactive)
REMARK    1  A    between atoms: C_1  and  C_2
REMARK    2  A    between atoms: C_5  and  C_8
REMARK    3  A    between atoms: C_8  and  C_10
REMARK    4  A    between atoms: C_8  and  N_11
REMARK    5  A    between atoms: N_11  and  C_12
REMARK    6  A    between atoms: N_11  and  C_13
REMARK    7  A    between atoms: C_13  and  C_14
REMARK    8  A    between atoms: N_16  and  C_17
REMARK    9  A    between atoms: C_20  and  O_32
REMARK   10  A    between atoms: C_21  and  S_23
REMARK   11  A    between atoms: S_23  and  N_26
REMARK   12  A    between atoms: O_32  and  C_33
REMARK                            x       y       z     vdW  Elec       q    Type
REMARK                         _______ _______ _______ _____ _____    ______ ____
ROOT
ATOM      1  C   UNL     1       0.938  -8.789   1.915  0.00  0.00    +0.201 C 
ATOM      2  O   UNL     1       0.673  -9.851   2.437  0.00  0.00    -0.278 OA
ATOM      3  N   UNL     1       1.968  -8.050   2.374  0.00  0.00    -0.287 N 
ATOM      4  H   UNL     1       2.222  -7.234   1.915  0.00  0.00    +0.155 HD
ENDROOT
BRANCH   3   5
ATOM      5  C   UNL     1       2.672  -8.461   3.514  0.00  0.00    +0.035 A 
ATOM      6  C   UNL     1       3.163  -7.517   4.405  0.00  0.00    +0.027 A 
ATOM      7  C   UNL     1       3.856  -7.923   5.528  0.00  0.00    +0.049 A 
ATOM      8  C   UNL     1       4.061  -9.274   5.766  0.00  0.00    +0.146 A 
ATOM      9  C   UNL     1       3.571 -10.218   4.876  0.00  0.00    +0.149 A 
ATOM     10  C   UNL     1       2.873  -9.814   3.755  0.00  0.00    +0.055 A 
BRANCH   9  11
ATOM     11  S   UNL     1       3.834 -11.934   5.179  0.00  0.00    +0.064 S 
ATOM     12  O   UNL     1       3.459 -12.170   6.529  0.00  0.00    -0.153 OA
ATOM     13  O   UNL     1       3.245 -12.633   4.091  0.00  0.00    -0.153 OA
BRANCH  11  14
ATOM     14  N   UNL     1       5.465 -12.203   5.087  0.00  0.00    -0.176 NA
ATOM     15  C   UNL     1       6.095 -12.554   3.806  0.00  0.00    +0.109 C 
ATOM     16  C   UNL     1       7.248 -11.580   3.541  0.00  0.00    +0.017 C 
ATOM     17  C   UNL     1       8.204 -11.590   4.736  0.00  0.00    +0.003 C 
ATOM     18  C   UNL     1       7.460 -11.127   5.990  0.00  0.00    +0.017 C 
ATOM     19  C   UNL     1       6.311 -12.090   6.283  0.00  0.00    +0.109 C 
ENDBRANCH  11  14
ENDBRANCH   9  11
BRANCH   8  20
ATOM     20  O   UNL     1       4.744  -9.673   6.872  0.00  0.00    -0.493 OA
ATOM     21  C   UNL     1       5.221  -8.647   7.746  0.00  0.00    +0.277 C 
ENDBRANCH   8  20
ENDBRANCH   3   5
BRANCH   1  22
ATOM     22  C   UNL     1       0.116  -8.294   0.753  0.00  0.00    +0.019 C 
BRANCH  22  23
ATOM     23  N   UNL     1      -0.937  -9.272   0.447  0.00  0.00    +0.388 N 
ATOM     24  C   UNL     1      -1.872  -9.354   1.578  0.00  0.00    -0.095 C 
ATOM     25  H   UNL     1      -0.520 -10.177   0.289  0.00  0.00    -0.081 HD
BRANCH  23  26
ATOM     26  C   UNL     1      -1.663  -8.850  -0.758  0.00  0.00    -0.041 C 
ATOM     27  C   UNL     1      -0.689  -8.764  -1.935  0.00  0.00    -0.008 C 
BRANCH  26  32
ATOM     28  C   UNL     1      -5.804 -12.696  -1.963  0.00  0.00    +0.044 C 
ATOM     29  C   UNL     1      -4.724 -11.693  -1.649  0.00  0.00    -0.050 A 
ATOM     30  C   UNL     1      -4.971 -10.341  -1.798  0.00  0.00    +0.003 A 
ATOM     31  C   UNL     1      -3.981  -9.421  -1.510  0.00  0.00    +0.002 A 
ATOM     32  C   UNL     1      -2.743  -9.852  -1.072  0.00  0.00    -0.061 A 
ATOM     33  C   UNL     1      -2.496 -11.204  -0.922  0.00  0.00    +0.002 A 
ATOM     34  C   UNL     1      -3.488 -12.124  -1.206  0.00  0.00    +0.003 A 
ENDBRANCH  26  32
ENDBRANCH  23  26
ENDBRANCH  22  23
ENDBRANCH   1  22
TORSDOF 8
