REMARK  Name = ZINC35644987
REMARK  10 active torsions:
REMARK  status: ('A' for Active; 'I' for Inactive)
REMARK    1  A    between atoms: C_1  and  C_2
REMARK    2  A    between atoms: C_2  and  O_3
REMARK    3  A    between atoms: O_3  and  C_4
REMARK    4  A    between atoms: C_4  and  C_6
REMARK    5  A    between atoms: C_7  and  C_24
REMARK    6  A    between atoms: N_8  and  C_21
REMARK    7  A    between atoms: C_12  and  C_14
REMARK    8  A    between atoms: C_21  and  C_22
REMARK    9  A    between atoms: C_24  and  N_25
REMARK   10  A    between atoms: C_31  and  C_33
REMARK                            x       y       z     vdW  Elec       q    Type
REMARK                         _______ _______ _______ _____ _____    ______ ____
ROOT
ATOM      1  C   UNL     1      -0.119  -1.278  -1.930  0.00  0.00    +0.080 C 
ATOM      2  C   UNL     1       0.464  -2.475  -1.705  0.00  0.00    +0.041 C 
ATOM      3  N   UNL     1       1.580  -2.856  -2.393  0.00  0.00    -0.254 N 
ATOM      4  C   UNL     1       2.174  -2.098  -3.324  0.00  0.00    +0.307 C 
ATOM      5  O   UNL     1       3.165  -2.523  -3.884  0.00  0.00    -0.252 OA
ATOM      6  N   UNL     1       1.708  -0.878  -3.659  0.00  0.00    -0.288 N 
ATOM      7  C   UNL     1       0.503  -0.376  -2.977  0.00  0.00    +0.144 C 
ATOM      8  H   UNL     1       2.155  -0.345  -4.335  0.00  0.00    +0.151 HD
ENDROOT
BRANCH   7   9
ATOM      9  C   UNL     1       0.861   0.928  -2.313  0.00  0.00    -0.020 A 
ATOM     10  C   UNL     1       2.020   1.029  -1.566  0.00  0.00    +0.006 A 
ATOM     11  C   UNL     1       2.349   2.225  -0.956  0.00  0.00    +0.003 A 
ATOM     12  C   UNL     1       1.519   3.322  -1.092  0.00  0.00    +0.038 A 
ATOM     13  C   UNL     1       0.358   3.223  -1.839  0.00  0.00    +0.124 A 
ATOM     14  C   UNL     1       0.033   2.025  -2.455  0.00  0.00    +0.044 A 
ATOM     15  F   UNL     1      -0.454   4.294  -1.972  0.00  0.00    -0.205 F 
ENDBRANCH   7   9
BRANCH   1  16
ATOM     16  C   UNL     1      -1.275  -0.882  -1.218  0.00  0.00    +0.339 C 
ATOM     17  O   UNL     1      -2.375  -1.015  -1.721  0.00  0.00    -0.245 OA
BRANCH  16  18
ATOM     18  O   UNL     1      -1.159  -0.356   0.019  0.00  0.00    -0.462 OA
BRANCH  18  20
ATOM     19  C   UNL     1      -2.037   0.593   2.061  0.00  0.00    +0.048 C 
ATOM     20  C   UNL     1      -2.368   0.022   0.680  0.00  0.00    +0.229 C 
ENDBRANCH  18  20
ENDBRANCH  16  18
ENDBRANCH   1  16
BRANCH   3  21
ATOM     21  C   UNL     1       2.160  -4.168  -2.098  0.00  0.00    +0.141 C 
BRANCH  21  22
ATOM     22  C   UNL     1       1.540  -5.206  -2.998  0.00  0.00    -0.015 C 
ATOM     23  C   UNL     1       2.303  -5.966  -3.744  0.00  0.00    +0.005 C 
ENDBRANCH  21  22
ENDBRANCH   3  21
BRANCH   2  24
ATOM     24  C   UNL     1      -0.126  -3.405  -0.676  0.00  0.00    +0.136 C 
BRANCH  24  25
ATOM     25  N   UNL     1      -0.600  -4.628  -1.337  0.00  0.00    -0.294 NA
ATOM     26  C   UNL     1      -1.721  -4.339  -2.240  0.00  0.00    +0.104 C 
ATOM     27  C   UNL     1      -2.066  -5.599  -3.041  0.00  0.00    +0.123 C 
ATOM     28  N   UNL     1      -2.297  -6.704  -2.098  0.00  0.00    -0.295 N 
ATOM     29  C   UNL     1      -1.276  -6.967  -1.072  0.00  0.00    +0.123 C 
ATOM     30  C   UNL     1      -0.963  -5.653  -0.348  0.00  0.00    +0.104 C 
ATOM     31  C   UNL     1      -3.413  -7.455  -2.172  0.00  0.00    +0.253 C 
ATOM     32  O   UNL     1      -4.250  -7.219  -3.024  0.00  0.00    -0.269 OA
BRANCH  31  33
ATOM     33  C   UNL     1      -3.620  -8.555  -1.227  0.00  0.00    +0.074 A 
ATOM     34  C   UNL     1      -4.809  -9.103  -0.770  0.00  0.00    +0.021 A 
ATOM     35  C   UNL     1      -4.684 -10.139   0.124  0.00  0.00    +0.008 A 
ATOM     36  C   UNL     1      -3.445 -10.547   0.491  0.00  0.00    +0.046 A 
ATOM     37  S   UNL     1      -2.409  -9.544  -0.370  0.00  0.00    -0.092 S 
ENDBRANCH  31  33
ENDBRANCH  24  25
ENDBRANCH   2  24
TORSDOF 9
