REMARK  Name = ZINC37238538
REMARK  9 active torsions:
REMARK  status: ('A' for Active; 'I' for Inactive)
REMARK    1  A    between atoms: C_1  and  C_2
REMARK    2  A    between atoms: C_5  and  O_44
REMARK    3  A    between atoms: C_17  and  C_43
REMARK    4  A    between atoms: C_22  and  C_23
REMARK    5  A    between atoms: C_23  and  C_25
REMARK    6  A    between atoms: C_25  and  C_26
REMARK    7  A    between atoms: C_33  and  O_34
REMARK    8  A    between atoms: O_34  and  C_35
REMARK    9  A    between atoms: N_41  and  C_42
REMARK                            x       y       z     vdW  Elec       q    Type
REMARK                         _______ _______ _______ _____ _____    ______ ____
ROOT
ATOM      1  C   UNL     1      -0.635   1.919  -0.233  0.00  0.00    +0.016 C 
ATOM      2  C   UNL     1      -0.532   0.397  -0.094  0.00  0.00    -0.008 C 
ATOM      3  C   UNL     1       0.247  -0.163  -1.275  0.00  0.00    +0.014 C 
ATOM      4  C   UNL     1       1.654  -0.573  -0.854  0.00  0.00    +0.032 C 
ATOM      5  C   UNL     1       2.351   0.472   0.005  0.00  0.00    +0.119 C 
ATOM      6  C   UNL     1       1.596   0.701   1.319  0.00  0.00    +0.062 C 
ATOM      7  C   UNL     1       0.219   0.077   1.176  0.00  0.00    -0.065 C 
ATOM      8  C   UNL     1      -0.221  -0.702   2.116  0.00  0.00    -0.027 C 
ATOM      9  C   UNL     1      -1.540  -1.429   2.041  0.00  0.00    +0.031 C 
ATOM     10  C   UNL     1      -1.881  -1.575   0.555  0.00  0.00    +0.001 C 
ATOM     11  C   UNL     1      -1.954  -0.162  -0.034  0.00  0.00    +0.003 C 
ATOM     12  C   UNL     1      -2.636  -0.137  -1.387  0.00  0.00    +0.005 C 
ATOM     13  C   UNL     1      -4.036  -0.766  -1.390  0.00  0.00    +0.012 C 
ATOM     14  C   UNL     1      -4.321  -1.470  -0.092  0.00  0.00    -0.001 C 
ATOM     15  C   UNL     1      -3.111  -2.362   0.275  0.00  0.00    +0.007 C 
ATOM     16  C   UNL     1      -3.764  -3.172   1.407  0.00  0.00    +0.032 C 
ATOM     17  C   UNL     1      -5.126  -3.469   0.773  0.00  0.00    -0.019 C 
ATOM     18  C   UNL     1      -5.437  -2.492  -0.104  0.00  0.00    -0.003 C 
ATOM     19  C   UNL     1      -4.686  -0.471   1.006  0.00  0.00    +0.016 C 
ENDROOT
BRANCH  18  20
ATOM     20  C   UNL     1      -6.639  -2.417  -0.926  0.00  0.00    +0.158 C 
ATOM     21  O   UNL     1      -7.476  -3.293  -0.858  0.00  0.00    -0.292 OA
BRANCH  20  22
ATOM     22  C   UNL     1      -6.843  -1.252  -1.859  0.00  0.00    +0.069 C 
BRANCH  22  23
ATOM     23  C   UNL     1      -8.218  -1.362  -2.521  0.00  0.00    -0.027 C 
ATOM     24  C   UNL     1      -9.273  -1.492  -1.454  0.00  0.00    -0.012 A 
ATOM     25  C   UNL     1     -10.334  -2.364  -1.586  0.00  0.00    -0.040 A 
ATOM     26  C   UNL     1     -11.288  -2.453  -0.584  0.00  0.00    +0.053 A 
ATOM     27  C   UNL     1     -11.184  -1.673   0.556  0.00  0.00    +0.170 A 
ATOM     28  C   UNL     1     -10.115  -0.794   0.694  0.00  0.00    +0.208 A 
ATOM     29  C   UNL     1      -9.163  -0.707  -0.311  0.00  0.00    +0.167 A 
ATOM     30  O   UNL     1     -10.235  -0.145   1.890  0.00  0.00    -0.449 OA
ATOM     31  C   UNL     1     -11.603  -0.337   2.296  0.00  0.00    +0.467 C 
ATOM     32  O   UNL     1     -11.976  -1.576   1.664  0.00  0.00    -0.452 OA
ATOM     33  C   UNL     1     -10.486  -3.237  -2.805  0.00  0.00    +0.017 C 
ATOM     34  C   UNL     1      -9.597  -2.711  -3.933  0.00  0.00    -0.074 C 
ATOM     35  N   UNL     1      -8.235  -2.528  -3.408  0.00  0.00    +0.383 N 
ATOM     36  C   UNL     1      -7.304  -2.311  -4.523  0.00  0.00    -0.095 C 
ATOM     37  H   UNL     1      -7.959  -3.350  -2.891  0.00  0.00    -0.081 HD
BRANCH  29  38
ATOM     38  O   UNL     1      -8.116   0.152  -0.179  0.00  0.00    -0.491 OA
ATOM     39  C   UNL     1      -8.297   1.477  -0.681  0.00  0.00    +0.277 C 
ENDBRANCH  29  38
ENDBRANCH  22  23
ENDBRANCH  20  22
ENDBRANCH  18  20
BRANCH   5  40
ATOM     40  O   UNL     1       2.460   1.702  -0.714  0.00  0.00    -0.391 OA
ATOM     41  H   UNL     1       2.896   2.409  -0.220  0.00  0.00    +0.210 HD
ENDBRANCH   5  40
TORSDOF 5
