REMARK  Name = ZINC40156018
REMARK  6 active torsions:
REMARK  status: ('A' for Active; 'I' for Inactive)
REMARK    1  A    between atoms: C_1  and  C_2
REMARK    2  A    between atoms: C_6  and  C_16
REMARK    3  A    between atoms: N_8  and  C_9
REMARK    4  A    between atoms: N_18  and  C_19
REMARK    5  A    between atoms: C_19  and  C_21
REMARK    6  A    between atoms: C_19  and  C_22
REMARK                            x       y       z     vdW  Elec       q    Type
REMARK                         _______ _______ _______ _____ _____    ______ ____
ROOT
ATOM      1  C   UNL     1       0.278  -4.275   0.237  0.00  0.00    +0.268 C 
ATOM      2  O   UNL     1       0.266  -4.966  -0.764  0.00  0.00    -0.268 OA
ATOM      3  N   UNL     1       0.483  -4.840   1.443  0.00  0.00    -0.303 N 
ATOM      4  H   UNL     1       0.492  -4.290   2.242  0.00  0.00    +0.150 HD
ENDROOT
BRANCH   1  10
ATOM      5  C   UNL     1      -0.518   1.370   0.013  0.00  0.00    +0.066 C 
ATOM      6  C   UNL     1      -0.317  -0.123  -0.014  0.00  0.00    +0.044 A 
ATOM      7  C   UNL     1      -0.351  -0.781  -1.197  0.00  0.00    +0.076 A 
ATOM      8  C   UNL     1      -0.157  -2.187  -1.179  0.00  0.00    +0.213 A 
ATOM      9  O   UNL     1      -0.175  -2.844  -2.208  0.00  0.00    -0.285 OA
ATOM     10  C   UNL     1       0.068  -2.818   0.131  0.00  0.00    +0.192 A 
ATOM     11  N   UNL     1       0.077  -2.058   1.206  0.00  0.00    -0.158 NA
ATOM     12  N   UNL     1      -0.097  -0.790   1.146  0.00  0.00    -0.233 N 
BRANCH  12  13
ATOM     13  C   UNL     1      -0.065  -0.058   2.338  0.00  0.00    +0.101 A 
ATOM     14  C   UNL     1       1.114   0.550   2.751  0.00  0.00    +0.031 A 
ATOM     15  C   UNL     1       1.142   1.272   3.927  0.00  0.00    +0.002 A 
ATOM     16  C   UNL     1      -0.002   1.392   4.695  0.00  0.00    +0.003 A 
ATOM     17  C   UNL     1      -1.178   0.790   4.289  0.00  0.00    +0.040 A 
ATOM     18  C   UNL     1      -1.216   0.069   3.109  0.00  0.00    +0.149 A 
ATOM     19  F   UNL     1      -2.366  -0.515   2.710  0.00  0.00    -0.203 F 
ENDBRANCH  12  13
ENDBRANCH   1  10
BRANCH   3  20
ATOM     20  C   UNL     1       0.692  -6.287   1.549  0.00  0.00    +0.102 C 
ATOM     21  C   UNL     1       2.184  -6.598   1.417  0.00  0.00    +0.033 C 
BRANCH  20  22
ATOM     22  C   UNL     1       0.194  -6.770   2.887  0.00  0.00    -0.010 A 
ATOM     23  C   UNL     1       0.177  -5.909   3.968  0.00  0.00    +0.056 A 
ATOM     24  C   UNL     1      -0.282  -6.350   5.200  0.00  0.00    +0.162 A 
ATOM     25  C   UNL     1      -0.725  -7.660   5.345  0.00  0.00    +0.163 A 
ATOM     26  C   UNL     1      -0.704  -8.519   4.257  0.00  0.00    +0.065 A 
ATOM     27  C   UNL     1      -0.250  -8.072   3.029  0.00  0.00    +0.026 A 
ATOM     28 BR   UNL     1      -0.230  -9.243   1.546  0.00  0.00    -0.050 Br
ATOM     29  O   UNL     1      -1.186  -8.111   6.543  0.00  0.00    -0.485 OA
ATOM     30  C   UNL     1      -0.845  -7.335   7.697  0.00  0.00    +0.270 C 
ATOM     31  C   UNL     1      -1.103  -5.856   7.376  0.00  0.00    +0.270 C 
ATOM     32  O   UNL     1      -0.289  -5.492   6.257  0.00  0.00    -0.485 OA
ENDBRANCH  20  22
ENDBRANCH   3  20
TORSDOF 4
