REMARK  Name = ZINC22876367
REMARK  6 active torsions:
REMARK  status: ('A' for Active; 'I' for Inactive)
REMARK    1  A    between atoms: C_4  and  C_7
REMARK    2  A    between atoms: C_7  and  N_8
REMARK    3  A    between atoms: N_16  and  C_17
REMARK    4  A    between atoms: C_17  and  C_19
REMARK    5  A    between atoms: C_24  and  N_25
REMARK    6  A    between atoms: C_26  and  C_28
REMARK                            x       y       z     vdW  Elec       q    Type
REMARK                         _______ _______ _______ _____ _____    ______ ____
ROOT
ATOM      1  N   UNL     1       4.054   1.407   2.848  0.00  0.00    +0.386 N 
ATOM      2  C   UNL     1       5.292   0.679   2.536  0.00  0.00    -0.072 C 
ATOM      3  C   UNL     1       5.993   0.248   3.828  0.00  0.00    +0.035 C 
ATOM      4  C   UNL     1       4.977  -0.492   4.689  0.00  0.00    +0.024 A 
ATOM      5  C   UNL     1       3.665  -0.364   4.431  0.00  0.00    -0.004 A 
ATOM      6  S   UNL     1       2.897  -1.383   5.657  0.00  0.00    -0.059 S 
ATOM      7  C   UNL     1       4.290  -1.918   6.436  0.00  0.00    +0.164 A 
ATOM      8  N   UNL     1       5.289  -1.308   5.742  0.00  0.00    -0.339 N 
ATOM      9  N   UNL     1       4.391  -2.740   7.479  0.00  0.00    -0.152 NA
ATOM     10  C   UNL     1       3.042   0.460   3.353  0.00  0.00    -0.033 C 
ATOM     11  H   UNL     1       6.215  -1.450   5.991  0.00  0.00    +0.167 HD
ATOM     12  H   UNL     1       4.242   2.105   3.551  0.00  0.00    -0.081 HD
ENDROOT
BRANCH   9  13
ATOM     13  C   UNL     1       5.593  -3.055   7.968  0.00  0.00    +0.271 C 
ATOM     14  O   UNL     1       6.599  -2.590   7.459  0.00  0.00    -0.268 OA
BRANCH  13  15
ATOM     15  C   UNL     1       5.704  -3.967   9.127  0.00  0.00    +0.060 A 
ATOM     16  C   UNL     1       4.556  -4.411   9.783  0.00  0.00    +0.015 A 
ATOM     17  C   UNL     1       4.666  -5.261  10.862  0.00  0.00    +0.001 A 
ATOM     18  C   UNL     1       5.912  -5.678  11.300  0.00  0.00    +0.002 A 
ATOM     19  C   UNL     1       7.057  -5.247  10.660  0.00  0.00    +0.024 A 
ATOM     20  C   UNL     1       6.964  -4.395   9.568  0.00  0.00    +0.046 A 
BRANCH  20  21
ATOM     21  N   UNL     1       8.117  -3.963   8.917  0.00  0.00    -0.280 N 
ATOM     22  C   UNL     1       9.195  -3.587   9.634  0.00  0.00    +0.255 C 
ATOM     23  O   UNL     1       9.188  -3.697  10.846  0.00  0.00    -0.269 OA
ATOM     24  H   UNL     1       8.145  -3.933   7.948  0.00  0.00    +0.155 HD
BRANCH  22  25
ATOM     25  C   UNL     1      10.375  -3.047   8.955  0.00  0.00    +0.074 A 
ATOM     26  C   UNL     1      11.575  -2.612   9.498  0.00  0.00    +0.021 A 
ATOM     27  C   UNL     1      12.506  -2.151   8.599  0.00  0.00    +0.008 A 
ATOM     28  C   UNL     1      12.202  -2.152   7.277  0.00  0.00    +0.046 A 
ATOM     29  S   UNL     1      10.646  -2.784   7.212  0.00  0.00    -0.092 S 
ENDBRANCH  22  25
ENDBRANCH  20  21
ENDBRANCH  13  15
ENDBRANCH   9  13
BRANCH   1  30
ATOM     30  C   UNL     1       3.550   2.060   1.632  0.00  0.00    -0.043 C 
BRANCH  30  34
ATOM     31  C   UNL     1       0.150   4.455   2.606  0.00  0.00    +0.000 A 
ATOM     32  C   UNL     1       1.418   5.003   2.654  0.00  0.00    +0.000 A 
ATOM     33  C   UNL     1       2.518   4.228   2.340  0.00  0.00    +0.002 A 
ATOM     34  C   UNL     1       2.351   2.904   1.976  0.00  0.00    -0.064 A 
ATOM     35  C   UNL     1       1.083   2.356   1.929  0.00  0.00    +0.002 A 
ATOM     36  C   UNL     1      -0.018   3.132   2.242  0.00  0.00    +0.000 A 
ENDBRANCH  30  34
ENDBRANCH   1  30
TORSDOF 6
