REMARK  Name = ZINC15446574
REMARK  10 active torsions:
REMARK  status: ('A' for Active; 'I' for Inactive)
REMARK    1  A    between atoms: C_1  and  N_63
REMARK    2  A    between atoms: C_2  and  C_3
REMARK    3  A    between atoms: C_2  and  N_63
REMARK    4  A    between atoms: N_5  and  C_6
REMARK    5  A    between atoms: C_11  and  C_12
REMARK    6  A    between atoms: C_16  and  C_17
REMARK    7  A    between atoms: C_16  and  N_63
REMARK    8  A    between atoms: N_19  and  C_20
REMARK    9  A    between atoms: N_19  and  C_28
REMARK   10  A    between atoms: C_20  and  C_21
REMARK                            x       y       z     vdW  Elec       q    Type
REMARK                         _______ _______ _______ _____ _____    ______ ____
ROOT
ATOM      1  C   UNL     1      -0.425   1.480   3.368  0.00  0.00    +0.019 C 
ENDROOT
BRANCH   1   3
ATOM      2  C   UNL     1       0.268  -0.018   1.596  0.00  0.00    -0.095 C 
ATOM      3  N   UNL     1       0.510   0.399   2.993  0.00  0.00    +0.389 N 
ATOM      4  H   UNL     1       1.473   0.748   3.075  0.00  0.00    -0.081 HD
BRANCH   3   5
ATOM      5  C   UNL     1       0.340  -0.755   3.901  0.00  0.00    +0.019 C 
BRANCH   5   6
ATOM      6  C   UNL     1       1.445  -1.746   3.642  0.00  0.00    +0.201 C 
ATOM      7  O   UNL     1       2.271  -1.521   2.783  0.00  0.00    -0.278 OA
ATOM      8  N   UNL     1       1.515  -2.882   4.364  0.00  0.00    -0.287 N 
ATOM      9  H   UNL     1       0.812  -3.099   4.996  0.00  0.00    +0.155 HD
BRANCH   8  10
ATOM     10  C   UNL     1       2.602  -3.748   4.202  0.00  0.00    +0.045 A 
ATOM     11  C   UNL     1       3.824  -3.256   3.760  0.00  0.00    +0.024 A 
ATOM     12  C   UNL     1       4.896  -4.112   3.607  0.00  0.00    +0.002 A 
ATOM     13  C   UNL     1       4.752  -5.460   3.882  0.00  0.00    +0.001 A 
ATOM     14  C   UNL     1       3.536  -5.953   4.317  0.00  0.00    +0.014 A 
ATOM     15  C   UNL     1       2.461  -5.101   4.478  0.00  0.00    +0.076 A 
BRANCH  15  16
ATOM     16  C   UNL     1       1.135  -5.640   4.951  0.00  0.00    +0.419 C 
ATOM     17  F   UNL     1       1.240  -7.019   5.160  0.00  0.00    -0.166 F 
ATOM     18  F   UNL     1       0.777  -5.012   6.149  0.00  0.00    -0.166 F 
ATOM     19  F   UNL     1       0.157  -5.388   3.983  0.00  0.00    -0.166 F 
ENDBRANCH  15  16
ENDBRANCH   8  10
ENDBRANCH   5   6
ENDBRANCH   3   5
ENDBRANCH   1   3
BRANCH   1  20
ATOM     20  C   UNL     1      -0.082   2.716   2.577  0.00  0.00    +0.200 C 
ATOM     21  O   UNL     1       0.901   2.728   1.867  0.00  0.00    -0.278 OA
ATOM     22  N   UNL     1      -0.869   3.807   2.658  0.00  0.00    -0.296 N 
BRANCH  22  23
ATOM     23  C   UNL     1      -0.479   5.043   1.974  0.00  0.00    +0.076 C 
ATOM     24  C   UNL     1      -0.391   4.788   0.468  0.00  0.00    +0.022 C 
ATOM     25  C   UNL     1       0.016   6.078  -0.245  0.00  0.00    +0.002 C 
ATOM     26  C   UNL     1       1.379   6.539   0.274  0.00  0.00    +0.000 C 
ATOM     27  C   UNL     1       1.292   6.795   1.780  0.00  0.00    +0.002 C 
ATOM     28  C   UNL     1       0.885   5.504   2.493  0.00  0.00    +0.022 C 
ENDBRANCH  22  23
BRANCH  22  29
ATOM     29  C   UNL     1      -2.113   3.758   3.429  0.00  0.00    +0.143 C 
BRANCH  29  30
ATOM     30  C   UNL     1      -1.857   4.255   4.828  0.00  0.00    -0.030 A 
ATOM     31  C   UNL     1      -1.623   3.352   5.849  0.00  0.00    +0.008 A 
ATOM     32  C   UNL     1      -1.383   3.807   7.132  0.00  0.00    +0.038 A 
ATOM     33  C   UNL     1      -1.388   5.165   7.397  0.00  0.00    +0.123 A 
ATOM     34  C   UNL     1      -1.628   6.068   6.375  0.00  0.00    +0.038 A 
ATOM     35  C   UNL     1      -1.863   5.612   5.092  0.00  0.00    +0.008 A 
ATOM     36  F   UNL     1      -1.158   5.611   8.652  0.00  0.00    -0.205 F 
ENDBRANCH  29  30
ENDBRANCH  22  29
ENDBRANCH   1  20
TORSDOF 9
