REMARK  Name = ZINC04290552
REMARK  7 active torsions:
REMARK  status: ('A' for Active; 'I' for Inactive)
REMARK    1  A    between atoms: C_1  and  C_2
REMARK    2  A    between atoms: C_4  and  N_26
REMARK    3  A    between atoms: C_7  and  N_8
REMARK    4  A    between atoms: C_9  and  C_11
REMARK    5  A    between atoms: C_11  and  O_12
REMARK    6  A    between atoms: O_12  and  C_13
REMARK    7  A    between atoms: C_16  and  C_20
REMARK                            x       y       z     vdW  Elec       q    Type
REMARK                         _______ _______ _______ _____ _____    ______ ____
ROOT
ATOM      1  C   UNL     1      -3.702   2.128  -0.184  0.00  0.00    +0.324 C 
ENDROOT
BRANCH   1   3
ATOM      2  N   UNL     1      -1.237   2.069   0.019  0.00  0.00    -0.282 N 
ATOM      3  C   UNL     1      -2.394   1.385  -0.081  0.00  0.00    +0.255 C 
ATOM      4  O   UNL     1      -2.383   0.173  -0.088  0.00  0.00    -0.272 OA
ATOM      5  H   UNL     1      -1.250   3.037   0.090  0.00  0.00    +0.155 HD
BRANCH   2  12
ATOM      6  C   UNL     1       1.000   3.305  -1.232  0.00  0.00    +0.046 C 
ATOM      7  C   UNL     1       1.099   1.949  -0.581  0.00  0.00    -0.027 A 
ATOM      8  C   UNL     1       2.300   1.267  -0.584  0.00  0.00    +0.038 A 
ATOM      9  C   UNL     1       2.392   0.023   0.013  0.00  0.00    +0.127 A 
ATOM     10  C   UNL     1       1.282  -0.542   0.613  0.00  0.00    +0.034 A 
ATOM     11  C   UNL     1       0.078   0.134   0.619  0.00  0.00    +0.026 A 
ATOM     12  C   UNL     1      -0.017   1.384   0.021  0.00  0.00    +0.037 A 
BRANCH   9  13
ATOM     13  N   UNL     1       3.681  -0.705   0.008  0.00  0.00    +0.056 N 
ATOM     14  O   UNL     1       3.763  -1.801   0.532  0.00  0.00    -0.126 OA
ATOM     15  O   UNL     1       4.659  -0.208  -0.520  0.00  0.00    -0.126 OA
ENDBRANCH   9  13
ENDBRANCH   2  12
ENDBRANCH   1   3
BRANCH   1  16
ATOM     16  O   UNL     1      -4.776   1.190  -0.279  0.00  0.00    -0.482 OA
BRANCH  16  17
ATOM     17  C   UNL     1      -6.032   1.699  -0.379  0.00  0.00    +0.135 A 
ATOM     18  C   UNL     1      -6.224   3.073  -0.381  0.00  0.00    +0.047 A 
ATOM     19  C   UNL     1      -7.497   3.593  -0.488  0.00  0.00    +0.012 A 
ATOM     20  C   UNL     1      -8.593   2.736  -0.584  0.00  0.00    -0.017 A 
ATOM     21  C   UNL     1      -8.397   1.356  -0.577  0.00  0.00    +0.027 A 
ATOM     22  C   UNL     1      -7.121   0.842  -0.475  0.00  0.00    +0.060 A 
ATOM     23 BR   UNL     1      -6.854  -1.030  -0.465  0.00  0.00    -0.046 Br
BRANCH  20  24
ATOM     24  C   UNL     1      -9.964   3.292  -0.693  0.00  0.00    -0.018 A 
ATOM     25  C   UNL     1     -11.059   2.436  -0.795  0.00  0.00    +0.008 A 
ATOM     26  C   UNL     1     -12.333   2.959  -0.892  0.00  0.00    +0.001 A 
ATOM     27  C   UNL     1     -12.522   4.329  -0.898  0.00  0.00    +0.000 A 
ATOM     28  C   UNL     1     -11.438   5.183  -0.803  0.00  0.00    +0.001 A 
ATOM     29  C   UNL     1     -10.161   4.671  -0.700  0.00  0.00    +0.008 A 
ENDBRANCH  20  24
ENDBRANCH  16  17
ENDBRANCH   1  16
TORSDOF 6
