REMARK  Name = ZINC02254273
REMARK  9 active torsions:
REMARK  status: ('A' for Active; 'I' for Inactive)
REMARK    1  A    between atoms: C_1  and  C_2
REMARK    2  A    between atoms: C_5  and  C_8
REMARK    3  A    between atoms: C_19  and  C_21
REMARK    4  A    between atoms: C_24  and  O_29
REMARK    5  A    between atoms: C_25  and  O_27
REMARK    6  A    between atoms: O_27  and  C_28
REMARK    7  A    between atoms: O_29  and  C_30
REMARK    8  A    between atoms: C_35  and  S_37
REMARK    9  A    between atoms: S_37  and  C_38
REMARK                            x       y       z     vdW  Elec       q    Type
REMARK                         _______ _______ _______ _____ _____    ______ ____
ROOT
ATOM      1  C   UNL     1      -0.005  -4.199  -0.209  0.00  0.00    +0.159 C 
ATOM      2  C   UNL     1       1.421  -4.676  -0.049  0.00  0.00    +0.025 C 
ATOM      3  C   UNL     1       1.718  -5.442   1.022  0.00  0.00    +0.058 C 
ATOM      4  C   UNL     1       3.120  -5.911   1.160  0.00  0.00    +0.040 A 
ATOM      5  C   UNL     1       3.599  -6.420   2.359  0.00  0.00    +0.013 A 
ATOM      6  C   UNL     1       4.912  -6.843   2.445  0.00  0.00    +0.001 A 
ATOM      7  C   UNL     1       5.744  -6.760   1.343  0.00  0.00    +0.004 A 
ATOM      8  C   UNL     1       5.274  -6.255   0.144  0.00  0.00    +0.046 A 
ATOM      9  C   UNL     1       3.961  -5.828   0.044  0.00  0.00    +0.131 A 
ATOM     10  O   UNL     1       3.472  -5.334  -1.122  0.00  0.00    -0.479 OA
ATOM     11  C   UNL     1       2.484  -4.305  -1.042  0.00  0.00    +0.234 C 
ATOM     12  N   UNL     1       0.777  -5.775   1.938  0.00  0.00    -0.326 N 
ATOM     13  C   UNL     1      -0.484  -5.403   1.875  0.00  0.00    +0.216 C 
ATOM     14  N   UNL     1      -0.943  -4.619   0.839  0.00  0.00    -0.209 N 
ATOM     15  N   UNL     1      -2.305  -4.406   1.067  0.00  0.00    -0.239 N 
ATOM     16  C   UNL     1      -2.608  -5.064   2.230  0.00  0.00    +0.174 C 
ATOM     17  N   UNL     1      -1.529  -5.644   2.688  0.00  0.00    -0.192 NA
ATOM     18  H   UNL     1       1.050  -6.324   2.689  0.00  0.00    +0.169 HD
ATOM     19  H   UNL     1      -2.914  -3.894   0.512  0.00  0.00    +0.172 HD
ENDROOT
BRANCH   1  24
ATOM     20  C   UNL     1       0.033   1.577  -0.379  0.00  0.00    +0.044 C 
ATOM     21  C   UNL     1       0.023   0.071  -0.335  0.00  0.00    -0.050 A 
ATOM     22  C   UNL     1      -0.111  -0.654  -1.504  0.00  0.00    +0.004 A 
ATOM     23  C   UNL     1      -0.120  -2.036  -1.463  0.00  0.00    +0.006 A 
ATOM     24  C   UNL     1       0.006  -2.692  -0.254  0.00  0.00    -0.021 A 
ATOM     25  C   UNL     1       0.140  -1.967   0.916  0.00  0.00    +0.006 A 
ATOM     26  C   UNL     1       0.154  -0.586   0.875  0.00  0.00    +0.004 A 
ENDBRANCH   1  24
BRANCH  11  27
ATOM     27  C   UNL     1       3.139  -3.018  -0.613  0.00  0.00    +0.001 A 
ATOM     28  C   UNL     1       2.914  -1.857  -1.331  0.00  0.00    +0.011 A 
ATOM     29  C   UNL     1       3.513  -0.674  -0.942  0.00  0.00    +0.050 A 
ATOM     30  C   UNL     1       4.339  -0.648   0.170  0.00  0.00    +0.162 A 
ATOM     31  C   UNL     1       4.564  -1.815   0.893  0.00  0.00    +0.162 A 
ATOM     32  C   UNL     1       3.958  -2.997   0.500  0.00  0.00    +0.057 A 
BRANCH  31  33
ATOM     33  O   UNL     1       5.374  -1.795   1.985  0.00  0.00    -0.491 OA
ATOM     34  C   UNL     1       5.636  -3.047   2.623  0.00  0.00    +0.277 C 
ENDBRANCH  31  33
BRANCH  30  35
ATOM     35  O   UNL     1       4.929   0.516   0.554  0.00  0.00    -0.491 OA
ATOM     36  C   UNL     1       4.653   1.675  -0.236  0.00  0.00    +0.277 C 
ENDBRANCH  30  35
ENDBRANCH  11  27
BRANCH  16  37
ATOM     37  S   UNL     1      -4.199  -5.123   2.986  0.00  0.00    -0.092 S 
ATOM     38  C   UNL     1      -3.942  -6.132   4.471  0.00  0.00    +0.093 C 
ENDBRANCH  16  37
TORSDOF 5
