REMARK  Name = ZINC38568734
REMARK  5 active torsions:
REMARK  status: ('A' for Active; 'I' for Inactive)
REMARK    1  A    between atoms: C_4  and  C_7
REMARK    2  A    between atoms: C_9  and  S_13
REMARK    3  A    between atoms: S_13  and  C_14
REMARK    4  A    between atoms: C_14  and  C_15
REMARK    5  A    between atoms: N_26  and  C_27
REMARK                            x       y       z     vdW  Elec       q    Type
REMARK                         _______ _______ _______ _____ _____    ______ ____
ROOT
ATOM      1  C   UNL     1       5.621  -2.818   4.114  0.00  0.00    +0.176 C 
ATOM      2  N   UNL     1       4.878  -4.080   4.212  0.00  0.00    -0.324 N 
ATOM      3  C   UNL     1       5.314  -5.167   3.463  0.00  0.00    +0.041 A 
ATOM      4  C   UNL     1       4.441  -6.138   3.003  0.00  0.00    +0.024 A 
ATOM      5  C   UNL     1       4.926  -7.197   2.260  0.00  0.00    +0.002 A 
ATOM      6  C   UNL     1       6.278  -7.294   1.970  0.00  0.00    +0.001 A 
ATOM      7  C   UNL     1       7.162  -6.335   2.422  0.00  0.00    +0.015 A 
ATOM      8  C   UNL     1       6.687  -5.264   3.174  0.00  0.00    +0.058 A 
ATOM      9  C   UNL     1       7.588  -4.217   3.689  0.00  0.00    +0.254 C 
ATOM     10  O   UNL     1       8.792  -4.384   3.680  0.00  0.00    -0.270 OA
ATOM     11  N   UNL     1       7.060  -3.075   4.167  0.00  0.00    -0.246 N 
ATOM     12  H   UNL     1       4.100  -4.154   4.787  0.00  0.00    +0.148 HD
ENDROOT
BRANCH  11  13
ATOM     13  C   UNL     1       7.910  -2.114   4.726  0.00  0.00    +0.057 A 
ATOM     14  C   UNL     1       8.205  -2.151   6.082  0.00  0.00    +0.025 A 
ATOM     15  C   UNL     1       9.044  -1.201   6.631  0.00  0.00    +0.002 A 
ATOM     16  C   UNL     1       9.589  -0.213   5.832  0.00  0.00    +0.002 A 
ATOM     17  C   UNL     1       9.297  -0.172   4.481  0.00  0.00    +0.022 A 
ATOM     18  C   UNL     1       8.463  -1.123   3.924  0.00  0.00    +0.062 A 
ATOM     19 CL   UNL     1       8.103  -1.077   2.226  0.00  0.00    -0.082 Cl
ENDBRANCH  11  13
BRANCH   1  20
ATOM     20  C   UNL     1       5.278  -2.129   2.792  0.00  0.00    +0.115 C 
BRANCH  20  21
ATOM     21  S   UNL     1       5.745  -3.208   1.410  0.00  0.00    -0.108 S 
BRANCH  21  24
ATOM     22  C   UNL     1       3.697  -0.686  -0.037  0.00  0.00    +0.087 C 
ATOM     23  N   UNL     1       3.837  -1.980  -0.051  0.00  0.00    -0.245 NA
ATOM     24  C   UNL     1       5.279  -2.258  -0.064  0.00  0.00    +0.280 C 
ATOM     25  N   UNL     1       5.947  -0.951  -0.057  0.00  0.00    -0.253 NA
ATOM     26  C   UNL     1       5.029  -0.047  -0.048  0.00  0.00    +0.136 C 
BRANCH  22  30
ATOM     27  C   UNL     1      -0.017   1.379   0.010  0.00  0.00    +0.000 A 
ATOM     28  C   UNL     1       1.169   2.093   0.002  0.00  0.00    +0.001 A 
ATOM     29  C   UNL     1       2.377   1.428  -0.013  0.00  0.00    +0.010 A 
ATOM     30  C   UNL     1       2.403   0.034  -0.021  0.00  0.00    +0.002 A 
ATOM     31  C   UNL     1       1.204  -0.680  -0.013  0.00  0.00    +0.010 A 
ATOM     32  C   UNL     1       0.002  -0.004   0.002  0.00  0.00    +0.001 A 
ENDBRANCH  22  30
ENDBRANCH  21  24
ENDBRANCH  20  21
ENDBRANCH   1  20
TORSDOF 5
