REMARK  Name = ZINC12360848
REMARK  4 active torsions:
REMARK  status: ('A' for Active; 'I' for Inactive)
REMARK    1  A    between atoms: C_1  and  O_2
REMARK    2  A    between atoms: O_2  and  C_3
REMARK    3  A    between atoms: C_6  and  C_9
REMARK    4  A    between atoms: N_28  and  C_31
REMARK                            x       y       z     vdW  Elec       q    Type
REMARK                         _______ _______ _______ _____ _____    ______ ____
ROOT
ATOM      1  C   UNL     1      -2.454   4.131   0.327  0.00  0.00    +0.154 C 
ATOM      2  C   UNL     1      -3.217   3.532  -0.833  0.00  0.00    +0.046 A 
ATOM      3  C   UNL     1      -2.873   2.371  -1.431  0.00  0.00    -0.015 A 
ATOM      4  C   UNL     1      -3.840   2.135  -2.485  0.00  0.00    +0.003 A 
ATOM      5  C   UNL     1      -3.990   1.107  -3.420  0.00  0.00    +0.010 A 
ATOM      6  C   UNL     1      -5.045   1.212  -4.292  0.00  0.00    +0.001 A 
ATOM      7  C   UNL     1      -5.927   2.280  -4.257  0.00  0.00    +0.002 A 
ATOM      8  C   UNL     1      -5.802   3.310  -3.342  0.00  0.00    +0.026 A 
ATOM      9  C   UNL     1      -4.739   3.231  -2.444  0.00  0.00    +0.047 A 
ATOM     10  N   UNL     1      -4.331   4.054  -1.434  0.00  0.00    -0.356 N 
ATOM     11  H   UNL     1      -4.765   4.884  -1.180  0.00  0.00    +0.166 HD
ATOM     12  C   UNL     1      -1.692   1.521  -1.040  0.00  0.00    +0.069 C 
ATOM     13  C   UNL     1      -1.228   1.931   0.359  0.00  0.00    +0.167 C 
ATOM     14  N   UNL     1      -1.180   3.390   0.449  0.00  0.00    -0.276 N 
ATOM     15  C   UNL     1      -0.048   4.073   0.626  0.00  0.00    +0.234 C 
ATOM     16  O   UNL     1      -0.110   5.284   0.612  0.00  0.00    -0.274 OA
ATOM     17  C   UNL     1       1.291   3.447   0.842  0.00  0.00    +0.204 C 
ATOM     18  N   UNL     1       1.218   1.995   0.868  0.00  0.00    -0.288 N 
ATOM     19  C   UNL     1       0.097   1.307   0.659  0.00  0.00    +0.237 C 
ATOM     20  O   UNL     1       0.157   0.097   0.710  0.00  0.00    -0.274 OA
ENDROOT
BRANCH   1  24
ATOM     21  C   UNL     1      -1.662   8.261  -0.434  0.00  0.00    +0.120 A 
ATOM     22  C   UNL     1      -1.352   7.307  -1.392  0.00  0.00    +0.046 A 
ATOM     23  C   UNL     1      -1.609   5.972  -1.143  0.00  0.00    +0.009 A 
ATOM     24  C   UNL     1      -2.174   5.588   0.058  0.00  0.00    -0.021 A 
ATOM     25  C   UNL     1      -2.489   6.538   1.012  0.00  0.00    +0.009 A 
ATOM     26  C   UNL     1      -2.229   7.873   0.771  0.00  0.00    +0.046 A 
BRANCH  21  28
ATOM     27  C   UNL     1      -1.754  10.502   0.355  0.00  0.00    +0.277 C 
ATOM     28  O   UNL     1      -1.410   9.575  -0.676  0.00  0.00    -0.495 OA
ENDBRANCH  21  28
ENDBRANCH   1  24
BRANCH  18  29
ATOM     29  C   UNL     1       2.447   1.247   1.140  0.00  0.00    +0.077 C 
ATOM     30  C   UNL     1       3.044   1.685   2.493  0.00  0.00    +0.022 C 
ATOM     31  C   UNL     1       4.575   1.658   2.259  0.00  0.00    +0.002 C 
ATOM     32  C   UNL     1       4.709   2.184   0.808  0.00  0.00    +0.002 C 
ATOM     33  C   UNL     1       3.505   1.564   0.069  0.00  0.00    +0.022 C 
ENDBRANCH  18  29
TORSDOF 3
