REMARK  Name = ZINC08861516
REMARK  6 active torsions:
REMARK  status: ('A' for Active; 'I' for Inactive)
REMARK    1  A    between atoms: C_1  and  C_2
REMARK    2  A    between atoms: C_2  and  C_29
REMARK    3  A    between atoms: N_5  and  C_9
REMARK    4  A    between atoms: C_9  and  N_60
REMARK    5  A    between atoms: N_12  and  C_15
REMARK    6  A    between atoms: N_18  and  C_23
REMARK                            x       y       z     vdW  Elec       q    Type
REMARK                         _______ _______ _______ _____ _____    ______ ____
ROOT
ATOM      1  C   UNL     1      -4.014   5.290   1.394  0.00  0.00    -0.057 C 
ATOM      2  C   UNL     1      -2.654   4.587   1.387  0.00  0.00    +0.086 C 
ATOM      3  N   UNL     1      -2.418   3.995   0.063  0.00  0.00    -0.331 N 
ATOM      4  C   UNL     1      -2.438   5.026  -0.983  0.00  0.00    +0.086 C 
ATOM      5  C   UNL     1      -3.798   5.729  -0.977  0.00  0.00    -0.057 C 
ATOM      6  N   UNL     1      -4.013   6.338   0.353  0.00  0.00    +0.392 N 
ATOM      7  H   UNL     1      -3.250   6.999   0.545  0.00  0.00    -0.079 HD
ENDROOT
BRANCH   3   8
ATOM      8  C   UNL     1      -1.226   3.288   0.041  0.00  0.00    +0.074 A 
ATOM      9  C   UNL     1      -0.006   3.942   0.314  0.00  0.00    +0.158 A 
ATOM     10  N   UNL     1       1.117   3.279   0.293  0.00  0.00    -0.170 NA
ATOM     11  N   UNL     1       1.141   1.911   0.001  0.00  0.00    -0.195 N 
ATOM     12  C   UNL     1      -0.001   1.247  -0.265  0.00  0.00    +0.292 A 
ATOM     13  O   UNL     1       0.028   0.053  -0.519  0.00  0.00    -0.264 OA
ATOM     14  C   UNL     1      -1.222   1.937  -0.255  0.00  0.00    +0.129 A 
ATOM     15 CL   UNL     1      -2.706   1.106  -0.602  0.00  0.00    -0.076 Cl
BRANCH  11  16
ATOM     16  C   UNL     1       2.361   1.226  -0.013  0.00  0.00    +0.069 A 
ATOM     17  C   UNL     1       2.494   0.026   0.673  0.00  0.00    +0.028 A 
ATOM     18  C   UNL     1       3.698  -0.650   0.651  0.00  0.00    +0.002 A 
ATOM     19  C   UNL     1       4.774  -0.128  -0.043  0.00  0.00    +0.000 A 
ATOM     20  C   UNL     1       4.646   1.070  -0.723  0.00  0.00    +0.002 A 
ATOM     21  C   UNL     1       3.443   1.748  -0.710  0.00  0.00    +0.028 A 
ENDBRANCH  11  16
ENDBRANCH   3   8
BRANCH   6  22
ATOM     22  C   UNL     1      -5.298   7.070   0.372  0.00  0.00    +0.043 C 
BRANCH  22  27
ATOM     23  C   UNL     1      -4.455   9.168  -3.747  0.00  0.00    +0.047 C 
ATOM     24  C   UNL     1      -5.632   9.001  -2.783  0.00  0.00    +0.135 C 
ATOM     25  C   UNL     1      -5.142   8.850  -1.357  0.00  0.00    +0.249 C 
ATOM     26  O   UNL     1      -4.507   9.657  -0.712  0.00  0.00    -0.272 OA
ATOM     27  N   UNL     1      -5.557   7.632  -0.956  0.00  0.00    -0.241 N 
ATOM     28  C   UNL     1      -6.241   7.003  -1.919  0.00  0.00    +0.308 C 
ATOM     29  O   UNL     1      -6.719   5.893  -1.791  0.00  0.00    -0.252 OA
ATOM     30  N   UNL     1      -6.339   7.735  -3.043  0.00  0.00    -0.281 N 
ATOM     31  H   UNL     1      -6.787   7.479  -3.864  0.00  0.00    +0.152 HD
BRANCH  24  32
ATOM     32  C   UNL     1      -6.577  10.169  -2.897  0.00  0.00    -0.016 A 
ATOM     33  C   UNL     1      -6.384  11.294  -2.117  0.00  0.00    +0.006 A 
ATOM     34  C   UNL     1      -7.249  12.367  -2.224  0.00  0.00    +0.000 A 
ATOM     35  C   UNL     1      -8.312  12.312  -3.107  0.00  0.00    +0.000 A 
ATOM     36  C   UNL     1      -8.508  11.186  -3.884  0.00  0.00    +0.000 A 
ATOM     37  C   UNL     1      -7.641  10.114  -3.779  0.00  0.00    +0.006 A 
ENDBRANCH  24  32
ENDBRANCH  22  27
ENDBRANCH   6  22
TORSDOF 5
