REMARK  Name = ZINC08996612
REMARK  8 active torsions:
REMARK  status: ('A' for Active; 'I' for Inactive)
REMARK    1  A    between atoms: C_1  and  C_2
REMARK    2  A    between atoms: C_3  and  C_26
REMARK    3  A    between atoms: C_4  and  C_21
REMARK    4  A    between atoms: C_6  and  C_19
REMARK    5  A    between atoms: C_7  and  S_9
REMARK    6  A    between atoms: S_9  and  C_10
REMARK    7  A    between atoms: C_10  and  C_11
REMARK    8  A    between atoms: N_28  and  C_29
REMARK                            x       y       z     vdW  Elec       q    Type
REMARK                         _______ _______ _______ _____ _____    ______ ____
ROOT
ATOM      1  C   UNL     1      -0.012   1.081   0.009  0.00  0.00    +0.061 C 
ATOM      2  C   UNL     1      -0.720   1.559   1.250  0.00  0.00    +0.015 C 
ATOM      3  C   UNL     1      -0.031   1.690   2.395  0.00  0.00    +0.047 C 
ATOM      4  C   UNL     1      -0.688   2.154   3.663  0.00  0.00    +0.134 C 
ATOM      5  C   UNL     1      -2.016   2.794   3.375  0.00  0.00    +0.072 C 
ATOM      6  C   UNL     1      -2.638   2.621   2.178  0.00  0.00    +0.080 C 
ATOM      7  N   UNL     1      -2.054   1.859   1.192  0.00  0.00    -0.312 N 
ATOM      8  H   UNL     1      -2.664   1.491   0.354  0.00  0.00    +0.152 HD
ENDROOT
BRANCH   4   9
ATOM      9  C   UNL     1      -0.895   0.972   4.575  0.00  0.00    +0.118 A 
ATOM     10  C   UNL     1      -0.380   0.830   5.809  0.00  0.00    +0.045 A 
ATOM     11  C   UNL     1      -0.826  -0.419   6.299  0.00  0.00    +0.041 A 
ATOM     12  C   UNL     1      -1.587  -0.966   5.334  0.00  0.00    +0.195 A 
ATOM     13  O   UNL     1      -1.630  -0.117   4.295  0.00  0.00    -0.467 OA
ENDBRANCH   4   9
BRANCH   3  14
ATOM     14  C   UNL     1       1.350   1.383   2.407  0.00  0.00    +0.247 C 
ATOM     15  O   UNL     1       1.920   1.098   1.369  0.00  0.00    -0.270 OA
ATOM     16  N   UNL     1       2.036   1.405   3.567  0.00  0.00    -0.282 N 
ATOM     17  H   UNL     1       1.508   1.590   4.514  0.00  0.00    +0.155 HD
BRANCH  16  18
ATOM     18  C   UNL     1       3.418   1.194   3.566  0.00  0.00    +0.034 A 
ATOM     19  C   UNL     1       3.985   0.300   2.667  0.00  0.00    +0.023 A 
ATOM     20  C   UNL     1       5.352   0.098   2.665  0.00  0.00    +0.002 A 
ATOM     21  C   UNL     1       6.153   0.775   3.566  0.00  0.00    +0.000 A 
ATOM     22  C   UNL     1       5.591   1.661   4.466  0.00  0.00    +0.002 A 
ATOM     23  C   UNL     1       4.226   1.872   4.470  0.00  0.00    +0.023 A 
ENDBRANCH  16  18
ENDBRANCH   3  14
BRANCH   5  24
ATOM     24  C   UNL     1      -2.639   3.602   4.379  0.00  0.00    +0.098 C 
ATOM     25  N   UNL     1      -3.134   4.243   5.176  0.00  0.00    -0.191 NA
ENDBRANCH   5  24
BRANCH   6  26
ATOM     26  S   UNL     1      -4.200   3.381   1.885  0.00  0.00    -0.100 S 
BRANCH  26  27
ATOM     27  C   UNL     1      -4.513   2.816   0.194  0.00  0.00    +0.171 C 
BRANCH  27  28
ATOM     28  C   UNL     1      -5.836   3.360  -0.280  0.00  0.00    +0.229 C 
ATOM     29  O   UNL     1      -6.501   4.061   0.452  0.00  0.00    -0.275 OA
ATOM     30  N   UNL     1      -6.279   3.067  -1.519  0.00  0.00    -0.264 N 
ATOM     31  C   UNL     1      -7.499   3.569  -1.957  0.00  0.00    +0.164 A 
ATOM     32  N   UNL     1      -8.097   3.397  -3.120  0.00  0.00    -0.233 NA
ATOM     33  C   UNL     1      -9.266   3.951  -3.376  0.00  0.00    +0.120 A 
ATOM     34  C   UNL     1      -9.848   4.706  -2.413  0.00  0.00    +0.068 A 
ATOM     35  S   UNL     1      -8.631   4.578  -1.110  0.00  0.00    -0.061 S 
ATOM     36  H   UNL     1      -5.676   2.431  -2.183  0.00  0.00    +0.157 HD
ENDBRANCH  27  28
ENDBRANCH  26  27
ENDBRANCH   6  26
TORSDOF 7
