REMARK  Name = ZINC08920789
REMARK  9 active torsions:
REMARK  status: ('A' for Active; 'I' for Inactive)
REMARK    1  A    between atoms: C_1  and  C_2
REMARK    2  A    between atoms: C_2  and  C_3
REMARK    3  A    between atoms: C_3  and  C_4
REMARK    4  A    between atoms: C_3  and  C_5
REMARK    5  A    between atoms: C_3  and  C_6
REMARK    6  A    between atoms: C_15  and  O_35
REMARK    7  A    between atoms: C_17  and  C_20
REMARK    8  A    between atoms: C_23  and  C_25
REMARK    9  A    between atoms: C_28  and  N_32
REMARK                            x       y       z     vdW  Elec       q    Type
REMARK                         _______ _______ _______ _____ _____    ______ ____
ROOT
ATOM      1  C   UNL     1       0.739  -2.027  -1.265  0.00  0.00    -0.000 C 
ATOM      2  C   UNL     1       1.455  -2.524  -2.524  0.00  0.00    +0.009 C 
ATOM      3  C   UNL     1       1.700  -4.031  -2.423  0.00  0.00    +0.037 C 
ATOM      4  C   UNL     1       0.381  -4.722  -2.099  0.00  0.00    -0.023 A 
ATOM      5  C   UNL     1      -0.660  -4.024  -1.589  0.00  0.00    -0.004 A 
ATOM      6  S   UNL     1      -1.953  -5.221  -1.380  0.00  0.00    -0.078 S 
ATOM      7  C   UNL     1      -1.131  -6.605  -1.958  0.00  0.00    +0.080 A 
ATOM      8  C   UNL     1       0.144  -6.140  -2.305  0.00  0.00    +0.068 A 
ATOM      9  C   UNL     1       1.110  -7.137  -2.835  0.00  0.00    +0.220 C 
ATOM     10  N   UNL     1       0.647  -8.310  -3.170  0.00  0.00    -0.220 NA
ATOM     11  C   UNL     1      -0.759  -8.691  -3.125  0.00  0.00    +0.260 C 
ATOM     12  N   UNL     1      -1.499  -7.920  -2.108  0.00  0.00    -0.311 N 
ATOM     13  C   UNL     1      -0.701  -2.562  -1.273  0.00  0.00    +0.046 C 
ATOM     14  H   UNL     1      -2.205  -8.318  -1.576  0.00  0.00    +0.149 HD
ENDROOT
BRANCH  11  15
ATOM     15  C   UNL     1      -1.379  -8.445  -4.476  0.00  0.00    +0.148 A 
ATOM     16  C   UNL     1      -0.727  -8.465  -5.655  0.00  0.00    +0.049 A 
ATOM     17  C   UNL     1      -1.679  -8.189  -6.658  0.00  0.00    +0.050 A 
ATOM     18  C   UNL     1      -2.869  -8.005  -6.028  0.00  0.00    +0.137 A 
ATOM     19  O   UNL     1      -2.673  -8.164  -4.705  0.00  0.00    -0.456 OA
BRANCH  18  20
ATOM     20  C   UNL     1      -4.156  -7.687  -6.681  0.00  0.00    +0.036 A 
ATOM     21  C   UNL     1      -5.298  -8.431  -6.380  0.00  0.00    +0.015 A 
ATOM     22  C   UNL     1      -6.496  -8.128  -6.993  0.00  0.00    +0.033 A 
ATOM     23  C   UNL     1      -6.568  -7.090  -7.906  0.00  0.00    +0.128 A 
ATOM     24  C   UNL     1      -5.441  -6.349  -8.210  0.00  0.00    +0.053 A 
ATOM     25  C   UNL     1      -4.236  -6.637  -7.599  0.00  0.00    +0.054 A 
ATOM     26 CL   UNL     1      -2.823  -5.701  -7.976  0.00  0.00    -0.083 Cl
BRANCH  23  27
ATOM     27  N   UNL     1      -7.857  -6.772  -8.560  0.00  0.00    +0.056 N 
ATOM     28  O   UNL     1      -8.852  -7.423  -8.295  0.00  0.00    -0.126 OA
ATOM     29  O   UNL     1      -7.924  -5.859  -9.364  0.00  0.00    -0.126 OA
ENDBRANCH  23  27
ENDBRANCH  18  20
ENDBRANCH  11  15
BRANCH   1  30
ATOM     30  C   UNL     1       0.718  -0.497  -1.257  0.00  0.00    -0.032 C 
ATOM     31  C   UNL     1      -0.022   0.009  -2.496  0.00  0.00    +0.011 C 
ATOM     32  C   UNL     1       2.154   0.032  -1.268  0.00  0.00    +0.011 C 
BRANCH  30  34
ATOM     33  C   UNL     1      -0.019   1.526   0.010  0.00  0.00    +0.004 C 
ATOM     34  C   UNL     1       0.002  -0.004   0.002  0.00  0.00    +0.003 C 
ENDBRANCH  30  34
ENDBRANCH   1  30
BRANCH   9  35
ATOM     35  O   UNL     1       2.424  -6.840  -2.963  0.00  0.00    -0.492 OA
ATOM     36  H   UNL     1       2.958  -7.564  -3.318  0.00  0.00    +0.294 HD
ENDBRANCH   9  35
TORSDOF 6
