REMARK  Name = ZINC35337436
REMARK  8 active torsions:
REMARK  status: ('A' for Active; 'I' for Inactive)
REMARK    1  A    between atoms: C_1  and  C_2
REMARK    2  A    between atoms: C_5  and  N_9
REMARK    3  A    between atoms: C_7  and  C_8
REMARK    4  A    between atoms: C_13  and  C_14
REMARK    5  A    between atoms: C_17  and  C_19
REMARK    6  A    between atoms: C_21  and  N_26
REMARK    7  A    between atoms: C_24  and  O_25
REMARK    8  A    between atoms: C_29  and  C_31
REMARK                            x       y       z     vdW  Elec       q    Type
REMARK                         _______ _______ _______ _____ _____    ______ ____
ROOT
ATOM      1  N   UNL     1      -0.321  -4.033   0.212  0.00  0.00    -0.156 N 
ATOM      2  C   UNL     1       0.101  -4.728  -0.864  0.00  0.00    +0.272 C 
ATOM      3  O   UNL     1       0.414  -4.276  -1.953  0.00  0.00    -0.268 OA
ATOM      4  C   UNL     1       0.107  -6.139  -0.459  0.00  0.00    +0.065 C 
ATOM      5  C   UNL     1       0.470  -7.242  -1.232  0.00  0.00    +0.061 C 
ATOM      6  C   UNL     1      -0.350  -6.136   0.935  0.00  0.00    +0.069 C 
ATOM      7  N   UNL     1      -0.577  -4.902   1.272  0.00  0.00    -0.177 NA
ATOM      8  C   UNL     1      -0.520  -7.345   1.818  0.00  0.00    +0.068 C 
ENDROOT
BRANCH   1  13
ATOM      9  C   UNL     1      -0.940   1.605   0.403  0.00  0.00    +0.044 C 
ATOM     10  C   UNL     1      -0.775   0.107   0.352  0.00  0.00    -0.047 A 
ATOM     11  C   UNL     1      -0.339  -0.500  -0.811  0.00  0.00    +0.005 A 
ATOM     12  C   UNL     1      -0.188  -1.871  -0.861  0.00  0.00    +0.026 A 
ATOM     13  C   UNL     1      -0.473  -2.641   0.259  0.00  0.00    +0.061 A 
ATOM     14  C   UNL     1      -0.911  -2.029   1.426  0.00  0.00    +0.029 A 
ATOM     15  C   UNL     1      -1.055  -0.656   1.471  0.00  0.00    -0.046 A 
ATOM     16  C   UNL     1      -1.524   0.011   2.738  0.00  0.00    +0.044 C 
ENDBRANCH   1  13
BRANCH   5  17
ATOM     17  C   UNL     1       0.587  -8.504  -0.638  0.00  0.00    +0.129 A 
ATOM     18  C   UNL     1       0.323  -9.723  -1.253  0.00  0.00    +0.050 A 
ATOM     19  C   UNL     1       0.568 -10.713  -0.306  0.00  0.00    +0.050 A 
ATOM     20  C   UNL     1       0.971 -10.076   0.852  0.00  0.00    +0.139 A 
ATOM     21  O   UNL     1       0.982  -8.750   0.631  0.00  0.00    -0.455 OA
BRANCH  20  22
ATOM     22  C   UNL     1       1.334 -10.739   2.116  0.00  0.00    +0.061 A 
ATOM     23  C   UNL     1       2.528 -10.410   2.766  0.00  0.00    +0.048 A 
ATOM     24  C   UNL     1       2.861 -11.034   3.948  0.00  0.00    +0.127 A 
ATOM     25  C   UNL     1       2.019 -11.988   4.496  0.00  0.00    +0.036 A 
ATOM     26  C   UNL     1       0.837 -12.323   3.865  0.00  0.00    +0.048 A 
ATOM     27  C   UNL     1       0.482 -11.701   2.678  0.00  0.00    +0.128 A 
BRANCH  24  28
ATOM     28  N   UNL     1       4.126 -10.685   4.635  0.00  0.00    +0.056 N 
ATOM     29  O   UNL     1       4.863  -9.853   4.159  0.00  0.00    -0.126 OA
ATOM     30  O   UNL     1       4.421 -11.231   5.672  0.00  0.00    -0.126 OA
ENDBRANCH  24  28
BRANCH  27  31
ATOM     31  O   UNL     1      -0.682 -12.025   2.060  0.00  0.00    -0.506 OA
ATOM     32  H   UNL     1      -0.602 -12.753   1.428  0.00  0.00    +0.292 HD
ENDBRANCH  27  31
ENDBRANCH  20  22
ENDBRANCH   5  17
TORSDOF 5
