REMARK  Name = ZINC36005279
REMARK  11 active torsions:
REMARK  status: ('A' for Active; 'I' for Inactive)
REMARK    1  A    between atoms: C_1  and  C_2
REMARK    2  A    between atoms: C_2  and  O_3
REMARK    3  A    between atoms: O_3  and  C_4
REMARK    4  A    between atoms: C_4  and  C_6
REMARK    5  A    between atoms: C_7  and  C_23
REMARK    6  A    between atoms: N_8  and  C_22
REMARK    7  A    between atoms: C_12  and  C_14
REMARK    8  A    between atoms: C_16  and  C_21
REMARK    9  A    between atoms: C_19  and  C_20
REMARK   10  A    between atoms: C_23  and  N_24
REMARK   11  A    between atoms: C_30  and  C_32
REMARK                            x       y       z     vdW  Elec       q    Type
REMARK                         _______ _______ _______ _____ _____    ______ ____
ROOT
ATOM      1  C   UNL     1       1.778  -2.792  -2.215  0.00  0.00    +0.080 C 
ATOM      2  C   UNL     1       1.833  -4.112  -2.496  0.00  0.00    +0.041 C 
ATOM      3  N   UNL     1       2.214  -4.554  -3.731  0.00  0.00    -0.260 N 
ATOM      4  C   UNL     1       2.555  -3.741  -4.738  0.00  0.00    +0.307 C 
ATOM      5  O   UNL     1       2.881  -4.229  -5.803  0.00  0.00    -0.252 OA
ATOM      6  N   UNL     1       2.549  -2.400  -4.610  0.00  0.00    -0.288 N 
ATOM      7  C   UNL     1       2.147  -1.820  -3.318  0.00  0.00    +0.144 C 
ATOM      8  C   UNL     1       2.252  -6.000  -3.966  0.00  0.00    +0.139 C 
ATOM      9  H   UNL     1       2.801  -1.829  -5.354  0.00  0.00    +0.151 HD
ENDROOT
BRANCH   7  10
ATOM     10  C   UNL     1       3.285  -0.966  -2.822  0.00  0.00    -0.019 A 
ATOM     11  C   UNL     1       4.592  -1.349  -3.062  0.00  0.00    +0.009 A 
ATOM     12  C   UNL     1       5.636  -0.565  -2.608  0.00  0.00    -0.050 A 
ATOM     13  C   UNL     1       5.374   0.601  -1.914  0.00  0.00    +0.003 A 
ATOM     14  C   UNL     1       4.067   0.984  -1.675  0.00  0.00    +0.004 A 
ATOM     15  C   UNL     1       3.023   0.203  -2.133  0.00  0.00    -0.045 A 
ATOM     16  C   UNL     1       1.599   0.623  -1.876  0.00  0.00    +0.044 C 
ATOM     17  C   UNL     1       7.060  -0.983  -2.869  0.00  0.00    +0.044 C 
ENDBRANCH   7  10
BRANCH   1  18
ATOM     18  C   UNL     1       1.383  -2.333  -0.937  0.00  0.00    +0.339 C 
ATOM     19  O   UNL     1       0.250  -1.927  -0.759  0.00  0.00    -0.245 OA
BRANCH  18  20
ATOM     20  O   UNL     1       2.264  -2.343   0.086  0.00  0.00    -0.462 OA
BRANCH  20  22
ATOM     21  C   UNL     1       2.876  -2.121   2.413  0.00  0.00    +0.048 C 
ATOM     22  C   UNL     1       1.778  -1.930   1.365  0.00  0.00    +0.229 C 
ENDBRANCH  20  22
ENDBRANCH  18  20
ENDBRANCH   1  18
BRANCH   2  23
ATOM     23  C   UNL     1       1.470  -5.113  -1.430  0.00  0.00    +0.136 C 
BRANCH  23  24
ATOM     24  N   UNL     1       0.255  -5.835  -1.830  0.00  0.00    -0.294 NA
ATOM     25  C   UNL     1      -0.902  -4.932  -1.881  0.00  0.00    +0.104 C 
ATOM     26  C   UNL     1      -2.103  -5.678  -2.474  0.00  0.00    +0.123 C 
ATOM     27  N   UNL     1      -2.312  -6.914  -1.704  0.00  0.00    -0.299 N 
ATOM     28  C   UNL     1      -1.161  -7.805  -1.493  0.00  0.00    +0.123 C 
ATOM     29  C   UNL     1       0.002  -6.975  -0.939  0.00  0.00    +0.104 C 
ATOM     30  C   UNL     1      -3.525  -7.221  -1.206  0.00  0.00    +0.219 C 
ATOM     31  O   UNL     1      -4.463  -6.475  -1.390  0.00  0.00    -0.275 OA
BRANCH  30  32
ATOM     32  C   UNL     1      -3.717  -8.492  -0.419  0.00  0.00    +0.075 C 
ATOM     33  C   UNL     1      -3.432  -9.716  -1.315  0.00  0.00    +0.013 C 
ATOM     34  C   UNL     1      -4.476 -10.768  -0.864  0.00  0.00    +0.001 C 
ATOM     35  C   UNL     1      -5.735  -9.907  -0.596  0.00  0.00    +0.001 C 
ATOM     36  C   UNL     1      -5.181  -8.614   0.038  0.00  0.00    +0.013 C 
ENDBRANCH  30  32
ENDBRANCH  23  24
ENDBRANCH   2  23
TORSDOF 7
