REMARK  Name = ZINC13064912
REMARK  14 active torsions:
REMARK  status: ('A' for Active; 'I' for Inactive)
REMARK    1  A    between atoms: C_1  and  C_2
REMARK    2  A    between atoms: C_2  and  C_3
REMARK    3  A    between atoms: C_3  and  C_5
REMARK    4  A    between atoms: C_3  and  N_71
REMARK    5  A    between atoms: N_9  and  C_10
REMARK    6  A    between atoms: C_10  and  C_11
REMARK    7  A    between atoms: C_11  and  O_13
REMARK    8  A    between atoms: O_13  and  C_14
REMARK    9  A    between atoms: C_14  and  C_15
REMARK   10  A    between atoms: C_16  and  C_17
REMARK   11  A    between atoms: C_16  and  N_71
REMARK   12  A    between atoms: C_20  and  C_30
REMARK   13  A    between atoms: C_22  and  C_29
REMARK   14  A    between atoms: C_31  and  N_71
REMARK                            x       y       z     vdW  Elec       q    Type
REMARK                         _______ _______ _______ _____ _____    ______ ____
ROOT
ATOM      1  N   UNL     1      -1.643   3.153   0.426  0.00  0.00    +0.391 N 
ATOM      2  H   UNL     1      -2.579   2.760   0.576  0.00  0.00    -0.080 HD
ENDROOT
BRANCH   1   3
ATOM      3  C   UNL     1      -1.686   4.607   0.685  0.00  0.00    -0.067 C 
ATOM      4  C   UNL     1      -1.603   4.856   2.192  0.00  0.00    -0.015 C 
ATOM      5  C   UNL     1      -1.675   6.359   2.466  0.00  0.00    -0.002 C 
ATOM      6  C   UNL     1      -2.997   6.912   1.931  0.00  0.00    -0.000 C 
ATOM      7  C   UNL     1      -3.080   6.664   0.423  0.00  0.00    -0.002 C 
ATOM      8  C   UNL     1      -3.008   5.160   0.149  0.00  0.00    -0.015 C 
ENDBRANCH   1   3
BRANCH   1   9
ATOM      9  C   UNL     1      -0.695   2.502   1.355  0.00  0.00    +0.003 C 
BRANCH   9  10
ATOM     10  C   UNL     1      -1.019   1.032   1.424  0.00  0.00    +0.139 A 
ATOM     11  N   UNL     1      -1.243   0.232   0.410  0.00  0.00    -0.115 NA
ATOM     12  N   UNL     1      -1.483  -0.944   0.878  0.00  0.00    -0.023 NA
ATOM     13  N   UNL     1      -1.418  -0.915   2.163  0.00  0.00    -0.043 NA
ATOM     14  N   UNL     1      -1.128   0.285   2.538  0.00  0.00    -0.220 N 
BRANCH  14  15
ATOM     15  C   UNL     1      -0.955   0.748   3.917  0.00  0.00    +0.267 C 
BRANCH  15  16
ATOM     16  C   UNL     1      -2.281   1.216   4.460  0.00  0.00    +0.329 C 
ATOM     17  O   UNL     1      -3.269   1.167   3.767  0.00  0.00    -0.249 OA
BRANCH  16  18
ATOM     18  O   UNL     1      -2.364   1.686   5.715  0.00  0.00    -0.464 OA
BRANCH  18  19
ATOM     19  C   UNL     1      -3.673   2.118   6.171  0.00  0.00    +0.229 C 
ATOM     20  C   UNL     1      -3.570   2.619   7.614  0.00  0.00    +0.048 C 
ENDBRANCH  18  19
ENDBRANCH  16  18
ENDBRANCH  15  16
ENDBRANCH  14  15
ENDBRANCH   9  10
BRANCH   9  22
ATOM     21  C   UNL     1       1.110   4.170   0.902  0.00  0.00    +0.002 C 
ATOM     22  C   UNL     1       0.744   2.685   0.866  0.00  0.00    -0.011 C 
ENDBRANCH   9  22
ENDBRANCH   1   9
BRANCH   1  23
ATOM     23  C   UNL     1      -1.235   2.900  -0.972  0.00  0.00    -0.036 C 
BRANCH  23  24
ATOM     24  C   UNL     1      -2.394   3.220  -1.880  0.00  0.00    +0.001 A 
ATOM     25  C   UNL     1      -2.321   4.282  -2.720  0.00  0.00    +0.017 A 
ATOM     26  C   UNL     1      -3.463   4.562  -3.592  0.00  0.00    +0.002 A 
ATOM     27  C   UNL     1      -3.445   5.640  -4.484  0.00  0.00    -0.041 A 
ATOM     28  C   UNL     1      -4.528   5.878  -5.281  0.00  0.00    +0.007 A 
ATOM     29  C   UNL     1      -5.648   5.060  -5.214  0.00  0.00    -0.048 A 
ATOM     30  C   UNL     1      -5.688   3.993  -4.343  0.00  0.00    +0.029 A 
ATOM     31  C   UNL     1      -4.597   3.731  -3.522  0.00  0.00    +0.050 A 
ATOM     32  N   UNL     1      -4.610   2.670  -2.641  0.00  0.00    -0.322 N 
ATOM     33  H   UNL     1      -5.391   2.098  -2.594  0.00  0.00    +0.169 HD
ATOM     34  C   UNL     1      -3.554   2.417  -1.848  0.00  0.00    +0.251 A 
ATOM     35  O   UNL     1      -3.601   1.470  -1.082  0.00  0.00    -0.268 OA
ATOM     36  C   UNL     1      -6.832   5.342  -6.104  0.00  0.00    +0.044 C 
ATOM     37  C   UNL     1      -2.235   6.535  -4.564  0.00  0.00    +0.044 C 
ENDBRANCH  23  24
ENDBRANCH   1  23
TORSDOF 10
