REMARK  Name = ZINC35188652
REMARK  9 active torsions:
REMARK  status: ('A' for Active; 'I' for Inactive)
REMARK    1  A    between atoms: C_1  and  O_2
REMARK    2  A    between atoms: O_2  and  C_3
REMARK    3  A    between atoms: C_5  and  C_13
REMARK    4  A    between atoms: C_7  and  N_10
REMARK    5  A    between atoms: C_8  and  O_9
REMARK    6  A    between atoms: N_17  and  C_28
REMARK    7  A    between atoms: N_19  and  C_20
REMARK    8  A    between atoms: C_20  and  C_21
REMARK    9  A    between atoms: C_28  and  C_29
REMARK                            x       y       z     vdW  Elec       q    Type
REMARK                         _______ _______ _______ _____ _____    ______ ____
ROOT
ATOM      1  C   UNL     1       2.393   0.342  -4.215  0.00  0.00    +0.028 C 
ATOM      2  C   UNL     1       3.082  -0.262  -5.215  0.00  0.00    +0.078 C 
ATOM      3  C   UNL     1       3.265  -1.700  -5.491  0.00  0.00    +0.259 C 
ATOM      4  O   UNL     1       2.767  -2.552  -4.779  0.00  0.00    -0.269 OA
ATOM      5  N   UNL     1       3.993  -2.021  -6.547  0.00  0.00    -0.242 N 
ATOM      6  C   UNL     1       4.549  -1.038  -7.342  0.00  0.00    +0.164 C 
ATOM      7  N   UNL     1       5.286  -1.178  -8.409  0.00  0.00    -0.258 NA
ATOM      8  S   UNL     1       4.006   0.471  -6.558  0.00  0.00    -0.049 S 
ENDROOT
BRANCH   1  11
ATOM      9  C   UNL     1       0.092  -0.920  -1.535  0.00  0.00    +0.164 A 
ATOM     10  C   UNL     1       0.593  -0.164  -2.576  0.00  0.00    +0.057 A 
ATOM     11  C   UNL     1       1.854  -0.459  -3.107  0.00  0.00    -0.018 A 
ATOM     12  C   UNL     1       2.600  -1.520  -2.580  0.00  0.00    +0.044 A 
ATOM     13  C   UNL     1       2.092  -2.269  -1.542  0.00  0.00    +0.172 A 
ATOM     14  C   UNL     1       0.843  -1.972  -1.012  0.00  0.00    +0.189 A 
BRANCH  13  15
ATOM     15  N   UNL     1       2.881  -3.392  -0.986  0.00  0.00    +0.060 N 
ATOM     16  O   UNL     1       3.970  -3.649  -1.443  0.00  0.00    -0.126 OA
ATOM     17  O   UNL     1       2.437  -4.050  -0.075  0.00  0.00    -0.126 OA
ENDBRANCH  13  15
BRANCH   9  19
ATOM     18  C   UNL     1      -1.848   0.454  -1.601  0.00  0.00    +0.277 C 
ATOM     19  O   UNL     1      -1.133  -0.636  -1.016  0.00  0.00    -0.491 OA
ENDBRANCH   9  19
BRANCH  14  20
ATOM     20  O   UNL     1       0.350  -2.711   0.015  0.00  0.00    -0.502 OA
ATOM     21  H   UNL     1      -0.166  -3.479  -0.265  0.00  0.00    +0.292 HD
ENDBRANCH  14  20
ENDBRANCH   1  11
BRANCH   7  22
ATOM     22  C   UNL     1       5.783   0.004  -9.116  0.00  0.00    +0.179 C 
BRANCH  22  23
ATOM     23  C   UNL     1       7.287   0.049  -9.026  0.00  0.00    -0.026 A 
ATOM     24  C   UNL     1       7.897   0.702  -7.972  0.00  0.00    +0.005 A 
ATOM     25  C   UNL     1       9.276   0.742  -7.889  0.00  0.00    +0.000 A 
ATOM     26  C   UNL     1      10.045   0.129  -8.861  0.00  0.00    +0.000 A 
ATOM     27  C   UNL     1       9.435  -0.524  -9.915  0.00  0.00    +0.000 A 
ATOM     28  C   UNL     1       8.055  -0.569  -9.995  0.00  0.00    +0.005 A 
ENDBRANCH  22  23
ENDBRANCH   7  22
BRANCH   5  29
ATOM     29  C   UNL     1       4.213  -3.431  -6.877  0.00  0.00    +0.151 C 
BRANCH  29  30
ATOM     30  C   UNL     1       3.120  -3.908  -7.798  0.00  0.00    -0.030 A 
ATOM     31  C   UNL     1       1.959  -4.445  -7.274  0.00  0.00    +0.005 A 
ATOM     32  C   UNL     1       0.956  -4.882  -8.119  0.00  0.00    +0.000 A 
ATOM     33  C   UNL     1       1.114  -4.782  -9.489  0.00  0.00    +0.000 A 
ATOM     34  C   UNL     1       2.275  -4.244 -10.013  0.00  0.00    +0.000 A 
ATOM     35  C   UNL     1       3.276  -3.803  -9.168  0.00  0.00    +0.005 A 
ENDBRANCH  29  30
ENDBRANCH   5  29
TORSDOF 8
