REMARK  Name = ZINC40758766
REMARK  9 active torsions:
REMARK  status: ('A' for Active; 'I' for Inactive)
REMARK    1  A    between atoms: C_1  and  C_2
REMARK    2  A    between atoms: C_9  and  N_12
REMARK    3  A    between atoms: C_14  and  N_31
REMARK    4  A    between atoms: C_15  and  N_19
REMARK    5  A    between atoms: N_19  and  C_20
REMARK    6  A    between atoms: N_19  and  C_21
REMARK    7  A    between atoms: C_26  and  C_27
REMARK    8  A    between atoms: C_27  and  O_29
REMARK    9  A    between atoms: O_29  and  C_30
REMARK                            x       y       z     vdW  Elec       q    Type
REMARK                         _______ _______ _______ _____ _____    ______ ____
ROOT
ATOM      1  N   UNL     1       0.008  -1.946   3.628  0.00  0.00    -0.298 N 
ATOM      2  C   UNL     1      -0.063  -2.634   4.834  0.00  0.00    +0.126 A 
ATOM      3  C   UNL     1      -0.179  -1.941   6.041  0.00  0.00    +0.104 A 
ATOM      4  C   UNL     1      -0.246  -2.681   7.222  0.00  0.00    +0.151 A 
ATOM      5  N   UNL     1      -0.199  -4.010   7.154  0.00  0.00    -0.220 NA
ATOM      6  C   UNL     1      -0.090  -4.625   5.994  0.00  0.00    +0.200 A 
ATOM      7  N   UNL     1      -0.028  -3.964   4.856  0.00  0.00    -0.333 N 
ATOM      8  H   UNL     1       0.068  -0.978   3.625  0.00  0.00    +0.154 HD
ATOM      9  H   UNL     1       0.047  -4.455   4.022  0.00  0.00    +0.168 HD
ENDROOT
BRANCH   1  18
ATOM     10  C   UNL     1      -4.539  -4.016   3.327  0.00  0.00    +0.065 C 
ATOM     11  C   UNL     1      -3.330  -4.032   2.427  0.00  0.00    +0.039 A 
ATOM     12  C   UNL     1      -3.384  -4.745   1.232  0.00  0.00    +0.023 A 
ATOM     13  C   UNL     1      -2.298  -4.770   0.404  0.00  0.00    +0.012 A 
ATOM     14  C   UNL     1      -1.146  -4.062   0.798  0.00  0.00    +0.002 A 
ATOM     15  C   UNL     1       0.007  -4.043  -0.003  0.00  0.00    +0.010 A 
ATOM     16  C   UNL     1       1.106  -3.349   0.404  0.00  0.00    +0.003 A 
ATOM     17  C   UNL     1       1.106  -2.652   1.609  0.00  0.00    +0.025 A 
ATOM     18  C   UNL     1      -0.006  -2.647   2.423  0.00  0.00    +0.059 A 
ATOM     19  C   UNL     1      -1.160  -3.358   2.026  0.00  0.00    +0.092 A 
ATOM     20  N   UNL     1      -2.258  -3.369   2.787  0.00  0.00    -0.250 NA
ENDBRANCH   1  18
BRANCH   3  21
ATOM     21  N   UNL     1      -0.225  -0.538   6.065  0.00  0.00    -0.353 N 
ATOM     22  H   UNL     1      -0.248  -0.040   5.234  0.00  0.00    +0.143 HD
ATOM     23  H   UNL     1      -0.233  -0.068   6.913  0.00  0.00    +0.143 HD
ENDBRANCH   3  21
BRANCH   4  24
ATOM     24  N   UNL     1      -0.361  -2.041   8.451  0.00  0.00    -0.286 N 
ATOM     25  C   UNL     1      -1.679  -1.630   8.943  0.00  0.00    +0.137 C 
BRANCH  24  26
ATOM     26  C   UNL     1       0.773  -1.791   9.213  0.00  0.00    +0.049 A 
ATOM     27  C   UNL     1       1.470  -0.599   9.058  0.00  0.00    +0.024 A 
ATOM     28  C   UNL     1       2.597  -0.353   9.816  0.00  0.00    +0.002 A 
ATOM     29  C   UNL     1       3.042  -1.290  10.736  0.00  0.00    +0.001 A 
ATOM     30  C   UNL     1       2.365  -2.477  10.904  0.00  0.00    +0.017 A 
ATOM     31  C   UNL     1       1.219  -2.739  10.148  0.00  0.00    +0.080 A 
BRANCH  31  32
ATOM     32  C   UNL     1       0.486  -4.005  10.327  0.00  0.00    +0.341 C 
ATOM     33  O   UNL     1      -0.507  -4.231   9.664  0.00  0.00    -0.245 OA
BRANCH  32  34
ATOM     34  O   UNL     1       0.917  -4.912  11.226  0.00  0.00    -0.464 OA
ATOM     35  C   UNL     1       0.159  -6.117  11.346  0.00  0.00    +0.280 C 
ENDBRANCH  32  34
ENDBRANCH  31  32
ENDBRANCH  24  26
ENDBRANCH   4  24
TORSDOF 6
