REMARK  Name = ZINC39325392
REMARK  11 active torsions:
REMARK  status: ('A' for Active; 'I' for Inactive)
REMARK    1  A    between atoms: C_1  and  C_2
REMARK    2  A    between atoms: C_2  and  O_3
REMARK    3  A    between atoms: O_3  and  C_4
REMARK    4  A    between atoms: C_11  and  C_16
REMARK    5  A    between atoms: C_16  and  N_17
REMARK    6  A    between atoms: N_17  and  C_18
REMARK    7  A    between atoms: N_17  and  S_27
REMARK    8  A    between atoms: C_18  and  C_19
REMARK    9  A    between atoms: C_19  and  C_20
REMARK   10  A    between atoms: C_25  and  C_26
REMARK   11  A    between atoms: S_27  and  C_30
REMARK                            x       y       z     vdW  Elec       q    Type
REMARK                         _______ _______ _______ _____ _____    ______ ____
ROOT
ATOM      1  N   UNL     1       1.865  -7.756   5.173  0.00  0.00    -0.175 NA
ENDROOT
BRANCH   1   2
ATOM      2  S   UNL     1       0.759  -8.810   4.534  0.00  0.00    +0.061 S 
ATOM      3  O   UNL     1       0.694  -9.919   5.420  0.00  0.00    -0.153 OA
ATOM      4  O   UNL     1      -0.386  -8.040   4.193  0.00  0.00    -0.153 OA
BRANCH   2   5
ATOM      5  C   UNL     1       1.429  -9.413   3.020  0.00  0.00    +0.106 A 
ATOM      6  C   UNL     1       1.063  -8.829   1.821  0.00  0.00    +0.031 A 
ATOM      7  C   UNL     1       1.588  -9.302   0.633  0.00  0.00    +0.040 A 
ATOM      8  C   UNL     1       2.482 -10.359   0.644  0.00  0.00    +0.124 A 
ATOM      9  C   UNL     1       2.847 -10.943   1.845  0.00  0.00    +0.040 A 
ATOM     10  C   UNL     1       2.325 -10.466   3.032  0.00  0.00    +0.031 A 
ATOM     11  F   UNL     1       2.995 -10.822  -0.516  0.00  0.00    -0.205 F 
ENDBRANCH   2   5
ENDBRANCH   1   2
BRANCH   1  12
ATOM     12  C   UNL     1       1.717  -6.316   4.953  0.00  0.00    +0.126 C 
BRANCH  12  20
ATOM     13  C   UNL     1       2.745  -1.702   1.526  0.00  0.00    +0.121 A 
ATOM     14  C   UNL     1       2.847  -2.512   0.388  0.00  0.00    +0.047 A 
ATOM     15  C   UNL     1       2.943  -3.864   0.459  0.00  0.00    +0.027 A 
ATOM     16  C   UNL     1       2.945  -4.517   1.706  0.00  0.00    +0.041 A 
ATOM     17  N   UNL     1       3.041  -5.846   1.760  0.00  0.00    -0.284 N 
ATOM     18  C   UNL     1       3.049  -6.523   2.896  0.00  0.00    +0.225 C 
ATOM     19  O   UNL     1       3.139  -7.737   2.883  0.00  0.00    -0.275 OA
ATOM     20  C   UNL     1       2.945  -5.784   4.211  0.00  0.00    +0.114 C 
ATOM     21  C   UNL     1       2.836  -4.273   4.155  0.00  0.00    -0.003 C 
ATOM     22  C   UNL     1       2.840  -3.692   2.922  0.00  0.00    -0.004 A 
ATOM     23  C   UNL     1       2.744  -2.239   2.778  0.00  0.00    +0.055 A 
ATOM     24  H   UNL     1       3.108  -6.339   0.928  0.00  0.00    +0.155 HD
BRANCH  13  25
ATOM     25  O   UNL     1       2.652  -0.354   1.379  0.00  0.00    -0.492 OA
BRANCH  25  27
ATOM     26  C   UNL     1       2.545   1.680   0.078  0.00  0.00    +0.048 C 
ATOM     27  C   UNL     1       2.657   0.155   0.043  0.00  0.00    +0.225 C 
ENDBRANCH  25  27
ENDBRANCH  13  25
ENDBRANCH  12  20
ENDBRANCH   1  12
BRANCH   1  28
ATOM     28  C   UNL     1       2.991  -8.265   5.960  0.00  0.00    +0.114 C 
BRANCH  28  29
ATOM     29  C   UNL     1       2.635  -8.222   7.447  0.00  0.00    +0.052 C 
BRANCH  29  30
ATOM     30  C   UNL     1       3.794  -8.746   8.257  0.00  0.00    -0.043 A 
ATOM     31  C   UNL     1       3.828 -10.075   8.636  0.00  0.00    +0.004 A 
ATOM     32  C   UNL     1       4.890 -10.555   9.378  0.00  0.00    +0.000 A 
ATOM     33  C   UNL     1       5.920  -9.706   9.741  0.00  0.00    +0.000 A 
ATOM     34  C   UNL     1       5.886  -8.377   9.361  0.00  0.00    +0.003 A 
ATOM     35  C   UNL     1       4.825  -7.898   8.615  0.00  0.00    -0.047 A 
ATOM     36  C   UNL     1       4.791  -6.451   8.197  0.00  0.00    +0.044 C 
ENDBRANCH  29  30
ENDBRANCH  28  29
ENDBRANCH   1  28
TORSDOF 9
