REMARK  Name = ZINC36309455
REMARK  13 active torsions:
REMARK  status: ('A' for Active; 'I' for Inactive)
REMARK    1  A    between atoms: C_1  and  C_2
REMARK    2  A    between atoms: C_6  and  O_8
REMARK    3  A    between atoms: O_8  and  C_9
REMARK    4  A    between atoms: C_9  and  C_10
REMARK    5  A    between atoms: C_20  and  C_22
REMARK    6  A    between atoms: C_22  and  N_23
REMARK    7  A    between atoms: N_23  and  C_24
REMARK    8  A    between atoms: N_23  and  C_34
REMARK    9  A    between atoms: C_24  and  C_25
REMARK   10  A    between atoms: C_25  and  C_27
REMARK   11  A    between atoms: C_25  and  O_33
REMARK   12  A    between atoms: C_34  and  C_35
REMARK   13  A    between atoms: C_34  and  C_36
REMARK                            x       y       z     vdW  Elec       q    Type
REMARK                         _______ _______ _______ _____ _____    ______ ____
ROOT
ATOM      1  C   UNL     1       1.733  -4.153   1.631  0.00  0.00    +0.144 C 
ATOM      2  C   UNL     1       0.249  -3.838   1.815  0.00  0.00    -0.014 A 
ATOM      3  C   UNL     1      -0.715  -4.115   0.848  0.00  0.00    +0.013 A 
ATOM      4  C   UNL     1      -2.012  -3.805   1.077  0.00  0.00    +0.046 A 
ATOM      5  S   UNL     1      -1.935  -3.089   2.712  0.00  0.00    -0.101 S 
ATOM      6  C   UNL     1      -0.188  -3.259   2.966  0.00  0.00    -0.004 A 
ATOM      7  C   UNL     1       0.618  -2.866   4.160  0.00  0.00    +0.061 C 
ATOM      8  C   UNL     1       2.103  -2.836   3.764  0.00  0.00    +0.113 C 
ATOM      9  N   UNL     1       2.386  -4.022   2.941  0.00  0.00    -0.292 N 
ATOM     10  C   UNL     1       3.231  -4.975   3.382  0.00  0.00    +0.200 C 
ATOM     11  O   UNL     1       3.456  -5.950   2.696  0.00  0.00    -0.278 OA
ENDROOT
BRANCH   1  12
ATOM     12  C   UNL     1       2.353  -3.164   0.642  0.00  0.00    +0.256 C 
BRANCH  12  13
ATOM     13  O   UNL     1       2.093  -1.828   1.076  0.00  0.00    -0.490 OA
BRANCH  13  19
ATOM     14  C   UNL     1       2.624   2.956   0.270  0.00  0.00    +0.044 C 
ATOM     15  C   UNL     1       2.859   1.520  -0.122  0.00  0.00    -0.047 A 
ATOM     16  C   UNL     1       3.570   1.226  -1.272  0.00  0.00    +0.003 A 
ATOM     17  C   UNL     1       3.787  -0.090  -1.635  0.00  0.00    +0.004 A 
ATOM     18  C   UNL     1       3.293  -1.115  -0.850  0.00  0.00    +0.045 A 
ATOM     19  C   UNL     1       2.580  -0.822   0.303  0.00  0.00    +0.121 A 
ATOM     20  C   UNL     1       2.369   0.499   0.668  0.00  0.00    +0.049 A 
ENDBRANCH  13  19
ENDBRANCH  12  13
ENDBRANCH   1  12
BRANCH  10  21
ATOM     21  C   UNL     1       3.895  -4.830   4.726  0.00  0.00    +0.019 C 
BRANCH  21  22
ATOM     22  N   UNL     1       4.619  -6.066   5.051  0.00  0.00    +0.389 N 
ATOM     23  H   UNL     1       4.997  -6.466   4.205  0.00  0.00    -0.081 HD
BRANCH  22  24
ATOM     24  C   UNL     1       3.696  -7.024   5.675  0.00  0.00    -0.074 C 
ATOM     25  C   UNL     1       3.099  -6.406   6.941  0.00  0.00    -0.014 C 
ATOM     26  C   UNL     1       2.573  -7.364   4.694  0.00  0.00    -0.014 C 
ENDBRANCH  22  24
BRANCH  22  27
ATOM     27  C   UNL     1       5.714  -5.763   5.982  0.00  0.00    -0.041 C 
BRANCH  27  28
ATOM     28  C   UNL     1       6.564  -7.017   6.196  0.00  0.00    +0.128 C 
BRANCH  28  29
ATOM     29  C   UNL     1       7.808  -6.655   6.965  0.00  0.00    -0.021 A 
ATOM     30  C   UNL     1       7.777  -6.608   8.347  0.00  0.00    +0.006 A 
ATOM     31  C   UNL     1       8.919  -6.276   9.052  0.00  0.00    +0.000 A 
ATOM     32  C   UNL     1      10.091  -5.992   8.377  0.00  0.00    +0.000 A 
ATOM     33  C   UNL     1      10.122  -6.041   6.995  0.00  0.00    +0.000 A 
ATOM     34  C   UNL     1       8.981  -6.377   6.290  0.00  0.00    +0.006 A 
ENDBRANCH  28  29
BRANCH  28  35
ATOM     35  O   UNL     1       5.811  -7.982   6.934  0.00  0.00    -0.389 OA
ATOM     36  H   UNL     1       5.471  -7.654   7.778  0.00  0.00    +0.210 HD
ENDBRANCH  28  35
ENDBRANCH  27  28
ENDBRANCH  22  27
ENDBRANCH  21  22
ENDBRANCH  10  21
TORSDOF 10
