REMARK  Name = ZINC09137519
REMARK  8 active torsions:
REMARK  status: ('A' for Active; 'I' for Inactive)
REMARK    1  A    between atoms: C_1  and  C_2
REMARK    2  A    between atoms: C_4  and  C_11
REMARK    3  A    between atoms: C_7  and  N_8
REMARK    4  A    between atoms: N_13  and  C_14
REMARK    5  A    between atoms: C_14  and  C_15
REMARK    6  A    between atoms: C_15  and  C_17
REMARK    7  A    between atoms: C_15  and  N_64
REMARK    8  A    between atoms: N_26  and  C_27
REMARK                            x       y       z     vdW  Elec       q    Type
REMARK                         _______ _______ _______ _____ _____    ______ ____
ROOT
ATOM      1  C   UNL     1      -5.907   3.522   0.919  0.00  0.00    -0.020 C 
ENDROOT
BRANCH   1   2
ATOM      2  C   UNL     1      -7.050   4.363   1.427  0.00  0.00    -0.059 A 
ATOM      3  C   UNL     1      -7.068   4.786   2.743  0.00  0.00    +0.004 A 
ATOM      4  C   UNL     1      -8.115   5.553   3.205  0.00  0.00    +0.023 A 
ATOM      5  C   UNL     1      -9.162   5.908   2.352  0.00  0.00    +0.033 A 
ATOM      6  C   UNL     1      -9.136   5.487   1.034  0.00  0.00    -0.026 A 
ATOM      7  C   UNL     1      -8.078   4.718   0.576  0.00  0.00    +0.007 A 
ATOM      8  C   UNL     1     -10.229   5.845   0.059  0.00  0.00    +0.038 C 
ATOM      9  C   UNL     1     -11.457   6.346   0.824  0.00  0.00    +0.024 C 
ATOM     10  C   UNL     1     -10.982   7.370   1.861  0.00  0.00    +0.105 C 
ATOM     11  N   UNL     1     -10.199   6.673   2.884  0.00  0.00    -0.333 N 
ATOM     12  C   UNL     1      -9.695   7.614   3.893  0.00  0.00    +0.129 C 
ENDBRANCH   1   2
BRANCH   1  18
ATOM     13  C   UNL     1      -7.329   1.716   1.678  0.00  0.00    -0.078 C 
ATOM     14  C   UNL     1      -7.324   0.283   2.216  0.00  0.00    -0.019 C 
ATOM     15  C   UNL     1      -6.638   0.259   3.585  0.00  0.00    -0.004 C 
ATOM     16  C   UNL     1      -5.218   0.815   3.445  0.00  0.00    -0.019 C 
ATOM     17  C   UNL     1      -5.285   2.232   2.872  0.00  0.00    -0.078 C 
ATOM     18  N   UNL     1      -5.933   2.183   1.544  0.00  0.00    +0.385 N 
ATOM     19  H   UNL     1      -5.418   1.526   0.946  0.00  0.00    -0.081 HD
ENDBRANCH   1  18
BRANCH   1  20
ATOM     20  C   UNL     1      -4.581   4.209   1.251  0.00  0.00    +0.094 C 
BRANCH  20  23
ATOM     21  C   UNL     1      -2.201   3.802   0.926  0.00  0.00    +0.244 C 
ATOM     22  O   UNL     1      -1.970   4.769   1.625  0.00  0.00    -0.270 OA
ATOM     23  N   UNL     1      -3.475   3.438   0.678  0.00  0.00    -0.313 N 
ATOM     24  H   UNL     1      -3.659   2.667   0.120  0.00  0.00    +0.149 HD
BRANCH  21  28
ATOM     25  C   UNL     1       2.700   3.070   0.334  0.00  0.00    +0.046 C 
ATOM     26  C   UNL     1       1.273   2.668   0.060  0.00  0.00    -0.020 A 
ATOM     27  C   UNL     1       0.236   3.398   0.603  0.00  0.00    +0.018 A 
ATOM     28  C   UNL     1      -1.084   3.024   0.348  0.00  0.00    +0.037 A 
ATOM     29  C   UNL     1      -1.346   1.917  -0.460  0.00  0.00    +0.015 A 
ATOM     30  C   UNL     1      -0.300   1.192  -0.992  0.00  0.00    +0.034 A 
ATOM     31  C   UNL     1       1.007   1.568  -0.736  0.00  0.00    +0.129 A 
BRANCH  31  32
ATOM     32  N   UNL     1       2.125   0.790  -1.315  0.00  0.00    +0.057 N 
ATOM     33  O   UNL     1       3.130   1.361  -1.698  0.00  0.00    -0.126 OA
ATOM     34  O   UNL     1       2.039  -0.421  -1.410  0.00  0.00    -0.126 OA
ENDBRANCH  31  32
ENDBRANCH  21  28
ENDBRANCH  20  23
ENDBRANCH   1  20
TORSDOF 6
