REMARK  Name = ZINC12717470
REMARK  9 active torsions:
REMARK  status: ('A' for Active; 'I' for Inactive)
REMARK    1  A    between atoms: C_1  and  C_2
REMARK    2  A    between atoms: C_2  and  C_3
REMARK    3  A    between atoms: C_10  and  C_15
REMARK    4  A    between atoms: C_15  and  N_63
REMARK    5  A    between atoms: C_16  and  C_17
REMARK    6  A    between atoms: C_16  and  N_63
REMARK    7  A    between atoms: N_21  and  C_22
REMARK    8  A    between atoms: C_22  and  C_23
REMARK    9  A    between atoms: C_29  and  N_63
REMARK                            x       y       z     vdW  Elec       q    Type
REMARK                         _______ _______ _______ _____ _____    ______ ____
ROOT
ATOM      1  N   UNL     1      -0.851   1.424  -1.053  0.00  0.00    +0.389 N 
ATOM      2  H   UNL     1      -1.692   0.975  -0.671  0.00  0.00    -0.080 HD
ENDROOT
BRANCH   1   3
ATOM      3  C   UNL     1      -1.038   2.890  -1.026  0.00  0.00    -0.068 C 
ATOM      4  C   UNL     1      -2.446   3.235  -1.551  0.00  0.00    -0.015 C 
ATOM      5  C   UNL     1      -2.246   4.553  -2.340  0.00  0.00    -0.002 C 
ATOM      6  C   UNL     1      -0.871   4.338  -3.021  0.00  0.00    -0.002 C 
ATOM      7  C   UNL     1      -0.036   3.592  -1.960  0.00  0.00    -0.015 C 
ENDBRANCH   1   3
BRANCH   1   8
ATOM      8  C   UNL     1       0.313   1.048  -0.224  0.00  0.00    -0.037 C 
BRANCH   8  16
ATOM      9  C   UNL     1      -1.618   0.230   5.598  0.00  0.00    -0.047 A 
ATOM     10  C   UNL     1      -1.317   1.510   6.043  0.00  0.00    +0.005 A 
ATOM     11  C   UNL     1      -0.764   2.440   5.189  0.00  0.00    +0.026 A 
ATOM     12  C   UNL     1      -0.503   2.094   3.867  0.00  0.00    +0.049 A 
ATOM     13  C   UNL     1      -0.810   0.795   3.420  0.00  0.00    -0.001 A 
ATOM     14  C   UNL     1      -1.371  -0.132   4.304  0.00  0.00    +0.013 A 
ATOM     15  C   UNL     1      -0.531   0.440   2.027  0.00  0.00    +0.017 A 
ATOM     16  C   UNL     1       0.014   1.380   1.216  0.00  0.00    +0.001 A 
ATOM     17  C   UNL     1       0.308   2.667   1.716  0.00  0.00    +0.251 A 
ATOM     18  O   UNL     1       0.802   3.495   0.971  0.00  0.00    -0.268 OA
ATOM     19  N   UNL     1       0.051   3.003   2.992  0.00  0.00    -0.322 N 
ATOM     20  H   UNL     1       0.261   3.898   3.302  0.00  0.00    +0.169 HD
BRANCH   9  22
ATOM     21  C   UNL     1      -1.107  -1.548   7.249  0.00  0.00    +0.009 C 
ATOM     22  C   UNL     1      -2.223  -0.769   6.551  0.00  0.00    +0.032 C 
ENDBRANCH   9  22
ENDBRANCH   8  16
ENDBRANCH   1   8
BRANCH   1  23
ATOM     23  C   UNL     1      -0.651   0.966  -2.443  0.00  0.00    +0.001 C 
BRANCH  23  24
ATOM     24  C   UNL     1      -1.959   1.076  -3.184  0.00  0.00    +0.135 A 
ATOM     25  N   UNL     1      -2.337   2.060  -3.963  0.00  0.00    -0.115 NA
ATOM     26  N   UNL     1      -3.514   1.785  -4.408  0.00  0.00    -0.023 NA
ATOM     27  N   UNL     1      -3.897   0.651  -3.933  0.00  0.00    -0.044 NA
ATOM     28  N   UNL     1      -2.963   0.180  -3.178  0.00  0.00    -0.227 N 
BRANCH  28  29
ATOM     29  C   UNL     1      -2.991  -1.090  -2.448  0.00  0.00    +0.182 C 
BRANCH  29  30
ATOM     30  C   UNL     1      -3.580  -0.870  -1.078  0.00  0.00    -0.026 A 
ATOM     31  C   UNL     1      -2.756  -0.549  -0.015  0.00  0.00    +0.005 A 
ATOM     32  C   UNL     1      -3.297  -0.342   1.240  0.00  0.00    +0.000 A 
ATOM     33  C   UNL     1      -4.660  -0.466   1.434  0.00  0.00    +0.000 A 
ATOM     34  C   UNL     1      -5.483  -0.791   0.373  0.00  0.00    +0.000 A 
ATOM     35  C   UNL     1      -4.943  -0.993  -0.884  0.00  0.00    +0.005 A 
ENDBRANCH  29  30
ENDBRANCH  28  29
ENDBRANCH  23  24
ENDBRANCH   1  23
TORSDOF 8
