REMARK  Name = ZINC21539771
REMARK  6 active torsions:
REMARK  status: ('A' for Active; 'I' for Inactive)
REMARK    1  A    between atoms: C_1  and  C_2
REMARK    2  A    between atoms: C_2  and  O_3
REMARK    3  A    between atoms: O_3  and  C_4
REMARK    4  A    between atoms: C_8  and  C_10
REMARK    5  A    between atoms: N_30  and  C_31
REMARK    6  A    between atoms: C_31  and  C_32
REMARK                            x       y       z     vdW  Elec       q    Type
REMARK                         _______ _______ _______ _____ _____    ______ ____
ROOT
ATOM      1  C   UNL     1       0.083  -3.733   3.191  0.00  0.00    +0.155 C 
ATOM      2  C   UNL     1       0.944  -3.853   4.413  0.00  0.00    +0.049 A 
ATOM      3  C   UNL     1       2.144  -4.434   4.558  0.00  0.00    +0.025 A 
ATOM      4  C   UNL     1       2.506  -4.325   5.918  0.00  0.00    +0.020 A 
ATOM      5  C   UNL     1       1.513  -3.662   6.552  0.00  0.00    +0.092 A 
ATOM      6  N   UNL     1       0.570  -3.343   5.635  0.00  0.00    -0.312 N 
ATOM      7  C   UNL     1      -0.597  -2.595   5.738  0.00  0.00    +0.090 A 
ATOM      8  C   UNL     1      -0.962  -1.629   4.854  0.00  0.00    +0.005 A 
ATOM      9  C   UNL     1      -2.196  -0.987   5.088  0.00  0.00    -0.030 A 
ATOM     10  C   UNL     1      -2.901  -1.357   6.189  0.00  0.00    -0.005 A 
ATOM     11  S   UNL     1      -1.900  -2.622   6.930  0.00  0.00    -0.075 S 
ATOM     12  C   UNL     1      -4.215  -0.819   6.655  0.00  0.00    +0.043 C 
ATOM     13  C   UNL     1      -4.498   0.486   5.894  0.00  0.00    +0.005 C 
ATOM     14  C   UNL     1      -4.238   0.251   4.404  0.00  0.00    +0.005 C 
ATOM     15  C   UNL     1      -2.738   0.090   4.153  0.00  0.00    +0.036 C 
ATOM     16  C   UNL     1      -0.047  -1.270   3.700  0.00  0.00    +0.148 C 
ATOM     17  N   UNL     1       0.031  -2.339   2.688  0.00  0.00    -0.269 N 
ATOM     18  C   UNL     1       0.058  -2.063   1.369  0.00  0.00    +0.304 C 
ATOM     19  O   UNL     1       0.128  -2.968   0.560  0.00  0.00    -0.253 OA
ATOM     20  N   UNL     1       0.009  -0.784   0.948  0.00  0.00    -0.295 N 
ATOM     21  H   UNL     1      -0.054   0.035   1.680  0.00  0.00    +0.151 HD
ENDROOT
BRANCH   1  26
ATOM     22  C   UNL     1      -2.791  -5.653   4.718  0.00  0.00    +0.121 A 
ATOM     23  C   UNL     1      -3.882  -5.013   4.148  0.00  0.00    +0.045 A 
ATOM     24  C   UNL     1      -3.686  -3.963   3.273  0.00  0.00    +0.004 A 
ATOM     25  C   UNL     1      -2.403  -3.549   2.964  0.00  0.00    +0.006 A 
ATOM     26  C   UNL     1      -1.314  -4.186   3.530  0.00  0.00    -0.018 A 
ATOM     27  C   UNL     1      -1.505  -5.240   4.403  0.00  0.00    +0.051 A 
BRANCH  22  28
ATOM     28  O   UNL     1      -2.982  -6.687   5.579  0.00  0.00    -0.492 OA
BRANCH  28  30
ATOM     29  C   UNL     1      -4.348  -8.235   6.835  0.00  0.00    +0.048 C 
ATOM     30  C   UNL     1      -4.334  -7.063   5.852  0.00  0.00    +0.225 C 
ENDBRANCH  28  30
ENDBRANCH  22  28
ENDBRANCH   1  26
BRANCH  20  31
ATOM     31  C   UNL     1       0.039  -0.483  -0.486  0.00  0.00    +0.141 C 
BRANCH  31  32
ATOM     32  C   UNL     1      -0.028   1.008  -0.688  0.00  0.00    -0.030 A 
ATOM     33  C   UNL     1      -1.253   1.633  -0.824  0.00  0.00    +0.005 A 
ATOM     34  C   UNL     1      -1.315   3.003  -1.004  0.00  0.00    +0.000 A 
ATOM     35  C   UNL     1      -0.150   3.745  -1.059  0.00  0.00    +0.000 A 
ATOM     36  C   UNL     1       1.075   3.120  -0.929  0.00  0.00    +0.000 A 
ATOM     37  C   UNL     1       1.137   1.751  -0.743  0.00  0.00    +0.005 A 
ENDBRANCH  31  32
ENDBRANCH  20  31
TORSDOF 5
