REMARK  Name = ZINC12450913
REMARK  10 active torsions:
REMARK  status: ('A' for Active; 'I' for Inactive)
REMARK    1  A    between atoms: C_1  and  S_2
REMARK    2  A    between atoms: S_2  and  C_3
REMARK    3  A    between atoms: C_6  and  C_9
REMARK    4  A    between atoms: C_9  and  N_68
REMARK    5  A    between atoms: C_12  and  C_15
REMARK    6  A    between atoms: C_18  and  S_27
REMARK    7  A    between atoms: N_19  and  C_20
REMARK    8  A    between atoms: C_20  and  C_21
REMARK    9  A    between atoms: S_27  and  C_28
REMARK   10  A    between atoms: C_28  and  C_29
REMARK                            x       y       z     vdW  Elec       q    Type
REMARK                         _______ _______ _______ _____ _____    ______ ____
ROOT
ATOM      1  C   UNL     1      -2.018   3.559  -4.712  0.00  0.00    +0.137 A 
ATOM      2  N   UNL     1      -3.173   3.037  -5.015  0.00  0.00    -0.133 NA
ATOM      3  N   UNL     1      -3.639   3.585  -6.080  0.00  0.00    -0.122 NA
ATOM      4  C   UNL     1      -2.800   4.494  -6.518  0.00  0.00    +0.192 A 
ATOM      5  N   UNL     1      -1.741   4.510  -5.656  0.00  0.00    -0.301 N 
ENDROOT
BRANCH   1   8
ATOM      6  C   UNL     1      -1.059   2.996  -1.049  0.00  0.00    -0.078 C 
ATOM      7  C   UNL     1      -1.922   3.431  -2.236  0.00  0.00    -0.008 C 
ATOM      8  C   UNL     1      -1.151   3.189  -3.537  0.00  0.00    +0.054 C 
ATOM      9  C   UNL     1      -0.771   1.708  -3.627  0.00  0.00    -0.008 C 
ATOM     10  C   UNL     1       0.058   1.323  -2.400  0.00  0.00    -0.078 C 
ATOM     11  N   UNL     1      -0.749   1.556  -1.184  0.00  0.00    +0.382 N 
ATOM     12  H   UNL     1      -1.628   1.032  -1.261  0.00  0.00    -0.081 HD
BRANCH  11  13
ATOM     13  C   UNL     1      -0.013   1.086   0.008  0.00  0.00    -0.043 C 
BRANCH  13  17
ATOM     14  C   UNL     1      -2.013   2.464   3.525  0.00  0.00    +0.008 A 
ATOM     15  C   UNL     1      -2.368   1.248   2.953  0.00  0.00    +0.015 A 
ATOM     16  C   UNL     1      -1.720   0.806   1.817  0.00  0.00    +0.003 A 
ATOM     17  C   UNL     1      -0.718   1.572   1.248  0.00  0.00    -0.064 A 
ATOM     18  C   UNL     1      -0.358   2.780   1.817  0.00  0.00    +0.003 A 
ATOM     19  C   UNL     1      -1.006   3.230   2.951  0.00  0.00    +0.015 A 
BRANCH  14  21
ATOM     20  C   UNL     1      -2.046   4.625   5.334  0.00  0.00    +0.090 C 
ATOM     21  S   UNL     1      -2.838   3.033   4.974  0.00  0.00    -0.129 S 
ENDBRANCH  14  21
ENDBRANCH  13  17
ENDBRANCH  11  13
ENDBRANCH   1   8
BRANCH   5  22
ATOM     22  C   UNL     1      -0.554   5.365  -5.728  0.00  0.00    +0.160 C 
BRANCH  22  23
ATOM     23  C   UNL     1       0.510   4.679  -6.546  0.00  0.00    -0.028 A 
ATOM     24  C   UNL     1       1.432   3.855  -5.929  0.00  0.00    +0.005 A 
ATOM     25  C   UNL     1       2.405   3.222  -6.681  0.00  0.00    +0.000 A 
ATOM     26  C   UNL     1       2.462   3.422  -8.047  0.00  0.00    +0.000 A 
ATOM     27  C   UNL     1       1.543   4.251  -8.663  0.00  0.00    +0.000 A 
ATOM     28  C   UNL     1       0.567   4.880  -7.913  0.00  0.00    +0.005 A 
ENDBRANCH  22  23
ENDBRANCH   5  22
BRANCH   4  29
ATOM     29  S   UNL     1      -3.004   5.508  -7.945  0.00  0.00    -0.083 S 
BRANCH  29  30
ATOM     30  C   UNL     1      -4.610   4.910  -8.528  0.00  0.00    +0.109 C 
BRANCH  30  31
ATOM     31  C   UNL     1      -5.006   5.669  -9.796  0.00  0.00    +0.129 C 
ATOM     32  C   UNL     1      -6.412   5.223 -10.272  0.00  0.00    +0.034 C 
ATOM     33  C   UNL     1      -6.862   6.474 -11.075  0.00  0.00    +0.031 C 
ATOM     34  C   UNL     1      -6.215   7.626 -10.277  0.00  0.00    +0.160 C 
ATOM     35  O   UNL     1      -5.132   7.072  -9.519  0.00  0.00    -0.376 OA
ENDBRANCH  30  31
ENDBRANCH  29  30
ENDBRANCH   4  29
TORSDOF 9
