REMARK  Name = ZINC49234449
REMARK  4 active torsions:
REMARK  status: ('A' for Active; 'I' for Inactive)
REMARK    1  A    between atoms: C_2  and  N_21
REMARK    2  A    between atoms: C_5  and  S_8
REMARK    3  A    between atoms: S_8  and  N_11
REMARK    4  A    between atoms: C_14  and  C_17
REMARK                            x       y       z     vdW  Elec       q    Type
REMARK                         _______ _______ _______ _____ _____    ______ ____
ROOT
ATOM      1  S   UNL     1       1.229  -2.443  -0.024  0.00  0.00    +0.104 S 
ATOM      2  O   UNL     1      -0.017  -2.860  -0.565  0.00  0.00    -0.146 OA
ATOM      3  O   UNL     1       2.474  -2.831  -0.589  0.00  0.00    -0.146 OA
ENDROOT
BRANCH   1   8
ATOM      4  C   UNL     1      -0.017   1.378   0.010  0.00  0.00    +0.044 A 
ATOM      5  C   UNL     1       1.177   2.088   0.002  0.00  0.00    +0.027 A 
ATOM      6  C   UNL     1       2.387   1.406  -0.013  0.00  0.00    +0.044 A 
ATOM      7  C   UNL     1       2.400   0.023  -0.021  0.00  0.00    +0.071 A 
ATOM      8  C   UNL     1       1.209  -0.681  -0.014  0.00  0.00    +0.149 A 
ATOM      9  C   UNL     1       0.002  -0.004   0.002  0.00  0.00    +0.071 A 
ATOM     10 CL   UNL     1      -1.490  -0.892   0.011  0.00  0.00    -0.081 Cl
ATOM     11 CL   UNL     1       3.912  -0.830  -0.040  0.00  0.00    -0.081 Cl
BRANCH   5  12
ATOM     12  N   UNL     1       1.161   3.484   0.009  0.00  0.00    -0.358 N 
ATOM     13  H   UNL     1       0.316   3.959   0.019  0.00  0.00    +0.142 HD
ATOM     14  H   UNL     1       1.996   3.979   0.004  0.00  0.00    +0.142 HD
ENDBRANCH   5  12
ENDBRANCH   1   8
BRANCH   1  15
ATOM     15  N   UNL     1       1.250  -2.941   1.555  0.00  0.00    -0.103 NA
ATOM     16  C   UNL     1       1.267  -4.221   1.838  0.00  0.00    +0.192 A 
ATOM     17  N   UNL     1       1.280  -4.843   3.067  0.00  0.00    -0.336 N 
ATOM     18  C   UNL     1       1.297  -6.207   3.106  0.00  0.00    +0.028 A 
ATOM     19  C   UNL     1       1.302  -6.910   1.973  0.00  0.00    +0.070 A 
ATOM     20  S   UNL     1       1.272  -5.625   0.734  0.00  0.00    -0.057 S 
ATOM     21  H   UNL     1       1.277  -4.324   3.887  0.00  0.00    +0.168 HD
BRANCH  18  22
ATOM     22  C   UNL     1       1.312  -6.921   4.433  0.00  0.00    +0.036 C 
ATOM     23  C   UNL     1       1.103  -6.077   5.692  0.00  0.00    +0.010 C 
ATOM     24  C   UNL     1       2.487  -6.643   5.372  0.00  0.00    +0.010 C 
ENDBRANCH  18  22
ENDBRANCH   1  15
TORSDOF 4
