REMARK  Name = ZINC11073787
REMARK  10 active torsions:
REMARK  status: ('A' for Active; 'I' for Inactive)
REMARK    1  A    between atoms: C_1  and  C_2
REMARK    2  A    between atoms: C_5  and  N_9
REMARK    3  A    between atoms: C_6  and  C_8
REMARK    4  A    between atoms: C_10  and  C_12
REMARK    5  A    between atoms: C_12  and  C_14
REMARK    6  A    between atoms: C_12  and  N_61
REMARK    7  A    between atoms: C_15  and  N_61
REMARK    8  A    between atoms: C_16  and  C_17
REMARK    9  A    between atoms: C_16  and  N_61
REMARK   10  A    between atoms: C_30  and  C_32
REMARK                            x       y       z     vdW  Elec       q    Type
REMARK                         _______ _______ _______ _____ _____    ______ ____
ROOT
ATOM      1  C   UNL     1       0.186   3.841  -2.499  0.00  0.00    +0.020 C 
ENDROOT
BRANCH   1   2
ATOM      2  C   UNL     1       0.594   4.805  -1.415  0.00  0.00    +0.204 C 
ATOM      3  O   UNL     1       0.645   5.995  -1.648  0.00  0.00    -0.277 OA
ATOM      4  N   UNL     1       0.903   4.346  -0.186  0.00  0.00    -0.268 N 
ATOM      5  C   UNL     1       0.848   2.975   0.097  0.00  0.00    +0.058 A 
ATOM      6  C   UNL     1      -0.370   2.329   0.227  0.00  0.00    +0.025 A 
ATOM      7  C   UNL     1      -0.405   0.986   0.556  0.00  0.00    +0.002 A 
ATOM      8  C   UNL     1       0.772   0.286   0.754  0.00  0.00    +0.002 A 
ATOM      9  C   UNL     1       1.992   0.921   0.613  0.00  0.00    +0.025 A 
ATOM     10  C   UNL     1       2.036   2.264   0.278  0.00  0.00    +0.055 A 
ATOM     11  N   UNL     1       3.259   2.920   0.100  0.00  0.00    -0.284 N 
ATOM     12  C   UNL     1       3.493   4.107   0.701  0.00  0.00    +0.219 C 
ATOM     13  O   UNL     1       4.523   4.706   0.471  0.00  0.00    -0.275 OA
ATOM     14  C   UNL     1       2.484   4.692   1.654  0.00  0.00    +0.118 C 
ATOM     15  C   UNL     1       1.302   5.271   0.877  0.00  0.00    +0.087 C 
ATOM     16  C   UNL     1       0.124   5.486   1.829  0.00  0.00    +0.029 C 
ATOM     17  H   UNL     1       3.943   2.520  -0.458  0.00  0.00    +0.155 HD
ENDBRANCH   1   2
BRANCH   1  19
ATOM     18  C   UNL     1       1.123   5.210  -4.263  0.00  0.00    -0.094 C 
ATOM     19  N   UNL     1      -0.115   4.606  -3.728  0.00  0.00    +0.391 N 
ATOM     20  H   UNL     1      -0.780   5.354  -3.500  0.00  0.00    -0.080 HD
BRANCH  19  21
ATOM     21  C   UNL     1      -0.722   3.716  -4.740  0.00  0.00    +0.017 C 
ATOM     22  C   UNL     1       0.068   2.409  -4.847  0.00  0.00    -0.004 C 
BRANCH  21  24
ATOM     23  N   UNL     1      -2.986   2.836  -5.207  0.00  0.00    -0.287 N 
ATOM     24  C   UNL     1      -2.140   3.413  -4.330  0.00  0.00    +0.203 C 
ATOM     25  O   UNL     1      -2.521   3.688  -3.212  0.00  0.00    -0.277 OA
ATOM     26  H   UNL     1      -2.708   2.690  -6.125  0.00  0.00    +0.155 HD
BRANCH  23  31
ATOM     27  C   UNL     1      -8.174   1.267  -3.530  0.00  0.00    +0.044 C 
ATOM     28  C   UNL     1      -6.796   1.684  -3.975  0.00  0.00    -0.050 A 
ATOM     29  C   UNL     1      -5.796   1.877  -3.039  0.00  0.00    +0.005 A 
ATOM     30  C   UNL     1      -4.533   2.259  -3.444  0.00  0.00    +0.024 A 
ATOM     31  C   UNL     1      -4.266   2.449  -4.793  0.00  0.00    +0.036 A 
ATOM     32  C   UNL     1      -5.273   2.261  -5.731  0.00  0.00    -0.029 A 
ATOM     33  C   UNL     1      -6.533   1.874  -5.319  0.00  0.00    +0.008 A 
ATOM     34  C   UNL     1      -4.989   2.473  -7.195  0.00  0.00    +0.045 C 
ENDBRANCH  23  31
ENDBRANCH  21  24
ENDBRANCH  19  21
ENDBRANCH   1  19
TORSDOF 5
