REMARK  Name = ZINC08922308
REMARK  5 active torsions:
REMARK  status: ('A' for Active; 'I' for Inactive)
REMARK    1  A    between atoms: N_9  and  C_22
REMARK    2  A    between atoms: C_10  and  C_12
REMARK    3  A    between atoms: C_13  and  C_14
REMARK    4  A    between atoms: C_19  and  O_20
REMARK    5  A    between atoms: C_25  and  N_28
REMARK                            x       y       z     vdW  Elec       q    Type
REMARK                         _______ _______ _______ _____ _____    ______ ____
ROOT
ATOM      1  C   UNL     1      -0.020  -2.606  -0.947  0.00  0.00    +0.001 A 
ATOM      2  C   UNL     1      -1.170  -2.046  -0.405  0.00  0.00    +0.002 A 
ATOM      3  C   UNL     1      -1.165  -0.774   0.094  0.00  0.00    +0.028 A 
ATOM      4  C   UNL     1       0.012  -0.019   0.061  0.00  0.00    +0.079 A 
ATOM      5  C   UNL     1       1.184  -0.588  -0.491  0.00  0.00    +0.065 A 
ATOM      6  C   UNL     1       1.155  -1.888  -0.994  0.00  0.00    +0.015 A 
ATOM      7  C   UNL     1       2.408   0.225  -0.515  0.00  0.00    +0.267 A 
ATOM      8  O   UNL     1       3.446  -0.212  -0.977  0.00  0.00    -0.267 OA
ATOM      9  N   UNL     1       2.339   1.476  -0.004  0.00  0.00    -0.261 N 
ATOM     10  C   UNL     1       1.158   1.950   0.513  0.00  0.00    +0.141 A 
ATOM     11  N   UNL     1       0.055   1.237   0.542  0.00  0.00    -0.229 NA
ENDROOT
BRANCH   9  12
ATOM     12  C   UNL     1       3.476   2.292  -0.004  0.00  0.00    +0.052 A 
ATOM     13  C   UNL     1       3.744   3.114  -1.091  0.00  0.00    +0.028 A 
ATOM     14  C   UNL     1       4.865   3.921  -1.085  0.00  0.00    +0.035 A 
ATOM     15  C   UNL     1       5.725   3.904  -0.002  0.00  0.00    +0.126 A 
ATOM     16  C   UNL     1       5.465   3.082   1.079  0.00  0.00    +0.035 A 
ATOM     17  C   UNL     1       4.343   2.276   1.081  0.00  0.00    +0.028 A 
BRANCH  15  18
ATOM     18  N   UNL     1       6.928   4.766  -0.002  0.00  0.00    +0.056 N 
ATOM     19  O   UNL     1       7.688   4.751   0.951  0.00  0.00    -0.126 OA
ATOM     20  O   UNL     1       7.159   5.490  -0.954  0.00  0.00    -0.126 OA
ENDBRANCH  15  18
ENDBRANCH   9  12
BRANCH  10  21
ATOM     21  C   UNL     1       1.127   3.308   1.055  0.00  0.00    +0.047 C 
ATOM     22  C   UNL     1       0.014   3.767   1.664  0.00  0.00    +0.015 C 
BRANCH  22  23
ATOM     23  C   UNL     1      -0.017   5.132   2.208  0.00  0.00    +0.018 A 
ATOM     24  C   UNL     1       1.107   5.957   2.103  0.00  0.00    +0.026 A 
ATOM     25  C   UNL     1       1.069   7.238   2.612  0.00  0.00    +0.019 A 
ATOM     26  C   UNL     1      -0.075   7.708   3.238  0.00  0.00    +0.019 A 
ATOM     27  C   UNL     1      -1.190   6.901   3.353  0.00  0.00    +0.047 A 
ATOM     28  C   UNL     1      -1.173   5.613   2.843  0.00  0.00    +0.124 A 
ATOM     29 BR   UNL     1       2.587   8.356   2.462  0.00  0.00    -0.050 Br
BRANCH  28  30
ATOM     30  O   UNL     1      -2.269   4.820   2.956  0.00  0.00    -0.506 OA
ATOM     31  H   UNL     1      -2.287   4.287   3.763  0.00  0.00    +0.292 HD
ENDBRANCH  28  30
ENDBRANCH  22  23
ENDBRANCH  10  21
TORSDOF 5
