REMARK  Name = ZINC20710317
REMARK  11 active torsions:
REMARK  status: ('A' for Active; 'I' for Inactive)
REMARK    1  A    between atoms: C_1  and  C_2
REMARK    2  A    between atoms: C_2  and  N_3
REMARK    3  A    between atoms: N_3  and  C_4
REMARK    4  A    between atoms: N_3  and  C_6
REMARK    5  A    between atoms: C_4  and  C_5
REMARK    6  A    between atoms: C_6  and  C_7
REMARK    7  A    between atoms: C_7  and  N_8
REMARK    8  A    between atoms: C_9  and  C_11
REMARK    9  A    between atoms: C_24  and  C_27
REMARK   10  A    between atoms: C_29  and  N_34
REMARK   11  A    between atoms: C_32  and  O_33
REMARK                            x       y       z     vdW  Elec       q    Type
REMARK                         _______ _______ _______ _____ _____    ______ ____
ROOT
ATOM      1  C   UNL     1       2.991   3.743   4.115  0.00  0.00    +0.037 A 
ATOM      2  C   UNL     1       3.447   4.138   2.854  0.00  0.00    +0.015 A 
ATOM      3  C   UNL     1       2.557   4.293   1.818  0.00  0.00    +0.024 A 
ATOM      4  C   UNL     1       1.197   4.058   2.012  0.00  0.00    +0.031 A 
ATOM      5  C   UNL     1       0.742   3.647   3.273  0.00  0.00    -0.019 A 
ATOM      6  C   UNL     1       1.628   3.500   4.312  0.00  0.00    +0.019 A 
ATOM      7  C   UNL     1      -0.702   3.365   3.419  0.00  0.00    +0.049 C 
ATOM      8  C   UNL     1      -1.403   3.501   4.721  0.00  0.00    -0.023 C 
ATOM      9  C   UNL     1      -2.662   3.854   4.490  0.00  0.00    -0.030 C 
ATOM     10  C   UNL     1      -2.892   4.017   2.986  0.00  0.00    +0.033 C 
ATOM     11  C   UNL     1      -1.478   4.367   2.513  0.00  0.00    +0.029 C 
ATOM     12  C   UNL     1      -1.130   3.977   1.088  0.00  0.00    +0.108 C 
ATOM     13  N   UNL     1       0.318   4.240   0.945  0.00  0.00    -0.336 N 
ATOM     14  H   UNL     1       0.722   4.587  -0.018  0.00  0.00    +0.147 HD
ENDROOT
BRANCH  12  15
ATOM     15  C   UNL     1      -1.911   4.816   0.110  0.00  0.00    +0.017 A 
ATOM     16  C   UNL     1      -1.324   5.923  -0.474  0.00  0.00    +0.041 A 
ATOM     17  C   UNL     1      -2.040   6.693  -1.371  0.00  0.00    +0.127 A 
ATOM     18  C   UNL     1      -3.344   6.359  -1.687  0.00  0.00    +0.036 A 
ATOM     19  C   UNL     1      -3.935   5.253  -1.107  0.00  0.00    +0.048 A 
ATOM     20  C   UNL     1      -3.217   4.475  -0.209  0.00  0.00    +0.122 A 
BRANCH  17  21
ATOM     21  N   UNL     1      -1.409   7.878  -1.995  0.00  0.00    +0.056 N 
ATOM     22  O   UNL     1      -0.261   8.174  -1.718  0.00  0.00    -0.126 OA
ATOM     23  O   UNL     1      -2.039   8.558  -2.786  0.00  0.00    -0.126 OA
ENDBRANCH  17  21
BRANCH  20  24
ATOM     24  O   UNL     1      -3.794   3.384   0.359  0.00  0.00    -0.506 OA
ATOM     25  H   UNL     1      -4.830   3.115   0.105  0.00  0.00    +0.292 HD
ENDBRANCH  20  24
ENDBRANCH  12  15
BRANCH   1  27
ATOM     26  N   UNL     1       5.254   3.820   5.037  0.00  0.00    -0.313 N 
ATOM     27  C   UNL     1       3.942   3.584   5.231  0.00  0.00    +0.244 C 
ATOM     28  O   UNL     1       3.541   3.240   6.327  0.00  0.00    -0.270 OA
ATOM     29  H   UNL     1       5.616   4.131   4.046  0.00  0.00    +0.149 HD
BRANCH  26  30
ATOM     30  C   UNL     1       6.199   3.662   6.146  0.00  0.00    +0.086 C 
BRANCH  30  31
ATOM     31  C   UNL     1       7.613   3.989   5.661  0.00  0.00    -0.060 C 
BRANCH  31  32
ATOM     32  N   UNL     1       8.560   3.830   6.773  0.00  0.00    +0.380 N 
ATOM     33  H   UNL     1       8.181   4.413   7.625  0.00  0.00    -0.082 HD
BRANCH  32  35
ATOM     34  C   UNL     1       9.150   1.575   6.022  0.00  0.00    -0.017 C 
ATOM     35  C   UNL     1       8.650   2.425   7.192  0.00  0.00    -0.082 C 
ENDBRANCH  32  35
BRANCH  32  36
ATOM     36  C   UNL     1       9.883   4.359   6.416  0.00  0.00    -0.082 C 
ATOM     37  C   UNL     1      10.719   4.541   7.685  0.00  0.00    -0.017 C 
ENDBRANCH  32  36
ENDBRANCH  31  32
ENDBRANCH  30  31
ENDBRANCH  26  30
ENDBRANCH   1  27
TORSDOF 9
