REMARK  Name = ZINC41679784
REMARK  5 active torsions:
REMARK  status: ('A' for Active; 'I' for Inactive)
REMARK    1  A    between atoms: C_1  and  C_2
REMARK    2  A    between atoms: C_7  and  C_9
REMARK    3  A    between atoms: C_7  and  C_10
REMARK    4  A    between atoms: C_11  and  C_13
REMARK    5  A    between atoms: C_13  and  N_19
REMARK                            x       y       z     vdW  Elec       q    Type
REMARK                         _______ _______ _______ _____ _____    ______ ____
ROOT
ATOM      1  C   UNL     1       0.252   2.414  -1.421  0.00  0.00    +0.039 C 
ATOM      2  C   UNL     1       0.400   0.963  -0.958  0.00  0.00    +0.133 C 
ATOM      3  C   UNL     1       0.933   0.109  -2.114  0.00  0.00    +0.139 C 
ATOM      4  N   UNL     1       1.243  -1.233  -1.595  0.00  0.00    -0.297 N 
ATOM      5  C   UNL     1       2.079  -1.331  -0.388  0.00  0.00    +0.142 C 
ATOM      6  C   UNL     1       1.491  -0.406   0.684  0.00  0.00    +0.080 C 
ATOM      7  O   UNL     1       1.319   0.903   0.136  0.00  0.00    -0.368 OA
ATOM      8  C   UNL     1       0.135  -0.950   1.140  0.00  0.00    +0.043 C 
ATOM      9  C   UNL     1       2.444  -0.339   1.879  0.00  0.00    +0.043 C 
ATOM     10  C   UNL     1       0.776  -2.339  -2.207  0.00  0.00    +0.204 C 
ATOM     11  O   UNL     1       1.126  -3.436  -1.827  0.00  0.00    -0.277 OA
ENDROOT
BRANCH  10  12
ATOM     12  C   UNL     1      -0.180  -2.212  -3.365  0.00  0.00    +0.007 C 
ATOM     13  C   UNL     1      -0.593  -3.607  -3.840  0.00  0.00    -0.004 C 
ATOM     14  C   UNL     1       0.648  -4.381  -4.287  0.00  0.00    -0.001 C 
ATOM     15  C   UNL     1       1.331  -3.633  -5.433  0.00  0.00    -0.000 C 
ATOM     16  C   UNL     1       1.744  -2.238  -4.958  0.00  0.00    -0.001 C 
ATOM     17  C   UNL     1       0.502  -1.464  -4.511  0.00  0.00    -0.004 C 
BRANCH  12  18
ATOM     18  N   UNL     1      -1.373  -1.469  -2.936  0.00  0.00    +0.388 N 
ATOM     19  H   UNL     1      -1.091  -0.666  -2.393  0.00  0.00    -0.089 HD
ATOM     20  H   UNL     1      -1.888  -1.162  -3.747  0.00  0.00    -0.089 HD
ATOM     21  H   UNL     1      -1.958  -2.067  -2.372  0.00  0.00    -0.089 HD
ENDBRANCH  12  18
ENDBRANCH  10  12
TORSDOF 2
