REMARK  Name = ZINC39667573
REMARK  8 active torsions:
REMARK  status: ('A' for Active; 'I' for Inactive)
REMARK    1  A    between atoms: C_1  and  C_2
REMARK    2  A    between atoms: C_6  and  C_9
REMARK    3  A    between atoms: C_7  and  C_8
REMARK    4  A    between atoms: C_9  and  N_10
REMARK    5  A    between atoms: C_11  and  C_13
REMARK    6  A    between atoms: C_24  and  C_26
REMARK    7  A    between atoms: C_26  and  O_27
REMARK    8  A    between atoms: O_27  and  C_28
REMARK                            x       y       z     vdW  Elec       q    Type
REMARK                         _______ _______ _______ _____ _____    ______ ____
ROOT
ATOM      1  C   UNL     1      -2.927  -3.595   4.770  0.00  0.00    +0.100 C 
ATOM      2  C   UNL     1      -3.889  -4.262   3.761  0.00  0.00    +0.121 C 
ATOM      3  N   UNL     1      -3.932  -5.686   4.169  0.00  0.00    -0.297 N 
ATOM      4  C   UNL     1      -3.937  -5.644   5.651  0.00  0.00    +0.115 C 
ATOM      5  C   UNL     1      -2.965  -4.503   6.011  0.00  0.00    -0.004 C 
ATOM      6  C   UNL     1      -3.483  -3.728   7.218  0.00  0.00    -0.010 C 
ATOM      7  C   UNL     1      -3.456  -4.634   8.451  0.00  0.00    -0.082 C 
ATOM      8  N   UNL     1      -2.083  -5.095   8.693  0.00  0.00    +0.379 N 
ATOM      9  C   UNL     1      -1.626  -5.918   7.567  0.00  0.00    -0.082 C 
ATOM     10  C   UNL     1      -1.575  -5.065   6.296  0.00  0.00    -0.010 C 
ATOM     11  C   UNL     1      -3.960  -6.773   3.373  0.00  0.00    +0.253 C 
ATOM     12  O   UNL     1      -3.994  -7.882   3.863  0.00  0.00    -0.272 OA
ATOM     13  H   UNL     1      -1.475  -4.296   8.793  0.00  0.00    -0.086 HD
ATOM     14  H   UNL     1      -2.057  -5.642   9.540  0.00  0.00    -0.086 HD
ENDROOT
BRANCH   1  16
ATOM     15  N   UNL     1      -0.691  -2.554   4.586  0.00  0.00    -0.311 N 
ATOM     16  C   UNL     1      -1.531  -3.536   4.205  0.00  0.00    +0.218 C 
ATOM     17  O   UNL     1      -1.165  -4.373   3.407  0.00  0.00    -0.275 OA
ATOM     18  H   UNL     1      -0.984  -1.885   5.224  0.00  0.00    +0.149 HD
BRANCH  15  19
ATOM     19  C   UNL     1       0.666  -2.497   4.036  0.00  0.00    +0.139 C 
BRANCH  19  25
ATOM     20  C   UNL     1       3.216  -0.403   7.798  0.00  0.00    +0.044 C 
ATOM     21  C   UNL     1       2.615  -0.312   6.420  0.00  0.00    -0.047 A 
ATOM     22  C   UNL     1       2.731   0.856   5.690  0.00  0.00    +0.003 A 
ATOM     23  C   UNL     1       2.179   0.940   4.426  0.00  0.00    +0.001 A 
ATOM     24  C   UNL     1       1.511  -0.146   3.890  0.00  0.00    +0.005 A 
ATOM     25  C   UNL     1       1.395  -1.314   4.620  0.00  0.00    -0.027 A 
ATOM     26  C   UNL     1       1.951  -1.399   5.883  0.00  0.00    -0.043 A 
ATOM     27  C   UNL     1       1.829  -2.675   6.676  0.00  0.00    +0.044 C 
ENDBRANCH  19  25
ENDBRANCH  15  19
ENDBRANCH   1  16
BRANCH  11  28
ATOM     28  C   UNL     1      -3.948  -6.610   1.875  0.00  0.00    +0.324 C 
BRANCH  28  29
ATOM     29  O   UNL     1      -3.983  -7.898   1.256  0.00  0.00    -0.483 OA
BRANCH  29  30
ATOM     30  C   UNL     1      -3.977  -7.929  -0.102  0.00  0.00    +0.123 A 
ATOM     31  C   UNL     1      -3.934  -6.746  -0.825  0.00  0.00    +0.046 A 
ATOM     32  C   UNL     1      -3.928  -6.780  -2.206  0.00  0.00    +0.005 A 
ATOM     33  C   UNL     1      -3.965  -7.992  -2.869  0.00  0.00    +0.020 A 
ATOM     34  C   UNL     1      -4.009  -9.175  -2.151  0.00  0.00    +0.044 A 
ATOM     35  C   UNL     1      -4.010  -9.145  -0.769  0.00  0.00    +0.065 A 
ATOM     36 CL   UNL     1      -4.057 -10.695  -2.987  0.00  0.00    -0.083 Cl
ENDBRANCH  29  30
ENDBRANCH  28  29
ENDBRANCH  11  28
TORSDOF 6
