REMARK  Name = ZINC01441281
REMARK  12 active torsions:
REMARK  status: ('A' for Active; 'I' for Inactive)
REMARK    1  A    between atoms: C_1  and  C_2
REMARK    2  A    between atoms: C_2  and  O_3
REMARK    3  A    between atoms: O_3  and  C_4
REMARK    4  A    between atoms: C_4  and  C_6
REMARK    5  A    between atoms: C_7  and  C_35
REMARK    6  A    between atoms: C_11  and  C_13
REMARK    7  A    between atoms: C_16  and  O_21
REMARK    8  A    between atoms: C_17  and  O_19
REMARK    9  A    between atoms: O_19  and  C_20
REMARK   10  A    between atoms: O_21  and  C_22
REMARK   11  A    between atoms: C_31  and  C_33
REMARK   12  A    between atoms: C_31  and  C_34
REMARK                            x       y       z     vdW  Elec       q    Type
REMARK                         _______ _______ _______ _____ _____    ______ ____
ROOT
ATOM      1  C   UNL     1      -1.537  -6.348  -2.212  0.00  0.00    +0.065 C 
ATOM      2  C   UNL     1      -0.437  -6.846  -2.803  0.00  0.00    +0.016 C 
ATOM      3  N   UNL     1       0.013  -6.321  -3.982  0.00  0.00    -0.321 N 
ATOM      4  C   UNL     1      -0.817  -5.579  -4.779  0.00  0.00    +0.016 C 
ATOM      5  C   UNL     1      -1.939  -5.028  -4.271  0.00  0.00    +0.024 C 
ATOM      6  C   UNL     1      -2.296  -5.203  -2.817  0.00  0.00    +0.092 C 
ATOM      7  C   UNL     1      -2.807  -4.276  -5.082  0.00  0.00    +0.162 C 
ATOM      8  O   UNL     1      -3.806  -3.787  -4.594  0.00  0.00    -0.292 OA
ATOM      9  C   UNL     1      -2.521  -4.066  -6.544  0.00  0.00    +0.086 C 
ATOM     10  C   UNL     1      -1.712  -5.256  -7.071  0.00  0.00    -0.023 C 
ATOM     11  C   UNL     1      -0.445  -5.391  -6.229  0.00  0.00    +0.058 C 
ATOM     12  C   UNL     1      -2.545  -6.534  -6.956  0.00  0.00    +0.011 C 
ATOM     13  C   UNL     1      -1.337  -5.016  -8.535  0.00  0.00    +0.011 C 
ATOM     14  C   UNL     1       0.304  -7.991  -2.162  0.00  0.00    +0.061 C 
ATOM     15  H   UNL     1       1.052  -6.493  -4.299  0.00  0.00    +0.152 HD
ENDROOT
BRANCH   6  16
ATOM     16  C   UNL     1      -1.962  -3.938  -2.069  0.00  0.00    -0.032 A 
ATOM     17  C   UNL     1      -0.657  -3.482  -2.033  0.00  0.00    +0.008 A 
ATOM     18  C   UNL     1      -0.346  -2.322  -1.349  0.00  0.00    +0.050 A 
ATOM     19  C   UNL     1      -1.343  -1.613  -0.697  0.00  0.00    +0.162 A 
ATOM     20  C   UNL     1      -2.655  -2.075  -0.729  0.00  0.00    +0.162 A 
ATOM     21  C   UNL     1      -2.961  -3.236  -1.421  0.00  0.00    +0.054 A 
BRANCH  20  22
ATOM     22  O   UNL     1      -3.636  -1.386  -0.087  0.00  0.00    -0.491 OA
ATOM     23  C   UNL     1      -4.960  -1.919  -0.162  0.00  0.00    +0.277 C 
ENDBRANCH  20  22
BRANCH  19  24
ATOM     24  O   UNL     1      -1.039  -0.471  -0.024  0.00  0.00    -0.485 OA
BRANCH  24  25
ATOM     25  C   UNL     1       0.306   0.002  -0.124  0.00  0.00    +0.174 C 
ATOM     26  C   UNL     1       0.334   1.512   0.121  0.00  0.00    +0.044 C 
ATOM     27  C   UNL     1       1.774   2.019   0.013  0.00  0.00    +0.004 C 
ATOM     28  C   UNL     1       2.641   1.316   1.059  0.00  0.00    +0.000 C 
ATOM     29  C   UNL     1       2.613  -0.194   0.814  0.00  0.00    +0.004 C 
ATOM     30  C   UNL     1       1.173  -0.701   0.921  0.00  0.00    +0.044 C 
ENDBRANCH  24  25
ENDBRANCH  19  24
ENDBRANCH   6  16
BRANCH   1  31
ATOM     31  C   UNL     1      -1.986  -6.913  -0.995  0.00  0.00    +0.338 C 
ATOM     32  O   UNL     1      -1.324  -7.770  -0.441  0.00  0.00    -0.245 OA
BRANCH  31  33
ATOM     33  O   UNL     1      -3.150  -6.501  -0.450  0.00  0.00    -0.462 OA
BRANCH  33  35
ATOM     34  C   UNL     1      -4.877  -6.524   1.241  0.00  0.00    +0.048 C 
ATOM     35  C   UNL     1      -3.543  -7.114   0.780  0.00  0.00    +0.229 C 
ENDBRANCH  33  35
ENDBRANCH  31  33
ENDBRANCH   1  31
TORSDOF 7
