REMARK  Name = ZINC59170620
REMARK  7 active torsions:
REMARK  status: ('A' for Active; 'I' for Inactive)
REMARK    1  A    between atoms: C_1  and  C_2
REMARK    2  A    between atoms: C_5  and  S_8
REMARK    3  A    between atoms: S_8  and  N_11
REMARK    4  A    between atoms: N_11  and  N_12
REMARK    5  A    between atoms: C_14  and  C_24
REMARK    6  A    between atoms: C_18  and  C_23
REMARK    7  A    between atoms: N_26  and  C_27
REMARK                            x       y       z     vdW  Elec       q    Type
REMARK                         _______ _______ _______ _____ _____    ______ ____
ROOT
ATOM      1  N   UNL     1       2.849  -4.144   0.292  0.00  0.00    -0.260 N 
ATOM      2  C   UNL     1       4.067  -4.604   0.324  0.00  0.00    +0.225 A 
ATOM      3  C   UNL     1       4.929  -4.403   1.511  0.00  0.00    +0.099 A 
ATOM      4  C   UNL     1       5.922  -5.327   1.731  0.00  0.00    +0.030 A 
ATOM      5  C   UNL     1       6.045  -6.433   0.774  0.00  0.00    +0.018 A 
ATOM      6  C   UNL     1       6.841  -7.545   1.068  0.00  0.00    +0.015 A 
ATOM      7  C   UNL     1       6.939  -8.573   0.155  0.00  0.00    -0.050 A 
ATOM      8  C   UNL     1       6.255  -8.509  -1.049  0.00  0.00    +0.007 A 
ATOM      9  C   UNL     1       5.466  -7.415  -1.352  0.00  0.00    +0.047 A 
ATOM     10  C   UNL     1       5.355  -6.371  -0.449  0.00  0.00    +0.137 A 
ATOM     11  O   UNL     1       4.588  -5.292  -0.734  0.00  0.00    -0.437 OA
ATOM     12  C   UNL     1       7.795  -9.774   0.467  0.00  0.00    +0.044 C 
ATOM     13  H   UNL     1       2.466  -3.728   1.081  0.00  0.00    +0.189 HD
ENDROOT
BRANCH   3  14
ATOM     14  C   UNL     1       4.731  -3.260   2.418  0.00  0.00    +0.253 C 
ATOM     15  O   UNL     1       3.799  -2.498   2.241  0.00  0.00    -0.270 OA
ATOM     16  N   UNL     1       5.581  -3.059   3.445  0.00  0.00    -0.280 N 
ATOM     17  H   UNL     1       6.360  -3.626   3.547  0.00  0.00    +0.155 HD
BRANCH  16  18
ATOM     18  C   UNL     1       5.338  -2.031   4.362  0.00  0.00    +0.054 A 
ATOM     19  C   UNL     1       4.066  -1.487   4.478  0.00  0.00    +0.044 A 
ATOM     20  C   UNL     1       3.829  -0.472   5.386  0.00  0.00    +0.043 A 
ATOM     21  C   UNL     1       4.860   0.002   6.179  0.00  0.00    +0.021 A 
ATOM     22  C   UNL     1       6.128  -0.537   6.067  0.00  0.00    +0.023 A 
ATOM     23  C   UNL     1       6.369  -1.556   5.165  0.00  0.00    +0.062 A 
ATOM     24 CL   UNL     1       7.960  -2.238   5.029  0.00  0.00    -0.082 Cl
ATOM     25 CL   UNL     1       2.239   0.209   5.530  0.00  0.00    -0.083 Cl
ENDBRANCH  16  18
ENDBRANCH   3  14
BRANCH   1  26
ATOM     26  N   UNL     1       2.091  -4.248  -0.882  0.00  0.00    -0.157 N 
ATOM     27  H   UNL     1       2.445  -4.728  -1.647  0.00  0.00    +0.194 HD
BRANCH  26  28
ATOM     28  S   UNL     1       0.590  -3.553  -0.963  0.00  0.00    +0.085 S 
ATOM     29  O   UNL     1      -0.141  -4.031   0.158  0.00  0.00    -0.149 OA
ATOM     30  O   UNL     1       0.135  -3.723  -2.298  0.00  0.00    -0.149 OA
BRANCH  28  35
ATOM     31  C   UNL     1       1.322   2.379  -0.137  0.00  0.00    +0.044 C 
ATOM     32  C   UNL     1       1.139   0.898  -0.343  0.00  0.00    -0.050 A 
ATOM     33  C   UNL     1       1.298   0.350  -1.603  0.00  0.00    +0.005 A 
ATOM     34  C   UNL     1       1.130  -1.009  -1.792  0.00  0.00    +0.029 A 
ATOM     35  C   UNL     1       0.805  -1.821  -0.722  0.00  0.00    +0.110 A 
ATOM     36  C   UNL     1       0.647  -1.273   0.538  0.00  0.00    +0.029 A 
ATOM     37  C   UNL     1       0.819   0.085   0.728  0.00  0.00    +0.005 A 
ENDBRANCH  28  35
ENDBRANCH  26  28
ENDBRANCH   1  26
TORSDOF 5
