REMARK  Name = ZINC35980292
REMARK  12 active torsions:
REMARK  status: ('A' for Active; 'I' for Inactive)
REMARK    1  A    between atoms: C_1  and  C_2
REMARK    2  A    between atoms: C_2  and  C_3
REMARK    3  A    between atoms: C_3  and  N_4
REMARK    4  A    between atoms: N_7  and  C_8
REMARK    5  A    between atoms: N_7  and  C_31
REMARK    6  A    between atoms: C_8  and  C_9
REMARK    7  A    between atoms: C_10  and  C_29
REMARK    8  A    between atoms: N_12  and  C_23
REMARK    9  A    between atoms: C_13  and  O_14
REMARK   10  A    between atoms: O_14  and  C_15
REMARK   11  A    between atoms: C_29  and  C_30
REMARK   12  A    between atoms: C_31  and  C_32
REMARK                            x       y       z     vdW  Elec       q    Type
REMARK                         _______ _______ _______ _____ _____    ______ ____
ROOT
ATOM      1  C   UNL     1       1.027  -4.806   4.505  0.00  0.00    +0.055 A 
ATOM      2  C   UNL     1       0.512  -3.923   5.459  0.00  0.00    +0.072 A 
ATOM      3  N   UNL     1      -0.500  -4.500   6.054  0.00  0.00    -0.168 NA
ATOM      4  N   UNL     1      -0.669  -5.776   5.501  0.00  0.00    -0.200 N 
ATOM      5  C   UNL     1       0.281  -5.942   4.542  0.00  0.00    +0.229 A 
ENDROOT
BRANCH   4   6
ATOM      6  C   UNL     1      -1.647  -6.712   5.867  0.00  0.00    +0.069 A 
ATOM      7  C   UNL     1      -2.294  -7.459   4.891  0.00  0.00    +0.028 A 
ATOM      8  C   UNL     1      -3.256  -8.380   5.255  0.00  0.00    +0.002 A 
ATOM      9  C   UNL     1      -3.575  -8.559   6.588  0.00  0.00    +0.000 A 
ATOM     10  C   UNL     1      -2.933  -7.817   7.562  0.00  0.00    +0.002 A 
ATOM     11  C   UNL     1      -1.966  -6.897   7.205  0.00  0.00    +0.028 A 
ENDBRANCH   4   6
BRANCH   2  12
ATOM     12  C   UNL     1       1.035  -2.541   5.753  0.00  0.00    +0.054 C 
ATOM     13  C   UNL     1       0.230  -1.511   4.958  0.00  0.00    +0.010 C 
ENDBRANCH   2  12
BRANCH   1  14
ATOM     14  C   UNL     1       2.198  -4.543   3.593  0.00  0.00    +0.151 C 
BRANCH  14  18
ATOM     15  N   UNL     1       5.008  -6.808   4.287  0.00  0.00    -0.299 N 
ATOM     16  C   UNL     1       3.835  -6.333   3.823  0.00  0.00    +0.303 C 
ATOM     17  O   UNL     1       3.156  -7.013   3.077  0.00  0.00    -0.253 OA
ATOM     18  N   UNL     1       3.414  -5.106   4.186  0.00  0.00    -0.279 N 
ATOM     19  H   UNL     1       5.549  -6.266   4.882  0.00  0.00    +0.150 HD
BRANCH  15  20
ATOM     20  C   UNL     1       5.465  -8.143   3.892  0.00  0.00    +0.105 C 
BRANCH  20  22
ATOM     21  C   UNL     1       7.291  -9.830   4.141  0.00  0.00    +0.005 C 
ATOM     22  C   UNL     1       6.814  -8.436   4.553  0.00  0.00    +0.015 C 
ENDBRANCH  20  22
ENDBRANCH  15  20
BRANCH  18  23
ATOM     23  C   UNL     1       4.173  -4.333   5.172  0.00  0.00    +0.141 C 
BRANCH  23  24
ATOM     24  C   UNL     1       5.166  -3.420   4.451  0.00  0.00    +0.136 C 
ATOM     25  C   UNL     1       6.005  -2.619   5.478  0.00  0.00    +0.035 C 
ATOM     26  C   UNL     1       7.280  -2.315   4.646  0.00  0.00    +0.031 C 
ATOM     27  C   UNL     1       7.410  -3.581   3.772  0.00  0.00    +0.160 C 
ATOM     28  O   UNL     1       6.120  -4.203   3.715  0.00  0.00    -0.375 OA
ENDBRANCH  23  24
ENDBRANCH  18  23
ENDBRANCH  14  18
ENDBRANCH   1  14
BRANCH   5  29
ATOM     29  O   UNL     1       0.454  -7.042   3.766  0.00  0.00    -0.435 OA
BRANCH  29  30
ATOM     30  C   UNL     1      -0.138  -7.059   2.542  0.00  0.00    +0.166 A 
ATOM     31  C   UNL     1      -0.799  -5.933   2.075  0.00  0.00    +0.052 A 
ATOM     32  C   UNL     1      -1.399  -5.951   0.830  0.00  0.00    +0.042 A 
ATOM     33  C   UNL     1      -1.342  -7.092   0.049  0.00  0.00    +0.126 A 
ATOM     34  C   UNL     1      -0.683  -8.218   0.512  0.00  0.00    +0.080 A 
ATOM     35  C   UNL     1      -0.076  -8.202   1.755  0.00  0.00    +0.168 A 
ATOM     36  F   UNL     1       0.571  -9.299   2.206  0.00  0.00    -0.202 F 
ATOM     37  F   UNL     1      -1.930  -7.107  -1.168  0.00  0.00    -0.205 F 
ENDBRANCH  29  30
ENDBRANCH   5  29
TORSDOF 10
