REMARK  Name = ZINC03185771
REMARK  10 active torsions:
REMARK  status: ('A' for Active; 'I' for Inactive)
REMARK    1  A    between atoms: C_1  and  C_2
REMARK    2  A    between atoms: C_3  and  C_31
REMARK    3  A    between atoms: C_4  and  C_30
REMARK    4  A    between atoms: C_5  and  C_10
REMARK    5  A    between atoms: C_6  and  C_9
REMARK    6  A    between atoms: C_7  and  C_8
REMARK    7  A    between atoms: C_10  and  S_11
REMARK    8  A    between atoms: S_11  and  C_12
REMARK    9  A    between atoms: C_17  and  N_18
REMARK   10  A    between atoms: N_18  and  C_19
REMARK                            x       y       z     vdW  Elec       q    Type
REMARK                         _______ _______ _______ _____ _____    ______ ____
ROOT
ATOM      1  C   UNL     1       6.438   2.523  -2.348  0.00  0.00    +0.029 A 
ATOM      2  C   UNL     1       7.799   2.786  -2.291  0.00  0.00    +0.016 A 
ATOM      3  C   UNL     1       8.399   3.065  -1.077  0.00  0.00    +0.001 A 
ATOM      4  C   UNL     1       7.646   3.089   0.082  0.00  0.00    +0.002 A 
ATOM      5  C   UNL     1       6.287   2.834   0.034  0.00  0.00    +0.024 A 
ATOM      6  C   UNL     1       5.677   2.553  -1.179  0.00  0.00    +0.044 A 
ENDROOT
BRANCH   6   7
ATOM      7  N   UNL     1       4.302   2.295  -1.229  0.00  0.00    -0.305 N 
ATOM      8  H   UNL     1       3.860   2.186  -2.086  0.00  0.00    +0.150 HD
BRANCH   7   9
ATOM      9  C   UNL     1       3.530   2.188   0.011  0.00  0.00    +0.296 C 
ATOM     10  C   UNL     1       2.410   1.193  -0.160  0.00  0.00    +0.025 A 
ATOM     11  C   UNL     1       2.376  -0.149  -0.456  0.00  0.00    +0.010 A 
ATOM     12  C   UNL     1       1.160  -0.806  -0.549  0.00  0.00    +0.000 A 
ATOM     13  C   UNL     1      -0.022  -0.116  -0.346  0.00  0.00    +0.001 A 
ATOM     14  C   UNL     1       0.000   1.231  -0.048  0.00  0.00    +0.015 A 
ATOM     15  C   UNL     1       1.222   1.900   0.048  0.00  0.00    +0.067 A 
ATOM     16  C   UNL     1       1.571   3.301   0.344  0.00  0.00    +0.342 C 
ATOM     17  O   UNL     1       0.768   4.183   0.574  0.00  0.00    -0.245 OA
ATOM     18  O   UNL     1       2.904   3.462   0.323  0.00  0.00    -0.435 OA
ENDBRANCH   7   9
ENDBRANCH   6   7
BRANCH   1  19
ATOM     19  S   UNL     1       5.672   2.160  -3.892  0.00  0.00    -0.119 S 
BRANCH  19  20
ATOM     20  C   UNL     1       7.035   2.236  -5.087  0.00  0.00    +0.110 C 
BRANCH  20  25
ATOM     21  C   UNL     1       5.020   1.103 -10.383  0.00  0.00    +0.044 C 
ATOM     22  C   UNL     1       5.546   1.398  -9.002  0.00  0.00    -0.044 A 
ATOM     23  C   UNL     1       5.573   2.700  -8.537  0.00  0.00    -0.044 A 
ATOM     24  C   UNL     1       6.055   2.971  -7.270  0.00  0.00    -0.043 A 
ATOM     25  C   UNL     1       6.509   1.941  -6.468  0.00  0.00    -0.031 A 
ATOM     26  C   UNL     1       6.486   0.640  -6.935  0.00  0.00    -0.043 A 
ATOM     27  C   UNL     1       5.999   0.368  -8.200  0.00  0.00    -0.044 A 
ATOM     28  C   UNL     1       5.969  -1.051  -8.707  0.00  0.00    +0.044 C 
ATOM     29  C   UNL     1       6.987  -0.483  -6.063  0.00  0.00    +0.044 C 
ATOM     30  C   UNL     1       6.085   4.390  -6.763  0.00  0.00    +0.044 C 
ATOM     31  C   UNL     1       5.079   3.823  -9.411  0.00  0.00    +0.044 C 
ENDBRANCH  20  25
ENDBRANCH  19  20
ENDBRANCH   1  19
TORSDOF 5
