REMARK  Name = ZINC67304560
REMARK  8 active torsions:
REMARK  status: ('A' for Active; 'I' for Inactive)
REMARK    1  A    between atoms: C_1  and  C_2
REMARK    2  A    between atoms: C_2  and  C_3
REMARK    3  A    between atoms: C_2  and  C_4
REMARK    4  A    between atoms: C_4  and  C_5
REMARK    5  A    between atoms: C_5  and  C_7
REMARK    6  A    between atoms: C_5  and  N_23
REMARK    7  A    between atoms: C_7  and  N_8
REMARK    8  A    between atoms: C_9  and  C_11
REMARK                            x       y       z     vdW  Elec       q    Type
REMARK                         _______ _______ _______ _____ _____    ______ ____
ROOT
ATOM      1  N   UNL     1      -1.717  -4.236  -1.158  0.00  0.00    -0.317 N 
ATOM      2  C   UNL     1      -2.566  -5.146  -1.675  0.00  0.00    +0.216 C 
ATOM      3  O   UNL     1      -3.737  -4.868  -1.824  0.00  0.00    -0.276 OA
ATOM      4  H   UNL     1      -0.781  -4.459  -1.039  0.00  0.00    +0.149 HD
ENDROOT
BRANCH   2   5
ATOM      5  C   UNL     1      -2.061  -6.510  -2.069  0.00  0.00    +0.075 C 
ATOM      6  C   UNL     1      -0.978  -6.363  -3.140  0.00  0.00    +0.015 C 
ATOM      7  C   UNL     1      -0.456  -7.748  -3.530  0.00  0.00    +0.036 C 
ATOM      8  C   UNL     1      -1.607  -8.597  -4.060  0.00  0.00    +0.112 C 
ATOM      9  C   UNL     1      -2.706  -8.732  -3.012  0.00  0.00    +0.036 C 
ATOM     10  C   UNL     1      -3.218  -7.343  -2.624  0.00  0.00    +0.015 C 
ATOM     11  C   UNL     1      -2.161  -8.000  -5.333  0.00  0.00    +0.244 C 
ATOM     12  O   UNL     1      -2.670  -6.909  -5.470  0.00  0.00    -0.273 OA
ATOM     13  N   UNL     1      -1.970  -8.938  -6.284  0.00  0.00    -0.238 N 
ATOM     14  C   UNL     1      -1.378 -10.030  -5.787  0.00  0.00    +0.307 C 
ATOM     15  O   UNL     1      -1.102 -11.011  -6.451  0.00  0.00    -0.252 OA
ATOM     16  N   UNL     1      -1.122  -9.922  -4.469  0.00  0.00    -0.285 N 
ATOM     17  H   UNL     1      -2.231  -8.833  -7.212  0.00  0.00    +0.159 HD
ATOM     18  H   UNL     1      -0.700 -10.587  -3.903  0.00  0.00    +0.151 HD
ENDBRANCH   2   5
BRANCH   1  19
ATOM     19  C   UNL     1      -2.209  -2.910  -0.775  0.00  0.00    +0.089 C 
BRANCH  19  20
ATOM     20  C   UNL     1      -1.035  -2.044  -0.317  0.00  0.00    -0.051 C 
BRANCH  20  21
ATOM     21  N   UNL     1      -0.325  -2.720   0.777  0.00  0.00    +0.383 N 
ATOM     22  C   UNL     1       0.821  -1.892   1.233  0.00  0.00    -0.078 C 
ATOM     23  C   UNL     1       1.088  -2.414   2.667  0.00  0.00    -0.020 C 
ATOM     24  C   UNL     1      -0.335  -2.689   3.205  0.00  0.00    -0.020 C 
ATOM     25  C   UNL     1      -1.213  -2.860   1.952  0.00  0.00    -0.078 C 
ATOM     26  H   UNL     1      -0.002  -3.627   0.475  0.00  0.00    -0.081 HD
ENDBRANCH  20  21
BRANCH  20  27
ATOM     27  C   UNL     1      -1.559  -0.692   0.173  0.00  0.00    -0.011 C 
BRANCH  27  29
ATOM     28  C   UNL     1      -2.789   1.377  -0.495  0.00  0.00    +0.007 C 
ATOM     29  C   UNL     1      -2.157   0.080  -1.004  0.00  0.00    -0.019 C 
ATOM     30  C   UNL     1      -1.053   0.411  -2.011  0.00  0.00    +0.007 C 
ENDBRANCH  27  29
ENDBRANCH  20  27
ENDBRANCH  19  20
ENDBRANCH   1  19
TORSDOF 6
