REMARK  Name = ZINC35851845
REMARK  4 active torsions:
REMARK  status: ('A' for Active; 'I' for Inactive)
REMARK    1  A    between atoms: C_4  and  C_7
REMARK    2  A    between atoms: C_7  and  C_9
REMARK    3  A    between atoms: C_11  and  C_29
REMARK    4  A    between atoms: C_33  and  N_35
REMARK                            x       y       z     vdW  Elec       q    Type
REMARK                         _______ _______ _______ _____ _____    ______ ____
ROOT
ATOM      1  C   UNL     1       3.587  -1.763  -0.285  0.00  0.00    +0.103 C 
ATOM      2  C   UNL     1       3.667  -2.720  -1.495  0.00  0.00    +0.050 C 
ATOM      3  C   UNL     1       4.641  -3.826  -1.072  0.00  0.00    +0.077 C 
ATOM      4  C   UNL     1       4.032  -5.216  -1.313  0.00  0.00    +0.090 C 
ATOM      5  S   UNL     1       4.075  -5.941   0.382  0.00  0.00    -0.144 S 
ATOM      6  C   UNL     1       4.284  -4.357   1.307  0.00  0.00    +0.155 C 
ATOM      7  N   UNL     1       5.055  -3.572   0.314  0.00  0.00    -0.271 NA
ATOM      8  C   UNL     1       4.794  -2.145   0.578  0.00  0.00    +0.137 C 
ATOM      9  C   UNL     1       5.992  -1.299   0.249  0.00  0.00    +0.004 A 
ATOM     10  C   UNL     1       6.717  -1.092  -0.903  0.00  0.00    +0.008 A 
ATOM     11  C   UNL     1       7.800  -0.230  -0.894  0.00  0.00    +0.000 A 
ATOM     12  C   UNL     1       8.150   0.423   0.274  0.00  0.00    +0.002 A 
ATOM     13  C   UNL     1       7.427   0.218   1.430  0.00  0.00    +0.023 A 
ATOM     14  C   UNL     1       6.336  -0.649   1.431  0.00  0.00    +0.039 A 
ATOM     15  N   UNL     1       5.462  -1.016   2.456  0.00  0.00    -0.283 N 
ATOM     16  C   UNL     1       4.528  -1.891   2.037  0.00  0.00    +0.243 C 
ATOM     17  O   UNL     1       3.643  -2.381   2.707  0.00  0.00    -0.273 OA
ATOM     18  H   UNL     1       5.521  -0.680   3.364  0.00  0.00    +0.155 HD
ENDROOT
BRANCH   2  19
ATOM     19  C   UNL     1       2.309  -3.303  -1.791  0.00  0.00    -0.040 A 
ATOM     20  C   UNL     1       1.854  -3.368  -3.095  0.00  0.00    +0.004 A 
ATOM     21  C   UNL     1       0.608  -3.902  -3.366  0.00  0.00    +0.002 A 
ATOM     22  C   UNL     1      -0.182  -4.372  -2.333  0.00  0.00    +0.033 A 
ATOM     23  C   UNL     1       0.274  -4.309  -1.030  0.00  0.00    +0.126 A 
ATOM     24  C   UNL     1       1.521  -3.778  -0.759  0.00  0.00    +0.036 A 
BRANCH  23  25
ATOM     25  N   UNL     1      -0.573  -4.811   0.075  0.00  0.00    +0.056 N 
ATOM     26  O   UNL     1      -1.663  -5.278  -0.162  0.00  0.00    -0.126 OA
ATOM     27  O   UNL     1      -0.174  -4.755   1.215  0.00  0.00    -0.126 OA
ENDBRANCH  23  25
ENDBRANCH   2  19
BRANCH   1  28
ATOM     28  C   UNL     1       3.694  -0.330  -0.738  0.00  0.00    +0.169 C 
ATOM     29  O   UNL     1       4.245  -0.064  -1.785  0.00  0.00    -0.292 OA
BRANCH  28  33
ATOM     30  C   UNL     1       2.064   2.776   1.647  0.00  0.00    +0.000 A 
ATOM     31  C   UNL     1       2.693   3.083   0.454  0.00  0.00    +0.001 A 
ATOM     32  C   UNL     1       3.226   2.079  -0.328  0.00  0.00    +0.011 A 
ATOM     33  C   UNL     1       3.129   0.748   0.089  0.00  0.00    +0.018 A 
ATOM     34  C   UNL     1       2.491   0.446   1.297  0.00  0.00    +0.011 A 
ATOM     35  C   UNL     1       1.963   1.461   2.067  0.00  0.00    +0.001 A 
ENDBRANCH  28  33
ENDBRANCH   1  28
TORSDOF 4
