REMARK  Name = ZINC40067966
REMARK  12 active torsions:
REMARK  status: ('A' for Active; 'I' for Inactive)
REMARK    1  A    between atoms: C_1  and  O_2
REMARK    2  A    between atoms: O_2  and  C_3
REMARK    3  A    between atoms: C_5  and  C_11
REMARK    4  A    between atoms: C_8  and  O_9
REMARK    5  A    between atoms: C_13  and  C_25
REMARK    6  A    between atoms: N_17  and  C_18
REMARK    7  A    between atoms: C_18  and  C_19
REMARK    8  A    between atoms: C_19  and  O_20
REMARK    9  A    between atoms: O_20  and  C_21
REMARK   10  A    between atoms: C_21  and  C_22
REMARK   11  A    between atoms: C_22  and  O_23
REMARK   12  A    between atoms: C_25  and  C_27
REMARK                            x       y       z     vdW  Elec       q    Type
REMARK                         _______ _______ _______ _____ _____    ______ ____
ROOT
ATOM      1  C   UNL     1       2.337   0.102   4.239  0.00  0.00    +0.145 C 
ATOM      2  C   UNL     1       3.760   0.562   4.021  0.00  0.00    +0.079 C 
ATOM      3  C   UNL     1       4.456   0.213   5.127  0.00  0.00    +0.249 C 
ATOM      4  C   UNL     1       3.552  -0.465   6.077  0.00  0.00    +0.288 C 
ATOM      5  O   UNL     1       3.880  -0.898   7.164  0.00  0.00    -0.266 OA
ATOM      6  N   UNL     1       2.309  -0.532   5.563  0.00  0.00    -0.281 N 
ATOM      7  O   UNL     1       5.774   0.447   5.330  0.00  0.00    -0.282 OA
ENDROOT
BRANCH   1  10
ATOM      8  C   UNL     1       2.383  -2.924   1.976  0.00  0.00    +0.163 A 
ATOM      9  C   UNL     1       2.740  -2.005   2.950  0.00  0.00    +0.055 A 
ATOM     10  C   UNL     1       1.947  -0.896   3.179  0.00  0.00    -0.018 A 
ATOM     11  C   UNL     1       0.797  -0.700   2.437  0.00  0.00    +0.025 A 
ATOM     12  C   UNL     1       0.435  -1.613   1.463  0.00  0.00    +0.063 A 
ATOM     13  C   UNL     1       1.229  -2.724   1.225  0.00  0.00    +0.173 A 
ATOM     14 BR   UNL     1      -1.140  -1.342   0.452  0.00  0.00    -0.046 Br
BRANCH   8  16
ATOM     15  C   UNL     1       4.289  -4.197   2.611  0.00  0.00    +0.277 C 
ATOM     16  O   UNL     1       3.162  -4.016   1.751  0.00  0.00    -0.491 OA
ENDBRANCH   8  16
BRANCH  13  17
ATOM     17  O   UNL     1       0.877  -3.620   0.264  0.00  0.00    -0.503 OA
ATOM     18  H   UNL     1       0.309  -4.335   0.582  0.00  0.00    +0.292 HD
ENDBRANCH  13  17
ENDBRANCH   1  10
BRANCH   2  19
ATOM     19  C   UNL     1       4.284   1.254   2.838  0.00  0.00    +0.230 C 
ATOM     20  O   UNL     1       5.480   1.463   2.735  0.00  0.00    -0.283 OA
BRANCH  19  21
ATOM     21  C   UNL     1       3.370   1.693   1.780  0.00  0.00    +0.175 A 
ATOM     22  C   UNL     1       3.731   2.279   0.586  0.00  0.00    +0.053 A 
ATOM     23  C   UNL     1       2.541   2.530  -0.112  0.00  0.00    +0.042 A 
ATOM     24  C   UNL     1       1.523   2.096   0.665  0.00  0.00    +0.196 A 
ATOM     25  O   UNL     1       2.025   1.590   1.799  0.00  0.00    -0.460 OA
ENDBRANCH  19  21
ENDBRANCH   2  19
BRANCH   6  26
ATOM     26  C   UNL     1       1.138  -1.130   6.208  0.00  0.00    +0.137 C 
BRANCH  26  27
ATOM     27  C   UNL     1       1.049  -2.611   5.830  0.00  0.00    +0.179 C 
BRANCH  27  28
ATOM     28  O   UNL     1       2.174  -3.308   6.368  0.00  0.00    -0.376 OA
BRANCH  28  29
ATOM     29  C   UNL     1       2.188  -4.706   6.072  0.00  0.00    +0.187 C 
BRANCH  29  30
ATOM     30  C   UNL     1       3.430  -5.347   6.694  0.00  0.00    +0.184 C 
BRANCH  30  31
ATOM     31  O   UNL     1       3.348  -5.263   8.118  0.00  0.00    -0.393 OA
ATOM     32  H   UNL     1       4.104  -5.651   8.579  0.00  0.00    +0.209 HD
ENDBRANCH  30  31
ENDBRANCH  29  30
ENDBRANCH  28  29
ENDBRANCH  27  28
ENDBRANCH  26  27
ENDBRANCH   6  26
TORSDOF 11
