REMARK  Name = ZINC38971400
REMARK  5 active torsions:
REMARK  status: ('A' for Active; 'I' for Inactive)
REMARK    1  A    between atoms: C_8  and  C_34
REMARK    2  A    between atoms: N_19  and  C_23
REMARK    3  A    between atoms: C_23  and  C_24
REMARK    4  A    between atoms: C_24  and  C_25
REMARK    5  A    between atoms: C_38  and  N_40
REMARK                            x       y       z     vdW  Elec       q    Type
REMARK                         _______ _______ _______ _____ _____    ______ ____
ROOT
ATOM      1  C   UNL     1      -0.016   1.355   0.009  0.00  0.00    +0.001 A 
ATOM      2  C   UNL     1       1.141   2.140   0.003  0.00  0.00    +0.002 A 
ATOM      3  C   UNL     1       2.404   1.644  -0.011  0.00  0.00    +0.026 A 
ATOM      4  C   UNL     1       2.553   0.226  -0.019  0.00  0.00    +0.043 A 
ATOM      5  N   UNL     1       3.625  -0.506  -0.041  0.00  0.00    -0.375 N 
ATOM      6  C   UNL     1       3.231  -1.920  -0.004  0.00  0.00    +0.131 C 
ATOM      7  C   UNL     1       3.681  -2.635  -1.278  0.00  0.00    +0.133 C 
ATOM      8  N   UNL     1       2.917  -3.850  -1.516  0.00  0.00    -0.279 N 
ATOM      9  C   UNL     1       1.593  -4.170  -1.024  0.00  0.00    +0.167 C 
ATOM     10  C   UNL     1       0.907  -3.178  -0.122  0.00  0.00    +0.065 C 
ATOM     11  C   UNL     1       1.704  -1.909  -0.024  0.00  0.00    -0.034 C 
ATOM     12  C   UNL     1       1.332  -0.636  -0.013  0.00  0.00    -0.001 A 
ATOM     13  C   UNL     1       0.002  -0.004   0.002  0.00  0.00    +0.010 A 
ATOM     14  C   UNL     1       0.717  -4.608  -2.170  0.00  0.00    +0.237 C 
ATOM     15  O   UNL     1      -0.406  -4.178  -2.327  0.00  0.00    -0.274 OA
ATOM     16  N   UNL     1       1.272  -5.523  -3.020  0.00  0.00    -0.291 N 
ATOM     17  C   UNL     1       2.630  -5.994  -2.691  0.00  0.00    +0.203 C 
ATOM     18  C   UNL     1       3.483  -4.794  -2.338  0.00  0.00    +0.234 C 
ATOM     19  O   UNL     1       4.613  -4.671  -2.761  0.00  0.00    -0.274 OA
ATOM     20  H   UNL     1       4.536  -0.173  -0.076  0.00  0.00    +0.160 HD
ENDROOT
BRANCH   7  21
ATOM     21  C   UNL     1       3.501  -1.706  -2.451  0.00  0.00    -0.023 A 
ATOM     22  C   UNL     1       2.249  -1.539  -3.015  0.00  0.00    +0.005 A 
ATOM     23  C   UNL     1       2.084  -0.687  -4.091  0.00  0.00    +0.003 A 
ATOM     24  C   UNL     1       3.170  -0.002  -4.603  0.00  0.00    +0.033 A 
ATOM     25  C   UNL     1       4.421  -0.169  -4.039  0.00  0.00    +0.127 A 
ATOM     26  C   UNL     1       4.585  -1.017  -2.960  0.00  0.00    +0.038 A 
BRANCH  25  27
ATOM     27  N   UNL     1       5.584   0.565  -4.588  0.00  0.00    +0.056 N 
ATOM     28  O   UNL     1       5.440   1.309  -5.530  0.00  0.00    -0.126 OA
ATOM     29  O   UNL     1       6.678   0.419  -4.095  0.00  0.00    -0.126 OA
ENDBRANCH  25  27
ENDBRANCH   7  21
BRANCH  16  30
ATOM     30  C   UNL     1       0.553  -6.011  -4.200  0.00  0.00    +0.113 C 
BRANCH  30  31
ATOM     31  C   UNL     1       0.865  -5.110  -5.396  0.00  0.00    +0.056 C 
BRANCH  31  32
ATOM     32  C   UNL     1       0.125  -5.613  -6.609  0.00  0.00    -0.021 A 
ATOM     33  C   UNL     1      -1.257  -5.298  -6.980  0.00  0.00    +0.003 A 
ATOM     34  C   UNL     1      -2.260  -4.514  -6.408  0.00  0.00    +0.010 A 
ATOM     35  C   UNL     1      -3.480  -4.423  -7.018  0.00  0.00    +0.001 A 
ATOM     36  C   UNL     1      -3.730  -5.104  -8.201  0.00  0.00    +0.002 A 
ATOM     37  C   UNL     1      -2.754  -5.884  -8.782  0.00  0.00    +0.026 A 
ATOM     38  C   UNL     1      -1.505  -5.991  -8.179  0.00  0.00    +0.047 A 
ATOM     39  N   UNL     1      -0.351  -6.670  -8.502  0.00  0.00    -0.360 N 
ATOM     40  C   UNL     1       0.610  -6.429  -7.559  0.00  0.00    +0.087 A 
ATOM     41  H   UNL     1      -0.236  -7.233  -9.283  0.00  0.00    +0.165 HD
ENDBRANCH  31  32
ENDBRANCH  30  31
ENDBRANCH  16  30
TORSDOF 5
