REMARK  Name = ZINC12446061
REMARK  4 active torsions:
REMARK  status: ('A' for Active; 'I' for Inactive)
REMARK    1  A    between atoms: C_5  and  C_21
REMARK    2  A    between atoms: C_6  and  C_11
REMARK    3  A    between atoms: C_11  and  N_60
REMARK    4  A    between atoms: C_15  and  C_18
REMARK                            x       y       z     vdW  Elec       q    Type
REMARK                         _______ _______ _______ _____ _____    ______ ____
ROOT
ATOM      1  C   UNL     1      -0.013   1.076   0.008  0.00  0.00    +0.025 A 
ATOM      2  C   UNL     1      -1.197   1.742   0.017  0.00  0.00    +0.048 A 
ATOM      3  C   UNL     1      -1.197   3.154   0.030  0.00  0.00    +0.139 A 
ATOM      4  N   UNL     1      -2.180   4.039   0.044  0.00  0.00    -0.223 NA
ATOM      5  C   UNL     1      -1.654   5.278   0.046  0.00  0.00    +0.146 A 
ATOM      6  C   UNL     1      -0.293   5.163   0.033  0.00  0.00    +0.039 A 
ATOM      7  N   UNL     1      -0.004   3.832   0.023  0.00  0.00    -0.303 N 
ATOM      8  C   UNL     1       1.180   3.148   0.008  0.00  0.00    +0.113 A 
ATOM      9  C   UNL     1       1.194   1.798   0.000  0.00  0.00    +0.058 A 
ATOM     10 CL   UNL     1       2.709   0.950  -0.018  0.00  0.00    -0.082 Cl
ENDROOT
BRANCH   5  11
ATOM     11  C   UNL     1      -2.416   6.542   0.061  0.00  0.00    +0.267 C 
ATOM     12  O   UNL     1      -1.828   7.606   0.062  0.00  0.00    -0.268 OA
ATOM     13  N   UNL     1      -3.763   6.516   0.073  0.00  0.00    -0.296 N 
ATOM     14  C   UNL     1      -4.482   5.234   0.066  0.00  0.00    +0.108 C 
ATOM     15  C   UNL     1      -4.250   4.532   1.404  0.00  0.00    +0.019 C 
ATOM     16  C   UNL     1      -5.047   5.256   2.502  0.00  0.00    +0.002 C 
ATOM     17  C   UNL     1      -4.310   6.527   2.908  0.00  0.00    +0.000 C 
ATOM     18  C   UNL     1      -5.120   7.776   2.515  0.00  0.00    +0.002 C 
ATOM     19  C   UNL     1      -5.668   7.611   1.097  0.00  0.00    +0.019 C 
ATOM     20  C   UNL     1      -4.521   7.756   0.088  0.00  0.00    +0.108 C 
ENDBRANCH   5  11
BRANCH   6  21
ATOM     21  C   UNL     1       0.702   6.295   0.030  0.00  0.00    -0.022 C 
BRANCH  21  27
ATOM     22  C   UNL     1       1.712   5.583  -2.051  0.00  0.00    -0.078 C 
ATOM     23  C   UNL     1       1.889   5.951  -3.526  0.00  0.00    -0.018 C 
ATOM     24  C   UNL     1       2.694   7.249  -3.630  0.00  0.00    +0.009 C 
ATOM     25  C   UNL     1       1.968   8.354  -2.857  0.00  0.00    +0.058 C 
ATOM     26  C   UNL     1       1.789   7.916  -1.401  0.00  0.00    -0.066 C 
ATOM     27  N   UNL     1       0.986   6.675  -1.369  0.00  0.00    +0.384 N 
ATOM     28  H   UNL     1       0.097   6.840  -1.856  0.00  0.00    -0.081 HD
BRANCH  25  29
ATOM     29  C   UNL     1       2.784   9.620  -2.905  0.00  0.00    +0.212 C 
ATOM     30  O   UNL     1       3.182  10.124  -1.876  0.00  0.00    -0.276 OA
ATOM     31  N   UNL     1       3.070  10.193  -4.090  0.00  0.00    -0.329 N 
ATOM     32  H   UNL     1       2.751   9.790  -4.913  0.00  0.00    +0.145 HD
ATOM     33  H   UNL     1       3.595  11.008  -4.121  0.00  0.00    +0.145 HD
ENDBRANCH  25  29
ENDBRANCH  21  27
ENDBRANCH   6  21
TORSDOF 4
