REMARK  Name = ZINC40902505
REMARK  5 active torsions:
REMARK  status: ('A' for Active; 'I' for Inactive)
REMARK    1  A    between atoms: C_3  and  C_6
REMARK    2  A    between atoms: C_8  and  C_11
REMARK    3  A    between atoms: C_14  and  N_18
REMARK    4  A    between atoms: C_21  and  C_24
REMARK    5  A    between atoms: C_29  and  N_32
REMARK                            x       y       z     vdW  Elec       q    Type
REMARK                         _______ _______ _______ _____ _____    ______ ____
ROOT
ATOM      1  N   UNL     1      11.145  -0.535  -0.131  0.00  0.00    -0.328 N 
ATOM      2  C   UNL     1      11.849  -0.849   1.119  0.00  0.00    +0.106 C 
ATOM      3  C   UNL     1      13.204  -0.134   1.115  0.00  0.00    +0.031 C 
ATOM      4  C   UNL     1      13.973  -0.514  -0.152  0.00  0.00    +0.078 C 
ATOM      5  C   UNL     1      13.185  -0.063  -1.384  0.00  0.00    +0.031 C 
ATOM      6  C   UNL     1      11.828  -0.783  -1.408  0.00  0.00    +0.106 C 
ENDROOT
BRANCH   4   7
ATOM      7  C   UNL     1      15.321   0.161  -0.143  0.00  0.00    +0.219 C 
ATOM      8  O   UNL     1      15.474   1.215  -0.722  0.00  0.00    -0.275 OA
ATOM      9  N   UNL     1      16.355  -0.408   0.508  0.00  0.00    -0.301 N 
ATOM     10  C   UNL     1      16.214  -1.735   1.122  0.00  0.00    +0.106 C 
ATOM     11  C   UNL     1      16.630  -1.645   2.593  0.00  0.00    +0.004 C 
ATOM     12  C   UNL     1      18.040  -1.055   2.686  0.00  0.00    -0.066 C 
ATOM     13  C   UNL     1      18.044   0.356   2.095  0.00  0.00    +0.004 C 
ATOM     14  C   UNL     1      17.646   0.286   0.613  0.00  0.00    +0.106 C 
BRANCH  12  15
ATOM     15  N   UNL     1      18.455  -0.998   4.094  0.00  0.00    +0.382 N 
ATOM     16  C   UNL     1      19.803  -0.424   4.181  0.00  0.00    -0.078 C 
ATOM     17  C   UNL     1      20.208  -0.287   5.651  0.00  0.00    -0.019 C 
ATOM     18  C   UNL     1      20.196  -1.669   6.309  0.00  0.00    -0.004 C 
ATOM     19  C   UNL     1      18.805  -2.289   6.146  0.00  0.00    -0.019 C 
ATOM     20  C   UNL     1      18.452  -2.353   4.659  0.00  0.00    -0.078 C 
ATOM     21  H   UNL     1      17.810  -0.418   4.610  0.00  0.00    -0.081 HD
ENDBRANCH  12  15
ENDBRANCH   4   7
BRANCH   1  25
ATOM     22  C   UNL     1       7.276   1.012  -0.058  0.00  0.00    +0.025 A 
ATOM     23  C   UNL     1       7.476  -0.367  -0.093  0.00  0.00    +0.013 A 
ATOM     24  C   UNL     1       8.757  -0.876  -0.117  0.00  0.00    +0.027 A 
ATOM     25  C   UNL     1       9.849  -0.017  -0.107  0.00  0.00    +0.065 A 
ATOM     26  C   UNL     1       9.652   1.361  -0.072  0.00  0.00    +0.145 A 
ATOM     27  C   UNL     1       8.371   1.875  -0.054  0.00  0.00    +0.052 A 
ATOM     28  F   UNL     1      10.715   2.195  -0.061  0.00  0.00    -0.204 F 
BRANCH  22  31
ATOM     29  C   UNL     1       3.724   1.637  -0.004  0.00  0.00    +0.265 A 
ATOM     30  N   UNL     1       4.769   0.837  -0.033  0.00  0.00    -0.187 NA
ATOM     31  C   UNL     1       5.898   1.562  -0.031  0.00  0.00    +0.202 A 
ATOM     32  N   UNL     1       5.585   2.836  -0.003  0.00  0.00    -0.056 NA
ATOM     33  O   UNL     1       4.168   2.908   0.010  0.00  0.00    -0.332 OA
BRANCH  29  36
ATOM     34  C   UNL     1      -0.019   1.307   0.028  0.00  0.00    +0.008 A 
ATOM     35  C   UNL     1       1.173   1.995   0.026  0.00  0.00    +0.021 A 
ATOM     36  C   UNL     1       2.317   1.216   0.003  0.00  0.00    +0.077 A 
ATOM     37  S   UNL     1       1.638  -0.432  -0.015  0.00  0.00    -0.092 S 
ATOM     38  C   UNL     1       0.003  -0.047   0.007  0.00  0.00    +0.046 A 
ENDBRANCH  29  36
ENDBRANCH  22  31
ENDBRANCH   1  25
TORSDOF 5
