REMARK  Name = ZINC39931030
REMARK  5 active torsions:
REMARK  status: ('A' for Active; 'I' for Inactive)
REMARK    1  A    between atoms: C_1  and  C_2
REMARK    2  A    between atoms: C_5  and  C_8
REMARK    3  A    between atoms: C_8  and  C_10
REMARK    4  A    between atoms: N_27  and  C_33
REMARK    5  A    between atoms: C_33  and  C_34
REMARK                            x       y       z     vdW  Elec       q    Type
REMARK                         _______ _______ _______ _____ _____    ______ ____
ROOT
ATOM      1  C   UNL     1       0.328  -4.944   1.436  0.00  0.00    +0.105 C 
ATOM      2  C   UNL     1      -0.168  -6.392   1.261  0.00  0.00    +0.125 C 
ATOM      3  C   UNL     1       0.979  -7.251   0.746  0.00  0.00    +0.161 C 
ATOM      4  N   UNL     1       2.014  -7.496   1.744  0.00  0.00    -0.274 NA
ATOM      5  C   UNL     1       2.271  -6.345   2.612  0.00  0.00    +0.178 C 
ATOM      6  C   UNL     1       1.769  -5.069   1.873  0.00  0.00    -0.013 C 
ATOM      7  C   UNL     1       2.800  -4.244   1.745  0.00  0.00    +0.001 A 
ATOM      8  C   UNL     1       2.908  -2.889   1.182  0.00  0.00    +0.010 A 
ATOM      9  C   UNL     1       4.146  -2.328   1.201  0.00  0.00    +0.001 A 
ATOM     10  C   UNL     1       5.274  -2.972   1.719  0.00  0.00    +0.002 A 
ATOM     11  C   UNL     1       5.266  -4.216   2.261  0.00  0.00    +0.026 A 
ATOM     12  C   UNL     1       4.020  -4.907   2.300  0.00  0.00    +0.044 A 
ATOM     13  N   UNL     1       3.711  -6.148   2.816  0.00  0.00    -0.365 N 
ATOM     14  N   UNL     1       0.471  -8.517   0.226  0.00  0.00    -0.265 N 
ATOM     15  C   UNL     1      -0.722  -8.585  -0.389  0.00  0.00    +0.310 C 
ATOM     16  O   UNL     1      -1.069  -9.632  -0.898  0.00  0.00    -0.252 OA
ATOM     17  N   UNL     1      -1.542  -7.522  -0.454  0.00  0.00    -0.240 N 
ATOM     18  C   UNL     1      -1.307  -6.416   0.277  0.00  0.00    +0.228 C 
ATOM     19  O   UNL     1      -2.013  -5.440   0.143  0.00  0.00    -0.275 OA
ATOM     20  H   UNL     1       4.320  -6.789   3.216  0.00  0.00    +0.161 HD
ATOM     21  H   UNL     1       1.804  -8.320   2.288  0.00  0.00    +0.126 HD
ATOM     22  H   UNL     1      -2.316  -7.553  -1.037  0.00  0.00    +0.159 HD
ENDROOT
BRANCH   1  23
ATOM     23  C   UNL     1       0.240  -4.199   0.129  0.00  0.00    +0.171 C 
ATOM     24  O   UNL     1       0.610  -4.730  -0.897  0.00  0.00    -0.291 OA
BRANCH  23  29
ATOM     25  C   UNL     1      -1.849   1.155   0.007  0.00  0.00    +0.044 C 
ATOM     26  C   UNL     1      -1.301  -0.249   0.039  0.00  0.00    -0.050 A 
ATOM     27  C   UNL     1      -0.862  -0.843  -1.132  0.00  0.00    +0.004 A 
ATOM     28  C   UNL     1      -0.360  -2.127  -1.111  0.00  0.00    +0.011 A 
ATOM     29  C   UNL     1      -0.294  -2.829   0.098  0.00  0.00    +0.018 A 
ATOM     30  C   UNL     1      -0.739  -2.220   1.276  0.00  0.00    +0.011 A 
ATOM     31  C   UNL     1      -1.234  -0.934   1.239  0.00  0.00    +0.004 A 
ENDBRANCH  23  29
ENDBRANCH   1  23
BRANCH  14  32
ATOM     32  C   UNL     1       1.274  -9.733   0.375  0.00  0.00    +0.146 C 
BRANCH  32  33
ATOM     33  C   UNL     1       2.265  -9.823  -0.757  0.00  0.00    -0.030 A 
ATOM     34  C   UNL     1       1.979 -10.597  -1.866  0.00  0.00    +0.005 A 
ATOM     35  C   UNL     1       2.888 -10.679  -2.905  0.00  0.00    +0.000 A 
ATOM     36  C   UNL     1       4.082  -9.987  -2.834  0.00  0.00    +0.000 A 
ATOM     37  C   UNL     1       4.368  -9.212  -1.726  0.00  0.00    +0.000 A 
ATOM     38  C   UNL     1       3.457  -9.127  -0.689  0.00  0.00    +0.005 A 
ENDBRANCH  32  33
ENDBRANCH  14  32
TORSDOF 4
