REMARK  Name = ZINC34683757
REMARK  8 active torsions:
REMARK  status: ('A' for Active; 'I' for Inactive)
REMARK    1  A    between atoms: C_1  and  C_2
REMARK    2  A    between atoms: C_5  and  N_8
REMARK    3  A    between atoms: N_8  and  C_9
REMARK    4  A    between atoms: N_8  and  S_26
REMARK    5  A    between atoms: N_12  and  C_15
REMARK    6  A    between atoms: C_15  and  C_16
REMARK    7  A    between atoms: C_20  and  C_22
REMARK    8  A    between atoms: S_26  and  C_29
REMARK                            x       y       z     vdW  Elec       q    Type
REMARK                         _______ _______ _______ _____ _____    ______ ____
ROOT
ATOM      1  N   UNL     1       0.054  -4.155  -0.027  0.00  0.00    -0.200 N 
ENDROOT
BRANCH   1   6
ATOM      2  C   UNL     1      -0.937   1.411   0.418  0.00  0.00    +0.044 C 
ATOM      3  C   UNL     1      -0.673  -0.068   0.300  0.00  0.00    -0.050 A 
ATOM      4  C   UNL     1       0.616  -0.525   0.097  0.00  0.00    +0.005 A 
ATOM      5  C   UNL     1       0.861  -1.880  -0.012  0.00  0.00    +0.025 A 
ATOM      6  C   UNL     1      -0.190  -2.784   0.083  0.00  0.00    +0.052 A 
ATOM      7  C   UNL     1      -1.484  -2.321   0.287  0.00  0.00    +0.025 A 
ATOM      8  C   UNL     1      -1.721  -0.966   0.401  0.00  0.00    +0.005 A 
ENDBRANCH   1   6
BRANCH   1   9
ATOM      9  C   UNL     1       0.731  -4.868   1.059  0.00  0.00    +0.095 C 
ATOM     10  C   UNL     1       2.165  -4.348   1.197  0.00  0.00    +0.006 C 
ATOM     11  C   UNL     1       2.841  -5.040   2.383  0.00  0.00    -0.077 C 
ATOM     12  N   UNL     1       2.094  -4.750   3.613  0.00  0.00    +0.382 N 
ATOM     13  C   UNL     1       0.740  -5.309   3.516  0.00  0.00    -0.077 C 
ATOM     14  C   UNL     1      -0.016  -4.628   2.374  0.00  0.00    +0.006 C 
ATOM     15  H   UNL     1       2.037  -3.752   3.743  0.00  0.00    -0.081 HD
BRANCH  12  16
ATOM     16  C   UNL     1       2.789  -5.351   4.759  0.00  0.00    -0.043 C 
BRANCH  16  17
ATOM     17  C   UNL     1       2.093  -4.953   6.034  0.00  0.00    -0.063 A 
ATOM     18  C   UNL     1       2.471  -3.800   6.697  0.00  0.00    +0.002 A 
ATOM     19  C   UNL     1       1.832  -3.434   7.867  0.00  0.00    +0.001 A 
ATOM     20  C   UNL     1       0.815  -4.221   8.374  0.00  0.00    +0.012 A 
ATOM     21  C   UNL     1       0.436  -5.373   7.711  0.00  0.00    +0.055 A 
ATOM     22  C   UNL     1       1.072  -5.736   6.538  0.00  0.00    +0.014 A 
BRANCH  21  23
ATOM     23  C   UNL     1      -0.673  -6.231   8.263  0.00  0.00    +0.417 C 
ATOM     24  F   UNL     1      -1.159  -5.660   9.444  0.00  0.00    -0.166 F 
ATOM     25  F   UNL     1      -1.708  -6.315   7.326  0.00  0.00    -0.166 F 
ATOM     26  F   UNL     1      -0.182  -7.512   8.532  0.00  0.00    -0.166 F 
ENDBRANCH  21  23
ENDBRANCH  16  17
ENDBRANCH  12  16
ENDBRANCH   1   9
BRANCH   1  27
ATOM     27  S   UNL     1      -0.422  -4.974  -1.385  0.00  0.00    +0.075 S 
ATOM     28  O   UNL     1      -0.709  -6.305  -0.977  0.00  0.00    -0.150 OA
ATOM     29  O   UNL     1      -1.381  -4.155  -2.038  0.00  0.00    -0.150 OA
BRANCH  27  30
ATOM     30  C   UNL     1       0.975  -5.066  -2.455  0.00  0.00    +0.109 A 
ATOM     31  C   UNL     1       1.152  -4.115  -3.442  0.00  0.00    +0.030 A 
ATOM     32  C   UNL     1       2.248  -4.186  -4.282  0.00  0.00    +0.022 A 
ATOM     33  C   UNL     1       3.167  -5.209  -4.134  0.00  0.00    +0.041 A 
ATOM     34  C   UNL     1       2.989  -6.160  -3.146  0.00  0.00    +0.022 A 
ATOM     35  C   UNL     1       1.896  -6.085  -2.303  0.00  0.00    +0.030 A 
ATOM     36 CL   UNL     1       4.543  -5.299  -5.189  0.00  0.00    -0.084 Cl
ENDBRANCH  27  30
ENDBRANCH   1  27
TORSDOF 7
