REMARK  Name = ZINC31881414
REMARK  5 active torsions:
REMARK  status: ('A' for Active; 'I' for Inactive)
REMARK    1  A    between atoms: C_1  and  C_2
REMARK    2  A    between atoms: C_2  and  C_4
REMARK    3  A    between atoms: C_2  and  N_11
REMARK    4  A    between atoms: C_12  and  C_14
REMARK    5  A    between atoms: N_16  and  C_19
REMARK                            x       y       z     vdW  Elec       q    Type
REMARK                         _______ _______ _______ _____ _____    ______ ____
ROOT
ATOM      1  C   UNL     1      -5.722  -1.280   0.024  0.00  0.00    +0.167 A 
ATOM      2  C   UNL     1      -4.853  -0.226   0.028  0.00  0.00    +0.149 A 
ATOM      3  N   UNL     1      -3.607  -0.747   0.017  0.00  0.00    -0.219 N 
ATOM      4  N   UNL     1      -3.752  -2.142   0.001  0.00  0.00    -0.060 NA
ATOM      5  N   UNL     1      -5.009  -2.419   0.012  0.00  0.00    -0.124 NA
ENDROOT
BRANCH   3   6
ATOM      6  C   UNL     1      -2.400  -0.032   0.016  0.00  0.00    +0.071 A 
ATOM      7  C   UNL     1      -2.416   1.357   0.025  0.00  0.00    +0.031 A 
ATOM      8  C   UNL     1      -1.228   2.062   0.019  0.00  0.00    +0.051 A 
ATOM      9  C   UNL     1      -0.017   1.386   0.010  0.00  0.00    +0.162 A 
ATOM     10  C   UNL     1       0.002  -0.004   0.002  0.00  0.00    +0.164 A 
ATOM     11  C   UNL     1      -1.190  -0.711   0.004  0.00  0.00    +0.077 A 
ATOM     12  O   UNL     1       1.181  -0.685  -0.006  0.00  0.00    -0.485 OA
ATOM     13  C   UNL     1       2.347   0.053  -0.387  0.00  0.00    +0.270 C 
ATOM     14  C   UNL     1       2.335   1.391   0.365  0.00  0.00    +0.270 C 
ATOM     15  O   UNL     1       1.144   2.098   0.002  0.00  0.00    -0.485 OA
ENDBRANCH   3   6
BRANCH   1  17
ATOM     16  N   UNL     1      -7.943  -2.304   0.028  0.00  0.00    -0.303 N 
ATOM     17  C   UNL     1      -7.194  -1.184   0.032  0.00  0.00    +0.266 C 
ATOM     18  O   UNL     1      -7.732  -0.093   0.043  0.00  0.00    -0.268 OA
ATOM     19  H   UNL     1      -7.456  -3.291   0.018  0.00  0.00    +0.150 HD
BRANCH  16  21
ATOM     20  C   UNL     1      -9.912  -2.039  -1.397  0.00  0.00    +0.033 C 
ATOM     21  C   UNL     1      -9.404  -2.209   0.036  0.00  0.00    +0.100 C 
BRANCH  21  22
ATOM     22  C   UNL     1      -9.987  -3.465   0.630  0.00  0.00    -0.027 A 
ATOM     23  C   UNL     1      -9.437  -4.695   0.320  0.00  0.00    +0.006 A 
ATOM     24  C   UNL     1      -9.967  -5.848   0.869  0.00  0.00    +0.015 A 
ATOM     25  C   UNL     1     -11.056  -5.771   1.719  0.00  0.00    +0.018 A 
ATOM     26  C   UNL     1     -11.609  -4.540   2.024  0.00  0.00    +0.015 A 
ATOM     27  C   UNL     1     -11.075  -3.388   1.480  0.00  0.00    +0.006 A 
ATOM     28 BR   UNL     1     -11.787  -7.348   2.465  0.00  0.00    -0.050 Br
ENDBRANCH  21  22
ENDBRANCH  16  21
ENDBRANCH   1  17
TORSDOF 4
