REMARK  Name = ZINC13064946
REMARK  12 active torsions:
REMARK  status: ('A' for Active; 'I' for Inactive)
REMARK    1  A    between atoms: C_1  and  C_2
REMARK    2  A    between atoms: C_2  and  C_3
REMARK    3  A    between atoms: C_3  and  C_5
REMARK    4  A    between atoms: C_3  and  N_70
REMARK    5  A    between atoms: N_9  and  C_10
REMARK    6  A    between atoms: C_10  and  C_11
REMARK    7  A    between atoms: C_18  and  C_19
REMARK    8  A    between atoms: C_18  and  N_70
REMARK    9  A    between atoms: C_22  and  C_32
REMARK   10  A    between atoms: C_24  and  C_31
REMARK   11  A    between atoms: C_33  and  C_34
REMARK   12  A    between atoms: C_33  and  N_70
REMARK                            x       y       z     vdW  Elec       q    Type
REMARK                         _______ _______ _______ _____ _____    ______ ____
ROOT
ATOM      1  N   UNL     1       3.644  -0.990   0.663  0.00  0.00    +0.391 N 
ATOM      2  H   UNL     1       3.680  -2.009   0.783  0.00  0.00    -0.080 HD
ENDROOT
BRANCH   1   3
ATOM      3  C   UNL     1       2.252  -0.533   0.856  0.00  0.00    +0.003 C 
BRANCH   3   4
ATOM      4  C   UNL     1       2.122   0.927   0.505  0.00  0.00    +0.138 A 
ATOM      5  N   UNL     1       2.758   1.563  -0.448  0.00  0.00    -0.115 NA
ATOM      6  N   UNL     1       2.380   2.795  -0.426  0.00  0.00    -0.023 NA
ATOM      7  N   UNL     1       1.516   2.960   0.513  0.00  0.00    -0.044 NA
ATOM      8  N   UNL     1       1.327   1.831   1.108  0.00  0.00    -0.226 N 
BRANCH   8   9
ATOM      9  C   UNL     1       0.423   1.581   2.233  0.00  0.00    +0.182 C 
BRANCH   9  10
ATOM     10  C   UNL     1      -0.974   1.354   1.714  0.00  0.00    -0.026 A 
ATOM     11  C   UNL     1      -1.837   2.424   1.565  0.00  0.00    +0.008 A 
ATOM     12  C   UNL     1      -3.116   2.218   1.085  0.00  0.00    +0.038 A 
ATOM     13  C   UNL     1      -3.537   0.939   0.763  0.00  0.00    +0.123 A 
ATOM     14  C   UNL     1      -2.674  -0.132   0.918  0.00  0.00    +0.038 A 
ATOM     15  C   UNL     1      -1.393   0.076   1.393  0.00  0.00    +0.008 A 
ATOM     16  F   UNL     1      -4.789   0.736   0.298  0.00  0.00    -0.205 F 
ENDBRANCH   9  10
ENDBRANCH   8   9
ENDBRANCH   3   4
BRANCH   3  18
ATOM     17  C   UNL     1       1.371  -2.824   0.389  0.00  0.00    +0.002 C 
ATOM     18  C   UNL     1       1.332  -1.358  -0.047  0.00  0.00    -0.011 C 
ENDBRANCH   3  18
ENDBRANCH   1   3
BRANCH   1  19
ATOM     19  C   UNL     1       4.527  -0.357   1.666  0.00  0.00    -0.036 C 
BRANCH  19  20
ATOM     20  C   UNL     1       4.480  -1.175   2.931  0.00  0.00    +0.001 A 
ATOM     21  C   UNL     1       5.405  -2.144   3.143  0.00  0.00    +0.017 A 
ATOM     22  C   UNL     1       5.335  -2.918   4.384  0.00  0.00    +0.002 A 
ATOM     23  C   UNL     1       6.265  -3.926   4.661  0.00  0.00    -0.041 A 
ATOM     24  C   UNL     1       6.169  -4.634   5.825  0.00  0.00    +0.007 A 
ATOM     25  C   UNL     1       5.158  -4.361   6.737  0.00  0.00    -0.048 A 
ATOM     26  C   UNL     1       4.232  -3.372   6.485  0.00  0.00    +0.029 A 
ATOM     27  C   UNL     1       4.309  -2.639   5.305  0.00  0.00    +0.050 A 
ATOM     28  N   UNL     1       3.396  -1.643   5.028  0.00  0.00    -0.322 N 
ATOM     29  H   UNL     1       2.689  -1.452   5.664  0.00  0.00    +0.169 HD
ATOM     30  C   UNL     1       3.471  -0.934   3.888  0.00  0.00    +0.251 A 
ATOM     31  O   UNL     1       2.647  -0.062   3.675  0.00  0.00    -0.268 OA
ATOM     32  C   UNL     1       5.072  -5.154   8.016  0.00  0.00    +0.044 C 
ATOM     33  C   UNL     1       7.366  -4.231   3.679  0.00  0.00    +0.044 C 
ENDBRANCH  19  20
ENDBRANCH   1  19
BRANCH   1  34
ATOM     34  C   UNL     1       4.104  -0.649  -0.700  0.00  0.00    -0.045 C 
BRANCH  34  35
ATOM     35  C   UNL     1       5.364  -1.460  -1.010  0.00  0.00    +0.102 C 
ATOM     36  C   UNL     1       5.921  -1.078  -2.399  0.00  0.00    +0.032 C 
ATOM     37  C   UNL     1       6.436  -2.415  -2.978  0.00  0.00    +0.030 C 
ATOM     38  C   UNL     1       6.129  -3.446  -1.870  0.00  0.00    +0.160 C 
ATOM     39  O   UNL     1       5.044  -2.865  -1.114  0.00  0.00    -0.378 OA
ENDBRANCH  34  35
ENDBRANCH   1  34
TORSDOF 9
