REMARK  Name = ZINC67305334
REMARK  3 active torsions:
REMARK  status: ('A' for Active; 'I' for Inactive)
REMARK    1  A    between atoms: C_4  and  N_6
REMARK    2  A    between atoms: C_9  and  N_12
REMARK    3  A    between atoms: C_13  and  C_15
REMARK                            x       y       z     vdW  Elec       q    Type
REMARK                         _______ _______ _______ _____ _____    ______ ____
ROOT
ATOM      1  N   UNL     1       3.238  -3.739  -3.301  0.00  0.00    -0.314 N 
ATOM      2  C   UNL     1       3.391  -4.633  -4.298  0.00  0.00    +0.216 C 
ATOM      3  O   UNL     1       2.604  -4.653  -5.221  0.00  0.00    -0.276 OA
ATOM      4  H   UNL     1       3.867  -3.722  -2.563  0.00  0.00    +0.149 HD
ENDROOT
BRANCH   2   5
ATOM      5  C   UNL     1       4.540  -5.607  -4.266  0.00  0.00    +0.075 C 
ATOM      6  C   UNL     1       5.861  -4.837  -4.252  0.00  0.00    +0.015 C 
ATOM      7  C   UNL     1       7.028  -5.827  -4.208  0.00  0.00    +0.036 C 
ATOM      8  C   UNL     1       6.966  -6.741  -5.427  0.00  0.00    +0.112 C 
ATOM      9  C   UNL     1       5.644  -7.500  -5.466  0.00  0.00    +0.036 C 
ATOM     10  C   UNL     1       4.483  -6.503  -5.505  0.00  0.00    +0.015 C 
ATOM     11  C   UNL     1       8.129  -7.706  -5.423  0.00  0.00    +0.244 C 
ATOM     12  O   UNL     1       8.383  -8.546  -4.587  0.00  0.00    -0.273 OA
ATOM     13  N   UNL     1       8.825  -7.436  -6.547  0.00  0.00    -0.238 N 
ATOM     14  C   UNL     1       8.263  -6.444  -7.249  0.00  0.00    +0.307 C 
ATOM     15  O   UNL     1       8.707  -6.023  -8.299  0.00  0.00    -0.252 OA
ATOM     16  N   UNL     1       7.150  -5.966  -6.661  0.00  0.00    -0.285 N 
ATOM     17  H   UNL     1       9.632  -7.903  -6.814  0.00  0.00    +0.159 HD
ATOM     18  H   UNL     1       6.582  -5.250  -6.987  0.00  0.00    +0.151 HD
ENDBRANCH   2   5
BRANCH   1  22
ATOM     19  N   UNL     1       1.136  -1.209  -1.825  0.00  0.00    +0.383 N 
ATOM     20  C   UNL     1       0.523  -2.522  -1.495  0.00  0.00    -0.077 C 
ATOM     21  C   UNL     1       0.864  -3.424  -2.700  0.00  0.00    +0.002 C 
ATOM     22  C   UNL     1       2.121  -2.791  -3.332  0.00  0.00    +0.055 C 
ATOM     23  C   UNL     1       2.434  -1.560  -2.455  0.00  0.00    -0.056 C 
ATOM     24  H   UNL     1       0.554  -0.700  -2.474  0.00  0.00    -0.081 HD
BRANCH  19  28
ATOM     25  C   UNL     1      -0.019   1.538   0.011  0.00  0.00    -0.002 C 
ATOM     26  C   UNL     1       1.477   1.939  -0.002  0.00  0.00    -0.002 C 
ATOM     27  C   UNL     1       2.107   0.881  -0.942  0.00  0.00    -0.015 C 
ATOM     28  C   UNL     1       1.353  -0.422  -0.604  0.00  0.00    -0.069 C 
ATOM     29  C   UNL     1       0.002  -0.004   0.002  0.00  0.00    -0.015 C 
ENDBRANCH  19  28
ENDBRANCH   1  22
TORSDOF 3
