REMARK  Name = ZINC15955371
REMARK  7 active torsions:
REMARK  status: ('A' for Active; 'I' for Inactive)
REMARK    1  A    between atoms: C_1  and  C_2
REMARK    2  A    between atoms: C_2  and  O_3
REMARK    3  A    between atoms: O_3  and  C_4
REMARK    4  A    between atoms: C_7  and  C_12
REMARK    5  A    between atoms: C_9  and  O_10
REMARK    6  A    between atoms: O_10  and  C_11
REMARK    7  A    between atoms: N_31  and  C_34
REMARK                            x       y       z     vdW  Elec       q    Type
REMARK                         _______ _______ _______ _____ _____    ______ ____
ROOT
ATOM      1  C   UNL     1      -2.571   1.245   0.015  0.00  0.00    +0.154 C 
ATOM      2  C   UNL     1      -1.307   2.069  -0.079  0.00  0.00    +0.046 A 
ATOM      3  C   UNL     1      -1.289   3.418  -0.003  0.00  0.00    -0.015 A 
ATOM      4  C   UNL     1       0.092   3.831  -0.147  0.00  0.00    +0.003 A 
ATOM      5  C   UNL     1       0.709   5.086  -0.155  0.00  0.00    +0.010 A 
ATOM      6  C   UNL     1       2.073   5.105  -0.313  0.00  0.00    +0.001 A 
ATOM      7  C   UNL     1       2.813   3.944  -0.460  0.00  0.00    +0.002 A 
ATOM      8  C   UNL     1       2.228   2.689  -0.456  0.00  0.00    +0.026 A 
ATOM      9  C   UNL     1       0.845   2.639  -0.297  0.00  0.00    +0.047 A 
ATOM     10  N   UNL     1      -0.033   1.595  -0.248  0.00  0.00    -0.356 N 
ATOM     11  H   UNL     1       0.208   0.658  -0.325  0.00  0.00    +0.166 HD
ATOM     12  C   UNL     1      -2.508   4.282   0.197  0.00  0.00    +0.069 C 
ATOM     13  C   UNL     1      -3.760   3.459  -0.146  0.00  0.00    +0.167 C 
ATOM     14  N   UNL     1      -3.650   2.142   0.479  0.00  0.00    -0.276 N 
ATOM     15  C   UNL     1      -4.471   1.721   1.444  0.00  0.00    +0.234 C 
ATOM     16  O   UNL     1      -4.249   0.638   1.943  0.00  0.00    -0.274 OA
ATOM     17  C   UNL     1      -5.625   2.507   1.975  0.00  0.00    +0.204 C 
ATOM     18  N   UNL     1      -5.795   3.767   1.272  0.00  0.00    -0.288 N 
ATOM     19  C   UNL     1      -4.971   4.202   0.320  0.00  0.00    +0.237 C 
ATOM     20  O   UNL     1      -5.218   5.269  -0.201  0.00  0.00    -0.274 OA
ENDROOT
BRANCH  18  21
ATOM     21  C   UNL     1      -6.940   4.608   1.630  0.00  0.00    +0.077 C 
ATOM     22  C   UNL     1      -6.850   4.989   3.109  0.00  0.00    +0.022 C 
ATOM     23  C   UNL     1      -7.790   6.162   3.392  0.00  0.00    +0.002 C 
ATOM     24  C   UNL     1      -7.656   7.204   2.280  0.00  0.00    +0.000 C 
ATOM     25  C   UNL     1      -8.958   7.266   1.479  0.00  0.00    +0.000 C 
ATOM     26  C   UNL     1      -9.043   6.053   0.551  0.00  0.00    +0.000 C 
ATOM     27  C   UNL     1      -9.416   4.813   1.367  0.00  0.00    +0.002 C 
ATOM     28  C   UNL     1      -8.237   3.837   1.380  0.00  0.00    +0.022 C 
ENDBRANCH  18  21
BRANCH   1  32
ATOM     29  C   UNL     1      -3.559  -0.346  -3.830  0.00  0.00    +0.162 A 
ATOM     30  C   UNL     1      -4.337   0.654  -3.270  0.00  0.00    +0.050 A 
ATOM     31  C   UNL     1      -4.019   1.162  -2.024  0.00  0.00    +0.009 A 
ATOM     32  C   UNL     1      -2.917   0.683  -1.340  0.00  0.00    -0.018 A 
ATOM     33  C   UNL     1      -2.136  -0.315  -1.893  0.00  0.00    +0.055 A 
ATOM     34  C   UNL     1      -2.453  -0.832  -3.139  0.00  0.00    +0.162 A 
BRANCH  34  35
ATOM     35  O   UNL     1      -1.686  -1.814  -3.684  0.00  0.00    -0.491 OA
ATOM     36  C   UNL     1      -0.568  -2.265  -2.917  0.00  0.00    +0.277 C 
ENDBRANCH  34  35
BRANCH  29  37
ATOM     37  O   UNL     1      -3.874  -0.851  -5.053  0.00  0.00    -0.489 OA
BRANCH  37  39
ATOM     38  C   UNL     1      -5.217  -0.992  -7.057  0.00  0.00    +0.048 C 
ATOM     39  C   UNL     1      -5.022  -0.304  -5.704  0.00  0.00    +0.226 C 
ENDBRANCH  37  39
ENDBRANCH  29  37
ENDBRANCH   1  32
TORSDOF 5
