REMARK  Name = ZINC09111049
REMARK  6 active torsions:
REMARK  status: ('A' for Active; 'I' for Inactive)
REMARK    1  A    between atoms: C_1  and  C_2
REMARK    2  A    between atoms: C_5  and  S_8
REMARK    3  A    between atoms: S_8  and  N_11
REMARK    4  A    between atoms: N_11  and  C_12
REMARK    5  A    between atoms: C_17  and  C_28
REMARK    6  A    between atoms: C_20  and  C_22
REMARK                            x       y       z     vdW  Elec       q    Type
REMARK                         _______ _______ _______ _____ _____    ______ ____
ROOT
ATOM      1  C   UNL     1       1.978  -6.356  -0.043  0.00  0.00    +0.255 A 
ATOM      2  N   UNL     1       3.219  -6.853  -0.048  0.00  0.00    -0.293 N 
ATOM      3  C   UNL     1       3.170  -8.162  -0.059  0.00  0.00    +0.228 A 
ATOM      4  N   UNL     1       1.851  -8.526  -0.053  0.00  0.00    -0.221 N 
ATOM      5  N   UNL     1       1.111  -7.349  -0.044  0.00  0.00    -0.130 NA
ATOM      6  C   UNL     1       1.419  -9.924  -0.045  0.00  0.00    +0.147 C 
ATOM      7  C   UNL     1       2.492 -10.756  -0.756  0.00  0.00    +0.087 C 
ATOM      8  C   UNL     1       3.871 -10.329  -0.340  0.00  0.00    +0.055 C 
ATOM      9  N   UNL     1       4.165  -9.089  -0.052  0.00  0.00    -0.217 NA
ATOM     10  H   UNL     1       4.033  -6.324  -0.043  0.00  0.00    +0.172 HD
ENDROOT
BRANCH   6  11
ATOM     11  C   UNL     1       0.106 -10.055  -0.773  0.00  0.00    -0.023 A 
ATOM     12  C   UNL     1       0.015  -9.694  -2.104  0.00  0.00    +0.007 A 
ATOM     13  C   UNL     1      -1.189  -9.813  -2.772  0.00  0.00    +0.020 A 
ATOM     14  C   UNL     1      -2.304 -10.294  -2.109  0.00  0.00    +0.041 A 
ATOM     15  C   UNL     1      -2.212 -10.655  -0.776  0.00  0.00    +0.020 A 
ATOM     16  C   UNL     1      -1.006 -10.541  -0.111  0.00  0.00    +0.007 A 
ATOM     17 CL   UNL     1      -3.816 -10.444  -2.947  0.00  0.00    -0.084 Cl
ENDBRANCH   6  11
BRANCH   8  18
ATOM     18  C   UNL     1       4.931 -11.346  -0.253  0.00  0.00    -0.004 A 
ATOM     19  C   UNL     1       4.650 -12.681  -0.560  0.00  0.00    +0.010 A 
ATOM     20  C   UNL     1       5.649 -13.628  -0.476  0.00  0.00    +0.001 A 
ATOM     21  C   UNL     1       6.926 -13.260  -0.089  0.00  0.00    +0.000 A 
ATOM     22  C   UNL     1       7.211 -11.941   0.216  0.00  0.00    +0.001 A 
ATOM     23  C   UNL     1       6.225 -10.981   0.131  0.00  0.00    +0.010 A 
ENDBRANCH   8  18
BRANCH   1  24
ATOM     24  N   UNL     1       1.651  -4.999  -0.034  0.00  0.00    -0.058 NA
BRANCH  24  25
ATOM     25  S   UNL     1       0.063  -4.530  -0.023  0.00  0.00    +0.094 S 
ATOM     26  O   UNL     1      -0.476  -4.950   1.223  0.00  0.00    -0.148 OA
ATOM     27  O   UNL     1      -0.490  -4.937  -1.267  0.00  0.00    -0.148 OA
BRANCH  25  32
ATOM     28  C   UNL     1      -0.018   1.503   0.010  0.00  0.00    +0.044 C 
ATOM     29  C   UNL     1       0.002  -0.004   0.002  0.00  0.00    -0.050 A 
ATOM     30  C   UNL     1       0.006  -0.689  -1.199  0.00  0.00    +0.005 A 
ATOM     31  C   UNL     1       0.025  -2.071  -1.206  0.00  0.00    +0.029 A 
ATOM     32  C   UNL     1       0.040  -2.768  -0.013  0.00  0.00    +0.110 A 
ATOM     33  C   UNL     1       0.037  -2.084   1.188  0.00  0.00    +0.029 A 
ATOM     34  C   UNL     1       0.023  -0.702   1.195  0.00  0.00    +0.005 A 
ENDBRANCH  25  32
ENDBRANCH  24  25
ENDBRANCH   1  24
TORSDOF 5
