REMARK  Name = ZINC08668216
REMARK  7 active torsions:
REMARK  status: ('A' for Active; 'I' for Inactive)
REMARK    1  A    between atoms: C_1  and  C_2
REMARK    2  A    between atoms: C_2  and  C_4
REMARK    3  A    between atoms: C_2  and  O_18
REMARK    4  A    between atoms: C_9  and  C_12
REMARK    5  A    between atoms: O_18  and  C_19
REMARK    6  A    between atoms: C_19  and  C_21
REMARK    7  A    between atoms: N_30  and  C_32
REMARK                            x       y       z     vdW  Elec       q    Type
REMARK                         _______ _______ _______ _____ _____    ______ ____
ROOT
ATOM      1  C   UNL     1       1.451  -0.686  -0.016  0.00  0.00    +0.361 C 
ATOM      2  O   UNL     1       2.338  -0.014  -0.503  0.00  0.00    -0.243 OA
ENDROOT
BRANCH   1   3
ATOM      3  C   UNL     1       1.328  -2.112  -0.370  0.00  0.00    +0.176 A 
ATOM      4  C   UNL     1       2.275  -2.731  -1.313  0.00  0.00    +0.021 A 
ATOM      5  C   UNL     1       3.314  -2.024  -1.909  0.00  0.00    +0.011 A 
ATOM      6  C   UNL     1       4.161  -2.674  -2.781  0.00  0.00    +0.001 A 
ATOM      7  C   UNL     1       3.987  -4.021  -3.071  0.00  0.00    +0.001 A 
ATOM      8  C   UNL     1       2.963  -4.740  -2.491  0.00  0.00    +0.014 A 
ATOM      9  C   UNL     1       2.098  -4.103  -1.607  0.00  0.00    +0.051 A 
ATOM     10  C   UNL     1       0.983  -4.793  -0.945  0.00  0.00    +0.280 A 
ATOM     11  O   UNL     1       0.771  -5.973  -1.151  0.00  0.00    -0.265 OA
ATOM     12  N   UNL     1       0.199  -4.087  -0.104  0.00  0.00    -0.196 N 
ATOM     13  N   UNL     1       0.377  -2.847   0.155  0.00  0.00    -0.156 NA
BRANCH  12  14
ATOM     14  C   UNL     1      -0.862  -4.749   0.524  0.00  0.00    +0.069 A 
ATOM     15  C   UNL     1      -1.740  -5.524  -0.225  0.00  0.00    +0.028 A 
ATOM     16  C   UNL     1      -2.782  -6.181   0.399  0.00  0.00    +0.002 A 
ATOM     17  C   UNL     1      -2.960  -6.059   1.765  0.00  0.00    +0.000 A 
ATOM     18  C   UNL     1      -2.092  -5.283   2.512  0.00  0.00    +0.002 A 
ATOM     19  C   UNL     1      -1.044  -4.629   1.896  0.00  0.00    +0.028 A 
ENDBRANCH  12  14
ENDBRANCH   1   3
BRANCH   1  20
ATOM     20  O   UNL     1       0.580  -0.129   0.848  0.00  0.00    -0.448 OA
BRANCH  20  22
ATOM     21  C   UNL     1      -0.042   2.122   0.157  0.00  0.00    +0.062 C 
ATOM     22  C   UNL     1       0.761   1.280   1.150  0.00  0.00    +0.259 C 
BRANCH  22  23
ATOM     23  C   UNL     1       0.280   1.559   2.550  0.00  0.00    +0.259 C 
ATOM     24  O   UNL     1      -0.172   0.660   3.227  0.00  0.00    -0.271 OA
ATOM     25  N   UNL     1       0.351   2.809   3.051  0.00  0.00    -0.262 N 
ATOM     26  C   UNL     1      -0.093   3.066   4.342  0.00  0.00    +0.165 A 
ATOM     27  N   UNL     1      -0.109   4.206   5.008  0.00  0.00    -0.225 NA
ATOM     28  C   UNL     1      -0.573   4.272   6.247  0.00  0.00    +0.080 A 
ATOM     29  C   UNL     1      -1.046   3.138   6.847  0.00  0.00    +0.076 A 
ATOM     30  S   UNL     1      -0.801   1.944   5.539  0.00  0.00    -0.060 S 
ATOM     31  H   UNL     1       0.712   3.528   2.510  0.00  0.00    +0.157 HD
BRANCH  28  32
ATOM     32  C   UNL     1      -0.581   5.564   6.975  0.00  0.00    +0.001 A 
ATOM     33  C   UNL     1      -1.075   5.630   8.277  0.00  0.00    +0.010 A 
ATOM     34  C   UNL     1      -1.075   6.834   8.952  0.00  0.00    +0.001 A 
ATOM     35  C   UNL     1      -0.595   7.975   8.335  0.00  0.00    +0.000 A 
ATOM     36  C   UNL     1      -0.107   7.916   7.042  0.00  0.00    +0.001 A 
ATOM     37  C   UNL     1      -0.098   6.717   6.359  0.00  0.00    +0.010 A 
ENDBRANCH  28  32
ENDBRANCH  22  23
ENDBRANCH  20  22
ENDBRANCH   1  20
TORSDOF 6
