REMARK  Name = ZINC09558854
REMARK  9 active torsions:
REMARK  status: ('A' for Active; 'I' for Inactive)
REMARK    1  A    between atoms: C_1  and  C_2
REMARK    2  A    between atoms: C_5  and  C_38
REMARK    3  A    between atoms: C_6  and  N_8
REMARK    4  A    between atoms: C_21  and  S_22
REMARK    5  A    between atoms: S_22  and  C_23
REMARK    6  A    between atoms: C_23  and  C_24
REMARK    7  A    between atoms: N_26  and  C_27
REMARK    8  A    between atoms: C_32  and  C_37
REMARK    9  A    between atoms: C_34  and  C_36
REMARK                            x       y       z     vdW  Elec       q    Type
REMARK                         _______ _______ _______ _____ _____    ______ ____
ROOT
ATOM      1  N   UNL     1       1.162   3.486   0.010  0.00  0.00    -0.245 N 
ATOM      2  C   UNL     1       1.166   4.144   1.188  0.00  0.00    +0.268 A 
ATOM      3  O   UNL     1       1.184   3.531   2.238  0.00  0.00    -0.267 OA
ATOM      4  C   UNL     1       1.150   5.618   1.182  0.00  0.00    +0.064 A 
ATOM      5  C   UNL     1       1.153   6.346   2.370  0.00  0.00    +0.015 A 
ATOM      6  C   UNL     1       1.137   7.724   2.325  0.00  0.00    +0.001 A 
ATOM      7  C   UNL     1       1.118   8.385   1.107  0.00  0.00    +0.002 A 
ATOM      8  C   UNL     1       1.114   7.675  -0.078  0.00  0.00    +0.027 A 
ATOM      9  C   UNL     1       1.131   6.289  -0.052  0.00  0.00    +0.064 A 
ATOM     10  N   UNL     1       1.127   5.546  -1.226  0.00  0.00    -0.255 N 
ATOM     11  C   UNL     1       1.149   4.176  -1.192  0.00  0.00    +0.245 A 
ATOM     12  N   UNL     1       1.135   3.765  -2.438  0.00  0.00    -0.109 NA
ATOM     13  N   UNL     1       1.116   4.772  -3.236  0.00  0.00    -0.120 NA
ATOM     14  C   UNL     1       1.111   5.890  -2.550  0.00  0.00    +0.198 A 
ENDROOT
BRANCH   1  20
ATOM     15  C   UNL     1      -1.293  -0.774   0.010  0.00  0.00    +0.044 C 
ATOM     16  C   UNL     1       0.002  -0.004   0.002  0.00  0.00    -0.048 A 
ATOM     17  C   UNL     1       1.208  -0.681  -0.013  0.00  0.00    +0.004 A 
ATOM     18  C   UNL     1       2.399   0.022  -0.021  0.00  0.00    +0.005 A 
ATOM     19  C   UNL     1       2.387   1.403  -0.013  0.00  0.00    -0.026 A 
ATOM     20  C   UNL     1       1.178   2.086   0.002  0.00  0.00    +0.056 A 
ATOM     21  C   UNL     1      -0.017   1.377   0.010  0.00  0.00    +0.030 A 
ATOM     22  C   UNL     1       3.685   2.169  -0.020  0.00  0.00    +0.046 C 
ENDBRANCH   1  20
BRANCH  14  23
ATOM     23  S   UNL     1       1.086   7.524  -3.209  0.00  0.00    -0.076 S 
BRANCH  23  24
ATOM     24  C   UNL     1       1.071   7.273  -5.006  0.00  0.00    +0.173 C 
BRANCH  24  25
ATOM     25  C   UNL     1       1.050   8.610  -5.700  0.00  0.00    +0.224 C 
ATOM     26  O   UNL     1       1.045   9.632  -5.047  0.00  0.00    -0.275 OA
ATOM     27  N   UNL     1       1.036   8.670  -7.046  0.00  0.00    -0.312 N 
ATOM     28  H   UNL     1       1.040   7.853  -7.568  0.00  0.00    +0.149 HD
BRANCH  27  29
ATOM     29  C   UNL     1       1.015   9.970  -7.721  0.00  0.00    +0.076 C 
ATOM     30  C   UNL     1      -0.428  10.465  -7.831  0.00  0.00    +0.022 C 
ATOM     31  C   UNL     1      -1.253   9.459  -8.636  0.00  0.00    +0.002 C 
ATOM     32  C   UNL     1      -0.655   9.316 -10.037  0.00  0.00    +0.003 C 
ATOM     33  C   UNL     1       0.789   8.821  -9.928  0.00  0.00    -0.009 C 
ATOM     34  C   UNL     1       1.613   9.827  -9.122  0.00  0.00    +0.009 C 
ATOM     35  C   UNL     1       3.057   9.333  -9.013  0.00  0.00    +0.009 C 
ATOM     36  C   UNL     1       1.386   8.678 -11.329  0.00  0.00    +0.008 C 
ENDBRANCH  27  29
ENDBRANCH  24  25
ENDBRANCH  23  24
ENDBRANCH  14  23
TORSDOF 5
