REMARK  Name = ZINC36065853
REMARK  13 active torsions:
REMARK  status: ('A' for Active; 'I' for Inactive)
REMARK    1  A    between atoms: C_1  and  C_2
REMARK    2  A    between atoms: C_2  and  C_4
REMARK    3  A    between atoms: C_2  and  N_10
REMARK    4  A    between atoms: C_11  and  C_13
REMARK    5  A    between atoms: C_16  and  C_18
REMARK    6  A    between atoms: C_18  and  N_19
REMARK    7  A    between atoms: N_19  and  C_20
REMARK    8  A    between atoms: N_19  and  C_30
REMARK    9  A    between atoms: C_20  and  C_21
REMARK   10  A    between atoms: C_24  and  C_27
REMARK   11  A    between atoms: C_27  and  C_28
REMARK   12  A    between atoms: C_27  and  C_29
REMARK   13  A    between atoms: C_30  and  C_31
REMARK                            x       y       z     vdW  Elec       q    Type
REMARK                         _______ _______ _______ _____ _____    ______ ____
ROOT
ATOM      1  N   UNL     1      -5.930  -4.226  -0.733  0.00  0.00    +0.391 N 
ATOM      2  H   UNL     1      -5.006  -4.566  -0.953  0.00  0.00    -0.080 HD
ENDROOT
BRANCH   1   3
ATOM      3  C   UNL     1      -5.872  -2.780  -0.482  0.00  0.00    +0.020 C 
BRANCH   3   7
ATOM      4  C   UNL     1      -2.998  -2.051   1.599  0.00  0.00    +0.163 A 
ATOM      5  C   UNL     1      -3.964  -2.176   2.550  0.00  0.00    +0.230 A 
ATOM      6  O   UNL     1      -5.111  -2.453   1.909  0.00  0.00    -0.449 OA
ATOM      7  C   UNL     1      -4.856  -2.497   0.594  0.00  0.00    +0.179 A 
ATOM      8  N   UNL     1      -3.596  -2.253   0.394  0.00  0.00    -0.210 NA
BRANCH   4  10
ATOM      9  N   UNL     1      -0.728  -1.647   0.787  0.00  0.00    -0.303 N 
ATOM     10  C   UNL     1      -1.575  -1.747   1.831  0.00  0.00    +0.266 C 
ATOM     11  O   UNL     1      -1.164  -1.588   2.965  0.00  0.00    -0.268 OA
ATOM     12  H   UNL     1      -1.056  -1.774  -0.117  0.00  0.00    +0.150 HD
BRANCH   9  14
ATOM     13  C   UNL     1       0.874   0.169   1.127  0.00  0.00    +0.033 C 
ATOM     14  C   UNL     1       0.687  -1.345   1.018  0.00  0.00    +0.100 C 
BRANCH  14  15
ATOM     15  C   UNL     1       1.506  -1.871  -0.132  0.00  0.00    -0.027 A 
ATOM     16  C   UNL     1       1.038  -1.749  -1.427  0.00  0.00    +0.005 A 
ATOM     17  C   UNL     1       1.790  -2.231  -2.482  0.00  0.00    +0.000 A 
ATOM     18  C   UNL     1       3.010  -2.835  -2.242  0.00  0.00    +0.000 A 
ATOM     19  C   UNL     1       3.479  -2.957  -0.947  0.00  0.00    +0.000 A 
ATOM     20  C   UNL     1       2.729  -2.470   0.107  0.00  0.00    +0.005 A 
ENDBRANCH  14  15
ENDBRANCH   9  14
ENDBRANCH   4  10
ENDBRANCH   3   7
ENDBRANCH   1   3
BRANCH   1  21
ATOM     21  C   UNL     1      -6.831  -4.491  -1.863  0.00  0.00    -0.042 C 
BRANCH  21  22
ATOM     22  C   UNL     1      -6.245  -3.904  -3.121  0.00  0.00    -0.064 A 
ATOM     23  C   UNL     1      -6.637  -2.648  -3.545  0.00  0.00    +0.002 A 
ATOM     24  C   UNL     1      -6.100  -2.109  -4.699  0.00  0.00    +0.004 A 
ATOM     25  C   UNL     1      -5.170  -2.826  -5.429  0.00  0.00    -0.045 A 
ATOM     26  C   UNL     1      -4.778  -4.082  -5.005  0.00  0.00    +0.004 A 
ATOM     27  C   UNL     1      -5.312  -4.619  -3.849  0.00  0.00    +0.002 A 
BRANCH  25  28
ATOM     28  C   UNL     1      -4.586  -2.239  -6.688  0.00  0.00    +0.013 C 
ATOM     29  C   UNL     1      -3.081  -2.034  -6.504  0.00  0.00    +0.012 C 
ATOM     30  C   UNL     1      -4.831  -3.195  -7.858  0.00  0.00    +0.012 C 
ENDBRANCH  25  28
ENDBRANCH  21  22
ENDBRANCH   1  21
BRANCH   1  31
ATOM     31  C   UNL     1      -6.432  -4.911   0.465  0.00  0.00    -0.042 C 
BRANCH  31  32
ATOM     32  C   UNL     1      -6.374  -6.402   0.253  0.00  0.00    -0.060 A 
ATOM     33  C   UNL     1      -7.494  -7.080  -0.190  0.00  0.00    +0.005 A 
ATOM     34  C   UNL     1      -7.446  -8.448  -0.386  0.00  0.00    +0.050 A 
ATOM     35  C   UNL     1      -6.272  -9.142  -0.139  0.00  0.00    +0.166 A 
ATOM     36  C   UNL     1      -5.144  -8.459   0.306  0.00  0.00    +0.166 A 
ATOM     37  C   UNL     1      -5.198  -7.088   0.496  0.00  0.00    +0.051 A 
ATOM     38  O   UNL     1      -4.129  -9.356   0.474  0.00  0.00    -0.453 OA
ATOM     39  C   UNL     1      -4.761 -10.649   0.519  0.00  0.00    +0.466 C 
ATOM     40  O   UNL     1      -5.965 -10.467  -0.251  0.00  0.00    -0.453 OA
ENDBRANCH  31  32
ENDBRANCH   1  31
TORSDOF 10
