REMARK  Name = ZINC13495942
REMARK  13 active torsions:
REMARK  status: ('A' for Active; 'I' for Inactive)
REMARK    1  A    between atoms: C_1  and  C_2
REMARK    2  A    between atoms: C_2  and  C_3
REMARK    3  A    between atoms: C_3  and  C_5
REMARK    4  A    between atoms: C_3  and  N_78
REMARK    5  A    between atoms: N_9  and  C_10
REMARK    6  A    between atoms: C_16  and  C_17
REMARK    7  A    between atoms: C_16  and  N_78
REMARK    8  A    between atoms: C_17  and  C_18
REMARK    9  A    between atoms: C_22  and  C_24
REMARK   10  A    between atoms: C_25  and  C_26
REMARK   11  A    between atoms: C_25  and  N_78
REMARK   12  A    between atoms: C_30  and  C_39
REMARK   13  A    between atoms: C_32  and  C_38
REMARK                            x       y       z     vdW  Elec       q    Type
REMARK                         _______ _______ _______ _____ _____    ______ ____
ROOT
ATOM      1  N   UNL     1      -0.334   1.633   0.193  0.00  0.00    +0.389 N 
ATOM      2  H   UNL     1      -0.625   1.933   1.130  0.00  0.00    -0.080 HD
ENDROOT
BRANCH   1   3
ATOM      3  C   UNL     1      -0.163   0.164   0.190  0.00  0.00    +0.003 C 
BRANCH   3   4
ATOM      4  C   UNL     1       0.423  -0.297  -1.119  0.00  0.00    +0.138 A 
ATOM      5  N   UNL     1       1.411   0.262  -1.775  0.00  0.00    -0.115 NA
ATOM      6  N   UNL     1       1.617  -0.426  -2.845  0.00  0.00    -0.023 NA
ATOM      7  N   UNL     1       0.788  -1.409  -2.889  0.00  0.00    -0.044 NA
ATOM      8  N   UNL     1       0.038  -1.367  -1.839  0.00  0.00    -0.228 N 
BRANCH   8   9
ATOM      9  C   UNL     1      -1.034  -2.306  -1.498  0.00  0.00    +0.111 C 
ATOM     10  C   UNL     1      -0.454  -3.716  -1.364  0.00  0.00    +0.027 C 
ATOM     11  C   UNL     1      -1.573  -4.696  -1.008  0.00  0.00    +0.002 C 
ATOM     12  C   UNL     1      -2.633  -4.683  -2.111  0.00  0.00    +0.000 C 
ATOM     13  C   UNL     1      -3.213  -3.273  -2.244  0.00  0.00    +0.002 C 
ATOM     14  C   UNL     1      -2.094  -2.293  -2.601  0.00  0.00    +0.027 C 
ENDBRANCH   8   9
ENDBRANCH   3   4
BRANCH   3  16
ATOM     15  C   UNL     1       0.127   0.139   2.672  0.00  0.00    +0.002 C 
ATOM     16  C   UNL     1       0.775  -0.226   1.334  0.00  0.00    -0.011 C 
ENDBRANCH   3  16
ENDBRANCH   1   3
BRANCH   1  17
ATOM     17  C   UNL     1      -1.375   2.021  -0.782  0.00  0.00    -0.073 C 
BRANCH  17  18
ATOM     18  C   UNL     1      -2.744   1.630  -0.221  0.00  0.00    +0.016 C 
BRANCH  18  19
ATOM     19  C   UNL     1      -3.813   1.955  -1.232  0.00  0.00    -0.049 A 
ATOM     20  C   UNL     1      -4.348   3.228  -1.287  0.00  0.00    +0.003 A 
ATOM     21  C   UNL     1      -5.326   3.527  -2.217  0.00  0.00    +0.001 A 
ATOM     22  C   UNL     1      -5.775   2.551  -3.086  0.00  0.00    +0.003 A 
ATOM     23  C   UNL     1      -5.244   1.276  -3.028  0.00  0.00    -0.050 A 
ATOM     24  C   UNL     1      -4.263   0.978  -2.100  0.00  0.00    +0.007 A 
ATOM     25  C   UNL     1      -5.734   0.211  -3.975  0.00  0.00    +0.044 C 
ENDBRANCH  18  19
ENDBRANCH  17  18
ENDBRANCH   1  17
BRANCH   1  26
ATOM     26  C   UNL     1       0.946   2.290  -0.146  0.00  0.00    -0.037 C 
BRANCH  26  27
ATOM     27  C   UNL     1       0.864   3.741   0.254  0.00  0.00    +0.001 A 
ATOM     28  C   UNL     1       1.308   4.131   1.474  0.00  0.00    +0.017 A 
ATOM     29  C   UNL     1       1.215   5.548   1.832  0.00  0.00    -0.001 A 
ATOM     30  C   UNL     1       1.657   6.010   3.076  0.00  0.00    +0.013 A 
ATOM     31  C   UNL     1       1.557   7.338   3.380  0.00  0.00    -0.050 A 
ATOM     32  C   UNL     1       1.020   8.233   2.465  0.00  0.00    +0.008 A 
ATOM     33  C   UNL     1       0.578   7.800   1.233  0.00  0.00    -0.026 A 
ATOM     34  C   UNL     1       0.670   6.452   0.902  0.00  0.00    +0.052 A 
ATOM     35  N   UNL     1       0.236   5.992  -0.323  0.00  0.00    -0.322 N 
ATOM     36  H   UNL     1      -0.139   6.616  -0.963  0.00  0.00    +0.169 HD
ATOM     37  C   UNL     1       0.331   4.689  -0.645  0.00  0.00    +0.251 A 
ATOM     38  O   UNL     1      -0.058   4.318  -1.739  0.00  0.00    -0.268 OA
ATOM     39  C   UNL     1      -0.003   8.783   0.249  0.00  0.00    +0.046 C 
ATOM     40  C   UNL     1       2.033   7.836   4.720  0.00  0.00    +0.044 C 
ENDBRANCH  26  27
ENDBRANCH   1  26
TORSDOF 9
