REMARK  Name = ZINC07462348
REMARK  7 active torsions:
REMARK  status: ('A' for Active; 'I' for Inactive)
REMARK    1  A    between atoms: C_1  and  C_2
REMARK    2  A    between atoms: C_5  and  O_11
REMARK    3  A    between atoms: C_6  and  N_8
REMARK    4  A    between atoms: O_11  and  C_12
REMARK    5  A    between atoms: C_12  and  C_13
REMARK    6  A    between atoms: N_15  and  C_16
REMARK    7  A    between atoms: C_21  and  C_22
REMARK                            x       y       z     vdW  Elec       q    Type
REMARK                         _______ _______ _______ _____ _____    ______ ____
ROOT
ATOM      1  C   UNL     1       0.083  -6.266  -1.108  0.00  0.00    +0.255 C 
ATOM      2  O   UNL     1       0.088  -6.735   0.010  0.00  0.00    -0.272 OA
ATOM      3  N   UNL     1       0.086  -7.081  -2.182  0.00  0.00    -0.282 N 
ATOM      4  H   UNL     1       0.001  -6.709  -3.073  0.00  0.00    +0.155 HD
ENDROOT
BRANCH   3   5
ATOM      5  C   UNL     1       0.211  -8.462  -2.010  0.00  0.00    +0.041 A 
ATOM      6  C   UNL     1       0.828  -8.970  -0.876  0.00  0.00    +0.024 A 
ATOM      7  C   UNL     1       0.951 -10.335  -0.707  0.00  0.00    +0.002 A 
ATOM      8  C   UNL     1       0.459 -11.204  -1.666  0.00  0.00    +0.001 A 
ATOM      9  C   UNL     1      -0.158 -10.714  -2.799  0.00  0.00    +0.010 A 
ATOM     10  C   UNL     1      -0.292  -9.339  -2.977  0.00  0.00    +0.003 A 
BRANCH  10  11
ATOM     11  C   UNL     1      -0.960  -8.806  -4.190  0.00  0.00    -0.016 A 
ATOM     12  C   UNL     1      -1.964  -7.847  -4.071  0.00  0.00    +0.008 A 
ATOM     13  C   UNL     1      -2.581  -7.355  -5.203  0.00  0.00    +0.001 A 
ATOM     14  C   UNL     1      -2.206  -7.812  -6.454  0.00  0.00    +0.000 A 
ATOM     15  C   UNL     1      -1.210  -8.765  -6.577  0.00  0.00    +0.001 A 
ATOM     16  C   UNL     1      -0.582  -9.260  -5.452  0.00  0.00    +0.008 A 
ENDBRANCH  10  11
ENDBRANCH   3   5
BRANCH   1  17
ATOM     17  C   UNL     1       0.074  -4.771  -1.298  0.00  0.00    +0.325 C 
BRANCH  17  18
ATOM     18  O   UNL     1       0.073  -4.128  -0.021  0.00  0.00    -0.480 OA
BRANCH  18  23
ATOM     19  C   UNL     1       0.038   1.504   0.009  0.00  0.00    +0.044 C 
ATOM     20  C   UNL     1       0.047  -0.003   0.001  0.00  0.00    -0.048 A 
ATOM     21  C   UNL     1       0.050  -0.687  -1.201  0.00  0.00    +0.007 A 
ATOM     22  C   UNL     1       0.058  -2.068  -1.211  0.00  0.00    +0.048 A 
ATOM     23  C   UNL     1       0.065  -2.770  -0.014  0.00  0.00    +0.151 A 
ATOM     24  C   UNL     1       0.063  -2.081   1.190  0.00  0.00    +0.168 A 
ATOM     25  C   UNL     1       0.059  -0.700   1.195  0.00  0.00    +0.039 A 
BRANCH  24  26
ATOM     26  N   UNL     1       0.070  -2.826   2.469  0.00  0.00    +0.060 N 
ATOM     27  O   UNL     1       0.068  -2.226   3.518  0.00  0.00    -0.126 OA
ATOM     28  O   UNL     1       0.076  -4.035   2.465  0.00  0.00    -0.126 OA
ENDBRANCH  24  26
ENDBRANCH  18  23
ENDBRANCH  17  18
ENDBRANCH   1  17
TORSDOF 6
