REMARK  Name = ZINC13347424
REMARK  10 active torsions:
REMARK  status: ('A' for Active; 'I' for Inactive)
REMARK    1  A    between atoms: C_1  and  C_2
REMARK    2  A    between atoms: C_7  and  C_35
REMARK    3  A    between atoms: C_10  and  C_12
REMARK    4  A    between atoms: C_12  and  O_13
REMARK    5  A    between atoms: O_13  and  C_14
REMARK    6  A    between atoms: C_17  and  C_20
REMARK    7  A    between atoms: N_22  and  N_23
REMARK    8  A    between atoms: N_23  and  S_24
REMARK    9  A    between atoms: S_24  and  C_27
REMARK   10  A    between atoms: C_31  and  C_33
REMARK                            x       y       z     vdW  Elec       q    Type
REMARK                         _______ _______ _______ _____ _____    ______ ____
ROOT
ATOM      1  C   UNL     1       2.402   0.051   0.091  0.00  0.00    +0.121 A 
ATOM      2  C   UNL     1       1.207  -0.658   0.109  0.00  0.00    +0.046 A 
ATOM      3  C   UNL     1       0.006   0.015   0.158  0.00  0.00    +0.016 A 
ATOM      4  C   UNL     1      -0.009   1.412   0.189  0.00  0.00    +0.038 A 
ATOM      5  C   UNL     1       1.195   2.121   0.171  0.00  0.00    +0.016 A 
ATOM      6  C   UNL     1       2.392   1.440   0.123  0.00  0.00    +0.046 A 
ENDROOT
BRANCH   4   7
ATOM      7  C   UNL     1      -1.294   2.138   0.235  0.00  0.00    +0.259 C 
ATOM      8  O   UNL     1      -2.341   1.520   0.246  0.00  0.00    -0.269 OA
ATOM      9  N   UNL     1      -1.306   3.485   0.265  0.00  0.00    -0.228 N 
ATOM     10  H   UNL     1      -0.471   3.978   0.257  0.00  0.00    +0.171 HD
BRANCH   9  11
ATOM     11  N   UNL     1      -2.525   4.173   0.309  0.00  0.00    -0.108 NA
ATOM     12  H   UNL     1      -3.200   4.007  -0.368  0.00  0.00    +0.172 HD
BRANCH  11  13
ATOM     13  S   UNL     1      -2.814   5.271   1.515  0.00  0.00    +0.074 S 
ATOM     14  O   UNL     1      -4.053   5.896   1.207  0.00  0.00    -0.152 OA
ATOM     15  O   UNL     1      -2.587   4.593   2.743  0.00  0.00    -0.152 OA
BRANCH  13  16
ATOM     16  C   UNL     1      -1.576   6.518   1.392  0.00  0.00    +0.108 A 
ATOM     17  C   UNL     1      -0.388   6.382   2.088  0.00  0.00    +0.028 A 
ATOM     18  C   UNL     1       0.592   7.354   1.992  0.00  0.00    +0.003 A 
ATOM     19  C   UNL     1       0.386   8.472   1.211  0.00  0.00    +0.015 A 
ATOM     20  C   UNL     1      -0.814   8.618   0.510  0.00  0.00    +0.065 A 
ATOM     21  C   UNL     1      -1.796   7.630   0.607  0.00  0.00    +0.043 A 
BRANCH  20  22
ATOM     22  C   UNL     1      -1.042   9.813  -0.328  0.00  0.00    +0.387 C 
ATOM     23  O   UNL     1      -2.086   9.938  -0.936  0.00  0.00    -0.241 OA
ATOM     24  O   UNL     1      -0.092  10.764  -0.419  0.00  0.00    -0.241 OA
ENDBRANCH  20  22
ENDBRANCH  13  16
ENDBRANCH  11  13
ENDBRANCH   9  11
ENDBRANCH   4   7
BRANCH   1  25
ATOM     25  O   UNL     1       3.583  -0.616   0.044  0.00  0.00    -0.483 OA
BRANCH  25  26
ATOM     26  C   UNL     1       4.774   0.174   0.028  0.00  0.00    +0.324 C 
BRANCH  26  34
ATOM     27  C   UNL     1       8.073   1.579  -1.495  0.00  0.00    +0.028 C 
ATOM     28  C   UNL     1       7.411   1.248  -0.156  0.00  0.00    +0.073 C 
ATOM     29  C   UNL     1       8.316   1.706   0.998  0.00  0.00    +0.022 C 
ATOM     30  C   UNL     1       9.614   0.895   0.974  0.00  0.00    +0.004 C 
ATOM     31  C   UNL     1       9.295  -0.588   1.173  0.00  0.00    +0.022 C 
ATOM     32  C   UNL     1       8.401  -1.072   0.026  0.00  0.00    +0.073 C 
ATOM     33  N   UNL     1       7.217  -0.205  -0.049  0.00  0.00    -0.293 N 
ATOM     34  C   UNL     1       5.977  -0.732  -0.026  0.00  0.00    +0.254 C 
ATOM     35  O   UNL     1       5.829  -1.936  -0.048  0.00  0.00    -0.272 OA
ATOM     36  C   UNL     1       7.964  -2.514   0.290  0.00  0.00    +0.028 C 
ENDBRANCH  26  34
ENDBRANCH  25  26
ENDBRANCH   1  25
TORSDOF 8
