REMARK  Name = ZINC13801394
REMARK  11 active torsions:
REMARK  status: ('A' for Active; 'I' for Inactive)
REMARK    1  A    between atoms: C_1  and  C_2
REMARK    2  A    between atoms: C_5  and  O_26
REMARK    3  A    between atoms: C_6  and  C_8
REMARK    4  A    between atoms: N_9  and  C_10
REMARK    5  A    between atoms: C_11  and  C_19
REMARK    6  A    between atoms: C_18  and  N_53
REMARK    7  A    between atoms: C_19  and  O_21
REMARK    8  A    between atoms: O_21  and  C_22
REMARK    9  A    between atoms: C_22  and  C_23
REMARK   10  A    between atoms: C_22  and  C_24
REMARK   11  A    between atoms: C_22  and  C_25
REMARK                            x       y       z     vdW  Elec       q    Type
REMARK                         _______ _______ _______ _____ _____    ______ ____
ROOT
ATOM      1  C   UNL     1       2.303   1.622   1.316  0.00  0.00    +0.115 A 
ATOM      2  C   UNL     1       1.835   1.902   0.025  0.00  0.00    +0.095 A 
ATOM      3  C   UNL     1       2.691   1.663  -1.063  0.00  0.00    -0.025 A 
ATOM      4  C   UNL     1       3.922   1.165  -0.781  0.00  0.00    -0.021 A 
ATOM      5  S   UNL     1       3.948   1.011   0.984  0.00  0.00    -0.075 S 
ATOM      6  C   UNL     1       4.998   0.830  -1.764  0.00  0.00    -0.036 C 
ATOM      7  C   UNL     1       3.586   1.991  -3.350  0.00  0.00    -0.074 C 
ATOM      8  C   UNL     1       2.304   1.935  -2.515  0.00  0.00    +0.018 C 
ATOM      9  C   UNL     1       5.432   0.640  -4.143  0.00  0.00    -0.096 C 
ATOM     10  N   UNL     1       4.381   0.770  -3.111  0.00  0.00    +0.381 N 
ATOM     11  H   UNL     1       3.763  -0.047  -3.159  0.00  0.00    -0.082 HD
ENDROOT
BRANCH   1  13
ATOM     12  C   UNL     1       2.252   2.434   3.469  0.00  0.00    +0.123 C 
ATOM     13  N   UNL     1       1.673   1.772   2.501  0.00  0.00    -0.247 NA
BRANCH  12  19
ATOM     14  C   UNL     1       5.295   4.777   0.294  0.00  0.00    +0.044 C 
ATOM     15  C   UNL     1       4.968   4.304   1.687  0.00  0.00    -0.050 A 
ATOM     16  C   UNL     1       5.843   4.568   2.728  0.00  0.00    +0.007 A 
ATOM     17  C   UNL     1       5.556   4.141   4.010  0.00  0.00    +0.046 A 
ATOM     18  C   UNL     1       4.386   3.443   4.265  0.00  0.00    +0.125 A 
ATOM     19  C   UNL     1       3.494   3.173   3.213  0.00  0.00    +0.035 A 
ATOM     20  C   UNL     1       3.802   3.607   1.919  0.00  0.00    +0.016 A 
BRANCH  18  21
ATOM     21  O   UNL     1       4.102   3.023   5.523  0.00  0.00    -0.506 OA
ATOM     22  H   UNL     1       4.373   2.112   5.704  0.00  0.00    +0.292 HD
ENDBRANCH  18  21
ENDBRANCH  12  19
ENDBRANCH   1  13
BRANCH   2  23
ATOM     23  C   UNL     1       0.487   2.438  -0.185  0.00  0.00    +0.343 C 
ATOM     24  O   UNL     1      -0.449   1.680  -0.353  0.00  0.00    -0.245 OA
BRANCH  23  25
ATOM     25  O   UNL     1       0.286   3.771  -0.198  0.00  0.00    -0.455 OA
BRANCH  25  26
ATOM     26  C   UNL     1      -1.074   4.231  -0.417  0.00  0.00    +0.106 C 
ATOM     27  C   UNL     1      -1.980   3.688   0.690  0.00  0.00    +0.055 C 
ATOM     28  C   UNL     1      -1.105   5.760  -0.398  0.00  0.00    +0.055 C 
ATOM     29  C   UNL     1      -1.569   3.728  -1.774  0.00  0.00    +0.055 C 
ENDBRANCH  25  26
ENDBRANCH  23  25
ENDBRANCH   2  23
TORSDOF 6
