REMARK  Name = ZINC13499184
REMARK  16 active torsions:
REMARK  status: ('A' for Active; 'I' for Inactive)
REMARK    1  A    between atoms: C_1  and  C_2
REMARK    2  A    between atoms: C_2  and  O_3
REMARK    3  A    between atoms: O_3  and  C_4
REMARK    4  A    between atoms: C_4  and  C_6
REMARK    5  A    between atoms: C_6  and  N_7
REMARK    6  A    between atoms: C_8  and  C_12
REMARK    7  A    between atoms: C_12  and  C_14
REMARK    8  A    between atoms: C_12  and  N_17
REMARK    9  A    between atoms: C_14  and  C_15
REMARK   10  A    between atoms: C_14  and  C_16
REMARK   11  A    between atoms: N_17  and  C_18
REMARK   12  A    between atoms: N_17  and  C_25
REMARK   13  A    between atoms: C_18  and  C_19
REMARK   14  A    between atoms: C_25  and  C_26
REMARK   15  A    between atoms: C_29  and  C_39
REMARK   16  A    between atoms: C_32  and  C_38
REMARK                            x       y       z     vdW  Elec       q    Type
REMARK                         _______ _______ _______ _____ _____    ______ ____
ROOT
ATOM      1  N   UNL     1      -4.140  -5.086  -2.945  0.00  0.00    -0.284 NA
ENDROOT
BRANCH   1   2
ATOM      2  C   UNL     1      -3.365  -3.946  -2.438  0.00  0.00    +0.130 C 
BRANCH   2   4
ATOM      3  N   UNL     1      -0.820  -3.797  -2.488  0.00  0.00    -0.217 N 
ATOM      4  C   UNL     1      -2.012  -3.924  -3.100  0.00  0.00    +0.169 A 
ATOM      5  N   UNL     1      -1.766  -4.026  -4.384  0.00  0.00    -0.112 NA
ATOM      6  N   UNL     1      -0.490  -3.965  -4.551  0.00  0.00    -0.023 NA
ATOM      7  N   UNL     1       0.085  -3.821  -3.408  0.00  0.00    -0.043 NA
BRANCH   3   8
ATOM      8  C   UNL     1      -0.592  -3.653  -1.048  0.00  0.00    +0.267 C 
BRANCH   8   9
ATOM      9  C   UNL     1      -0.417  -2.195  -0.711  0.00  0.00    +0.329 C 
ATOM     10  O   UNL     1      -0.351  -1.374  -1.595  0.00  0.00    -0.249 OA
BRANCH   9  11
ATOM     11  O   UNL     1      -0.333  -1.808   0.572  0.00  0.00    -0.464 OA
BRANCH  11  13
ATOM     12  C   UNL     1      -0.091  -0.163   2.326  0.00  0.00    +0.048 C 
ATOM     13  C   UNL     1      -0.167  -0.410   0.818  0.00  0.00    +0.229 C 
ENDBRANCH  11  13
ENDBRANCH   9  11
ENDBRANCH   8   9
ENDBRANCH   3   8
ENDBRANCH   2   4
BRANCH   2  14
ATOM     14  C   UNL     1      -4.107  -2.645  -2.753  0.00  0.00    +0.008 C 
ATOM     15  C   UNL     1      -5.512  -2.700  -2.148  0.00  0.00    +0.009 C 
ATOM     16  C   UNL     1      -3.341  -1.463  -2.155  0.00  0.00    +0.009 C 
ENDBRANCH   2  14
ENDBRANCH   1   2
BRANCH   1  17
ATOM     17  C   UNL     1      -3.578  -6.357  -2.470  0.00  0.00    +0.120 C 
BRANCH  17  18
ATOM     18  C   UNL     1      -3.975  -6.575  -1.032  0.00  0.00    -0.033 A 
ATOM     19  C   UNL     1      -3.115  -6.208  -0.014  0.00  0.00    +0.005 A 
ATOM     20  C   UNL     1      -3.479  -6.408   1.304  0.00  0.00    +0.000 A 
ATOM     21  C   UNL     1      -4.703  -6.975   1.605  0.00  0.00    +0.000 A 
ATOM     22  C   UNL     1      -5.564  -7.341   0.587  0.00  0.00    +0.000 A 
ATOM     23  C   UNL     1      -5.202  -7.137  -0.731  0.00  0.00    +0.005 A 
ENDBRANCH  17  18
ENDBRANCH   1  17
BRANCH   1  24
ATOM     24  C   UNL     1      -4.216  -5.060  -4.412  0.00  0.00    +0.126 C 
BRANCH  24  25
ATOM     25  C   UNL     1      -5.342  -5.951  -4.872  0.00  0.00    +0.032 A 
ATOM     26  C   UNL     1      -6.572  -5.426  -5.094  0.00  0.00    +0.020 A 
ATOM     27  C   UNL     1      -7.643  -6.318  -5.540  0.00  0.00    +0.002 A 
ATOM     28  C   UNL     1      -8.933  -5.834  -5.786  0.00  0.00    -0.041 A 
ATOM     29  C   UNL     1      -9.910  -6.692  -6.202  0.00  0.00    +0.004 A 
ATOM     30  C   UNL     1      -9.636  -8.041  -6.384  0.00  0.00    +0.005 A 
ATOM     31  C   UNL     1      -8.373  -8.540  -6.148  0.00  0.00    -0.026 A 
ATOM     32  C   UNL     1      -7.361  -7.684  -5.724  0.00  0.00    +0.052 A 
ATOM     33  N   UNL     1      -6.089  -8.156  -5.482  0.00  0.00    -0.322 N 
ATOM     34  H   UNL     1      -5.896  -9.098  -5.609  0.00  0.00    +0.169 HD
ATOM     35  C   UNL     1      -5.110  -7.328  -5.077  0.00  0.00    +0.254 A 
ATOM     36  O   UNL     1      -3.995  -7.779  -4.877  0.00  0.00    -0.268 OA
ATOM     37  C   UNL     1      -8.089 -10.006  -6.348  0.00  0.00    +0.046 C 
ATOM     38  C   UNL     1      -9.242  -4.372  -5.590  0.00  0.00    +0.044 C 
ENDBRANCH  24  25
ENDBRANCH   1  24
TORSDOF 11
