REMARK  Name = ZINC19809402
REMARK  8 active torsions:
REMARK  status: ('A' for Active; 'I' for Inactive)
REMARK    1  A    between atoms: C_4  and  N_7
REMARK    2  A    between atoms: C_8  and  C_12
REMARK    3  A    between atoms: C_17  and  O_18
REMARK    4  A    between atoms: O_18  and  C_19
REMARK    5  A    between atoms: C_19  and  C_20
REMARK    6  A    between atoms: N_22  and  N_23
REMARK    7  A    between atoms: C_24  and  C_25
REMARK    8  A    between atoms: C_28  and  O_31
REMARK                            x       y       z     vdW  Elec       q    Type
REMARK                         _______ _______ _______ _____ _____    ______ ____
ROOT
ATOM      1  C   UNL     1       0.318   0.235  -2.526  0.00  0.00    +0.043 A 
ATOM      2  C   UNL     1       1.078  -0.662  -3.277  0.00  0.00    +0.029 A 
ATOM      3  C   UNL     1       0.753  -0.903  -4.597  0.00  0.00    +0.019 A 
ATOM      4  C   UNL     1      -0.319  -0.249  -5.181  0.00  0.00    +0.019 A 
ATOM      5  C   UNL     1      -1.075   0.646  -4.448  0.00  0.00    +0.047 A 
ATOM      6  C   UNL     1      -0.763   0.894  -3.121  0.00  0.00    +0.130 A 
ATOM      7 BR   UNL     1       1.778  -2.126  -5.611  0.00  0.00    -0.050 Br
ENDROOT
BRANCH   1   9
ATOM      8  N   UNL     1       1.900   0.770  -0.613  0.00  0.00    -0.232 N 
ATOM      9  C   UNL     1       0.658   0.493  -1.111  0.00  0.00    +0.078 A 
ATOM     10  C   UNL     1      -0.212   0.499  -0.056  0.00  0.00    +0.050 A 
ATOM     11  C   UNL     1       0.517   0.784   1.099  0.00  0.00    +0.135 A 
ATOM     12  N   UNL     1       1.774   0.947   0.771  0.00  0.00    -0.174 NA
BRANCH   8  16
ATOM     13  C   UNL     1       5.426   1.045  -2.817  0.00  0.00    +0.000 A 
ATOM     14  C   UNL     1       4.264   1.617  -3.301  0.00  0.00    +0.002 A 
ATOM     15  C   UNL     1       3.094   1.528  -2.573  0.00  0.00    +0.028 A 
ATOM     16  C   UNL     1       3.085   0.863  -1.354  0.00  0.00    +0.066 A 
ATOM     17  C   UNL     1       4.255   0.294  -0.868  0.00  0.00    +0.028 A 
ATOM     18  C   UNL     1       5.421   0.382  -1.603  0.00  0.00    +0.002 A 
ENDBRANCH   8  16
ENDBRANCH   1   9
BRANCH   6  19
ATOM     19  O   UNL     1      -1.506   1.774  -2.400  0.00  0.00    -0.482 OA
BRANCH  19  20
ATOM     20  C   UNL     1      -2.595   2.409  -3.074  0.00  0.00    +0.326 C 
BRANCH  20  21
ATOM     21  C   UNL     1      -3.298   3.343  -2.123  0.00  0.00    +0.270 C 
ATOM     22  O   UNL     1      -2.905   3.454  -0.980  0.00  0.00    -0.270 OA
ATOM     23  N   UNL     1      -4.363   4.055  -2.542  0.00  0.00    -0.204 N 
ATOM     24  H   UNL     1      -4.719   3.954  -3.577  0.00  0.00    +0.177 HD
BRANCH  23  25
ATOM     25  N   UNL     1      -5.016   4.923  -1.657  0.00  0.00    -0.188 NA
ATOM     26  C   UNL     1      -6.042   5.609  -2.061  0.00  0.00    +0.138 C 
BRANCH  26  27
ATOM     27  C   UNL     1      -6.730   6.522  -1.130  0.00  0.00    -0.005 A 
ATOM     28  C   UNL     1      -6.283   6.648   0.188  0.00  0.00    +0.013 A 
ATOM     29  C   UNL     1      -6.926   7.506   1.053  0.00  0.00    +0.046 A 
ATOM     30  C   UNL     1      -8.023   8.239   0.619  0.00  0.00    +0.117 A 
ATOM     31  C   UNL     1      -8.474   8.114  -0.689  0.00  0.00    +0.046 A 
ATOM     32  C   UNL     1      -7.834   7.262  -1.562  0.00  0.00    +0.013 A 
BRANCH  30  33
ATOM     33  O   UNL     1      -8.658   9.080   1.476  0.00  0.00    -0.507 OA
ATOM     34  H   UNL     1      -9.527   9.662   1.135  0.00  0.00    +0.292 HD
ENDBRANCH  30  33
ENDBRANCH  26  27
ENDBRANCH  23  25
ENDBRANCH  20  21
ENDBRANCH  19  20
ENDBRANCH   6  19
TORSDOF 8
