REMARK  Name = ZINC25509540
REMARK  10 active torsions:
REMARK  status: ('A' for Active; 'I' for Inactive)
REMARK    1  A    between atoms: C_1  and  C_2
REMARK    2  A    between atoms: C_2  and  O_3
REMARK    3  A    between atoms: O_3  and  C_4
REMARK    4  A    between atoms: C_4  and  C_6
REMARK    5  A    between atoms: N_9  and  C_12
REMARK    6  A    between atoms: C_12  and  C_14
REMARK    7  A    between atoms: C_12  and  C_15
REMARK    8  A    between atoms: N_17  and  C_18
REMARK    9  A    between atoms: C_23  and  S_24
REMARK   10  A    between atoms: S_24  and  C_25
REMARK                            x       y       z     vdW  Elec       q    Type
REMARK                         _______ _______ _______ _____ _____    ______ ____
ROOT
ATOM      1  C   UNL     1       1.284   1.763   0.343  0.00  0.00    +0.203 C 
ATOM      2  O   UNL     1       1.175   2.837   0.896  0.00  0.00    -0.277 OA
ATOM      3  N   UNL     1       0.366   1.376  -0.564  0.00  0.00    -0.286 N 
ATOM      4  H   UNL     1       0.509   0.442  -1.127  0.00  0.00    +0.155 HD
ENDROOT
BRANCH   3   5
ATOM      5  C   UNL     1      -0.771   2.163  -0.789  0.00  0.00    +0.047 A 
ATOM      6  C   UNL     1      -0.709   3.538  -0.627  0.00  0.00    +0.024 A 
ATOM      7  C   UNL     1      -1.831   4.313  -0.854  0.00  0.00    +0.002 A 
ATOM      8  C   UNL     1      -3.021   3.720  -1.232  0.00  0.00    +0.001 A 
ATOM      9  C   UNL     1      -3.095   2.349  -1.391  0.00  0.00    +0.017 A 
ATOM     10  C   UNL     1      -1.972   1.564  -1.171  0.00  0.00    +0.034 A 
BRANCH  10  11
ATOM     11  S   UNL     1      -2.063  -0.184  -1.371  0.00  0.00    -0.088 S 
BRANCH  11  12
ATOM     12  C   UNL     1      -3.687  -0.457  -1.999  0.00  0.00    +0.013 A 
ATOM     13  C   UNL     1      -4.749  -0.647  -1.123  0.00  0.00    +0.016 A 
ATOM     14  C   UNL     1      -6.021  -0.856  -1.619  0.00  0.00    +0.021 A 
ATOM     15  C   UNL     1      -6.237  -0.887  -2.985  0.00  0.00    +0.041 A 
ATOM     16  C   UNL     1      -5.180  -0.704  -3.860  0.00  0.00    +0.021 A 
ATOM     17  C   UNL     1      -3.907  -0.489  -3.371  0.00  0.00    +0.016 A 
ATOM     18 CL   UNL     1      -7.837  -1.155  -3.604  0.00  0.00    -0.084 Cl
ENDBRANCH  11  12
ENDBRANCH  10  11
ENDBRANCH   3   5
BRANCH   1  19
ATOM     19  C   UNL     1       2.447   0.862   0.670  0.00  0.00    +0.016 C 
ATOM     20  C   UNL     1       1.978  -0.258   1.601  0.00  0.00    -0.004 C 
BRANCH  19  24
ATOM     21  C   UNL     1       5.528   2.213   3.309  0.00  0.00    +0.094 C 
ATOM     22  C   UNL     1       4.165   2.911   3.322  0.00  0.00    -0.004 C 
ATOM     23  C   UNL     1       3.115   1.979   2.711  0.00  0.00    -0.077 C 
ATOM     24  N   UNL     1       3.500   1.642   1.335  0.00  0.00    +0.387 N 
ATOM     25  C   UNL     1       4.783   0.929   1.302  0.00  0.00    -0.077 C 
ATOM     26  C   UNL     1       5.883   1.829   1.870  0.00  0.00    -0.004 C 
ATOM     27  H   UNL     1       3.625   2.584   0.781  0.00  0.00    -0.081 HD
BRANCH  21  28
ATOM     28  C   UNL     1       6.577   3.147   3.856  0.00  0.00    +0.310 C 
ATOM     29  O   UNL     1       6.267   4.257   4.219  0.00  0.00    -0.251 OA
BRANCH  28  30
ATOM     30  O   UNL     1       7.855   2.746   3.939  0.00  0.00    -0.465 OA
BRANCH  30  32
ATOM     31  C   UNL     1      10.204   3.067   4.494  0.00  0.00    +0.048 C 
ATOM     32  C   UNL     1       8.811   3.698   4.476  0.00  0.00    +0.229 C 
ENDBRANCH  30  32
ENDBRANCH  28  30
ENDBRANCH  21  28
ENDBRANCH  19  24
ENDBRANCH   1  19
TORSDOF 8
