REMARK  Name = ZINC20713050
REMARK  7 active torsions:
REMARK  status: ('A' for Active; 'I' for Inactive)
REMARK    1  A    between atoms: C_1  and  C_2
REMARK    2  A    between atoms: C_2  and  C_3
REMARK    3  A    between atoms: C_3  and  O_4
REMARK    4  A    between atoms: O_4  and  C_5
REMARK    5  A    between atoms: C_5  and  C_7
REMARK    6  A    between atoms: C_20  and  C_23
REMARK    7  A    between atoms: C_28  and  N_29
REMARK                            x       y       z     vdW  Elec       q    Type
REMARK                         _______ _______ _______ _____ _____    ______ ____
ROOT
ATOM      1  C   UNL     1      -1.928   3.090  -0.394  0.00  0.00    +0.059 A 
ATOM      2  C   UNL     1      -0.900   2.162  -0.201  0.00  0.00    +0.017 A 
ATOM      3  C   UNL     1       0.395   2.583  -0.115  0.00  0.00    +0.024 A 
ATOM      4  C   UNL     1       0.711   3.936  -0.216  0.00  0.00    +0.031 A 
ATOM      5  C   UNL     1      -0.317   4.870  -0.414  0.00  0.00    -0.019 A 
ATOM      6  C   UNL     1      -1.623   4.451  -0.493  0.00  0.00    +0.021 A 
ATOM      7  C   UNL     1       0.067   6.293  -0.538  0.00  0.00    +0.049 C 
ATOM      8  C   UNL     1      -0.865   7.393  -0.182  0.00  0.00    -0.023 C 
ATOM      9  C   UNL     1      -0.155   8.423   0.262  0.00  0.00    -0.030 C 
ATOM     10  C   UNL     1       1.334   8.069   0.268  0.00  0.00    +0.033 C 
ATOM     11  C   UNL     1       1.286   6.541   0.400  0.00  0.00    +0.029 C 
ATOM     12  C   UNL     1       2.432   5.755  -0.211  0.00  0.00    +0.107 C 
ATOM     13  N   UNL     1       2.042   4.332  -0.105  0.00  0.00    -0.336 N 
ATOM     14  H   UNL     1       2.810   3.563   0.065  0.00  0.00    +0.147 HD
ENDROOT
BRANCH  12  15
ATOM     15  C   UNL     1       3.705   6.004   0.556  0.00  0.00    +0.003 A 
ATOM     16  C   UNL     1       3.659   6.632   1.787  0.00  0.00    +0.008 A 
ATOM     17  C   UNL     1       4.827   6.860   2.490  0.00  0.00    +0.000 A 
ATOM     18  C   UNL     1       6.041   6.461   1.963  0.00  0.00    +0.002 A 
ATOM     19  C   UNL     1       6.087   5.834   0.732  0.00  0.00    +0.033 A 
ATOM     20  C   UNL     1       4.919   5.601   0.031  0.00  0.00    +0.131 A 
BRANCH  20  21
ATOM     21  N   UNL     1       4.968   4.923  -1.284  0.00  0.00    +0.057 N 
ATOM     22  O   UNL     1       6.042   4.668  -1.798  0.00  0.00    -0.126 OA
ATOM     23  O   UNL     1       3.933   4.622  -1.853  0.00  0.00    -0.126 OA
ENDBRANCH  20  21
ENDBRANCH  12  15
BRANCH   1  24
ATOM     24  C   UNL     1      -3.328   2.636  -0.487  0.00  0.00    +0.339 C 
ATOM     25  O   UNL     1      -4.218   3.445  -0.655  0.00  0.00    -0.245 OA
BRANCH  24  26
ATOM     26  O   UNL     1      -3.619   1.324  -0.387  0.00  0.00    -0.461 OA
BRANCH  26  27
ATOM     27  C   UNL     1      -5.018   0.950  -0.488  0.00  0.00    +0.232 C 
BRANCH  27  29
ATOM     28  C   UNL     1      -6.625  -0.962  -0.457  0.00  0.00    +0.007 C 
ATOM     29  C   UNL     1      -5.151  -0.568  -0.351  0.00  0.00    +0.038 C 
ENDBRANCH  27  29
ENDBRANCH  26  27
ENDBRANCH  24  26
ENDBRANCH   1  24
TORSDOF 6
