REMARK  Name = ZINC39598333
REMARK  6 active torsions:
REMARK  status: ('A' for Active; 'I' for Inactive)
REMARK    1  A    between atoms: C_1  and  C_2
REMARK    2  A    between atoms: C_6  and  C_7
REMARK    3  A    between atoms: C_11  and  C_20
REMARK    4  A    between atoms: N_22  and  C_23
REMARK    5  A    between atoms: N_26  and  C_29
REMARK    6  A    between atoms: C_29  and  C_30
REMARK                            x       y       z     vdW  Elec       q    Type
REMARK                         _______ _______ _______ _____ _____    ______ ____
ROOT
ATOM      1  C   UNL     1       0.032  -0.278   2.568  0.00  0.00    +0.254 C 
ATOM      2  O   UNL     1       0.122   0.910   2.814  0.00  0.00    -0.269 OA
ATOM      3  N   UNL     1      -0.049  -1.170   3.575  0.00  0.00    -0.296 N 
ATOM      4  C   UNL     1      -0.041  -2.649   3.480  0.00  0.00    +0.121 C 
ATOM      5  C   UNL     1       0.813  -3.113   4.682  0.00  0.00    +0.100 C 
ATOM      6  C   UNL     1       0.726  -1.958   5.694  0.00  0.00    -0.004 C 
ATOM      7  C   UNL     1      -0.159  -0.894   5.027  0.00  0.00    +0.115 C 
ATOM      8  C   UNL     1       2.114  -1.386   5.964  0.00  0.00    -0.010 C 
ATOM      9  C   UNL     1       2.009  -0.278   7.015  0.00  0.00    -0.082 C 
ATOM     10  N   UNL     1       1.434  -0.825   8.250  0.00  0.00    +0.379 N 
ATOM     11  C   UNL     1       0.063  -1.288   8.002  0.00  0.00    -0.082 C 
ATOM     12  C   UNL     1       0.086  -2.439   6.992  0.00  0.00    -0.010 C 
ATOM     13  H   UNL     1       1.997  -1.600   8.567  0.00  0.00    -0.086 HD
ATOM     14  H   UNL     1       1.422  -0.108   8.960  0.00  0.00    -0.086 HD
ENDROOT
BRANCH   1  20
ATOM     15  C   UNL     1      -0.011   1.515   0.021  0.00  0.00    +0.045 C 
ATOM     16  C   UNL     1      -0.009   0.008   0.009  0.00  0.00    -0.031 A 
ATOM     17  C   UNL     1      -0.020  -0.713  -1.161  0.00  0.00    +0.011 A 
ATOM     18  C   UNL     1      -0.016  -2.068  -1.100  0.00  0.00    +0.046 A 
ATOM     19  S   UNL     1       0.003  -2.406   0.545  0.00  0.00    -0.092 S 
ATOM     20  C   UNL     1       0.011  -0.739   1.177  0.00  0.00    +0.077 A 
ENDBRANCH   1  20
BRANCH   5  21
ATOM     21  C   UNL     1       2.241  -3.334   4.257  0.00  0.00    +0.218 C 
ATOM     22  O   UNL     1       2.739  -2.622   3.410  0.00  0.00    -0.275 OA
ATOM     23  N   UNL     1       2.966  -4.323   4.816  0.00  0.00    -0.312 N 
ATOM     24  H   UNL     1       2.567  -4.892   5.494  0.00  0.00    +0.149 HD
BRANCH  23  25
ATOM     25  C   UNL     1       4.354  -4.538   4.403  0.00  0.00    +0.069 C 
ATOM     26  C   UNL     1       4.386  -5.432   3.159  0.00  0.00    +0.003 C 
ATOM     27  C   UNL     1       5.840  -5.717   2.780  0.00  0.00    -0.077 C 
ATOM     28  N   UNL     1       6.515  -6.399   3.891  0.00  0.00    +0.382 N 
ATOM     29  C   UNL     1       6.552  -5.520   5.066  0.00  0.00    -0.077 C 
ATOM     30  C   UNL     1       5.125  -5.227   5.533  0.00  0.00    +0.003 C 
ATOM     31  H   UNL     1       6.013  -7.244   4.120  0.00  0.00    -0.081 HD
BRANCH  28  32
ATOM     32  C   UNL     1       7.887  -6.741   3.494  0.00  0.00    -0.043 C 
BRANCH  32  33
ATOM     33  C   UNL     1       8.540  -7.548   4.586  0.00  0.00    -0.064 A 
ATOM     34  C   UNL     1       9.233  -6.909   5.597  0.00  0.00    +0.002 A 
ATOM     35  C   UNL     1       9.832  -7.649   6.599  0.00  0.00    +0.000 A 
ATOM     36  C   UNL     1       9.739  -9.028   6.590  0.00  0.00    +0.000 A 
ATOM     37  C   UNL     1       9.045  -9.667   5.579  0.00  0.00    +0.000 A 
ATOM     38  C   UNL     1       8.442  -8.927   4.579  0.00  0.00    +0.002 A 
ENDBRANCH  32  33
ENDBRANCH  28  32
ENDBRANCH  23  25
ENDBRANCH   5  21
TORSDOF 5
