REMARK  Name = ZINC07282652
REMARK  5 active torsions:
REMARK  status: ('A' for Active; 'I' for Inactive)
REMARK    1  A    between atoms: C_1  and  C_2
REMARK    2  A    between atoms: C_4  and  C_9
REMARK    3  A    between atoms: C_5  and  C_8
REMARK    4  A    between atoms: N_10  and  N_11
REMARK    5  A    between atoms: N_11  and  C_12
REMARK                            x       y       z     vdW  Elec       q    Type
REMARK                         _______ _______ _______ _____ _____    ______ ____
ROOT
ATOM      1  N   UNL     1       0.026   1.293   4.148  0.00  0.00    -0.232 N 
ATOM      2  H   UNL     1       0.042   0.631   4.857  0.00  0.00    +0.175 HD
ENDROOT
BRANCH   1   3
ATOM      3  C   UNL     1       0.011   2.650   4.463  0.00  0.00    +0.128 A 
ATOM      4  C   UNL     1       0.305   3.612   3.496  0.00  0.00    +0.203 A 
ATOM      5  C   UNL     1       0.274   4.950   3.847  0.00  0.00    +0.253 A 
ATOM      6  N   UNL     1      -0.018   5.320   5.082  0.00  0.00    -0.186 NA
ATOM      7  C   UNL     1      -0.296   4.438   6.027  0.00  0.00    +0.253 A 
ATOM      8  C   UNL     1      -0.292   3.082   5.755  0.00  0.00    +0.203 A 
ATOM      9  F   UNL     1      -0.577   2.188   6.727  0.00  0.00    -0.199 F 
ATOM     10  F   UNL     1      -0.588   4.867   7.275  0.00  0.00    -0.181 F 
ATOM     11  F   UNL     1       0.550   5.890   2.917  0.00  0.00    -0.181 F 
ATOM     12  F   UNL     1       0.610   3.243   2.232  0.00  0.00    -0.199 F 
ENDBRANCH   1   3
BRANCH   1  14
ATOM     13  C   UNL     1       0.032  -0.380   2.515  0.00  0.00    +0.140 C 
ATOM     14  N   UNL     1       0.018   0.884   2.808  0.00  0.00    -0.190 NA
BRANCH  13  18
ATOM     15  C   UNL     1       0.029  -3.281  -1.686  0.00  0.00    +0.063 C 
ATOM     16  C   UNL     1       0.022  -2.108  -0.740  0.00  0.00    +0.014 A 
ATOM     17  C   UNL     1       0.037  -2.187   0.604  0.00  0.00    +0.032 A 
ATOM     18  C   UNL     1       0.024  -0.810   1.104  0.00  0.00    +0.015 A 
ATOM     19  C   UNL     1       0.002  -0.004   0.002  0.00  0.00    +0.022 A 
ATOM     20  N   UNL     1      -0.004  -0.795  -1.104  0.00  0.00    -0.362 N 
ATOM     21  H   UNL     1      -0.021  -0.472  -2.019  0.00  0.00    +0.165 HD
ATOM     22  C   UNL     1      -0.018   1.503   0.010  0.00  0.00    +0.064 C 
ENDBRANCH  13  18
ENDBRANCH   1  14
TORSDOF 3
