REMARK  Name = ZINC40914150
REMARK  4 active torsions:
REMARK  status: ('A' for Active; 'I' for Inactive)
REMARK    1  A    between atoms: C_4  and  C_7
REMARK    2  A    between atoms: C_10  and  C_13
REMARK    3  A    between atoms: C_18  and  O_19
REMARK    4  A    between atoms: C_25  and  C_26
REMARK                            x       y       z     vdW  Elec       q    Type
REMARK                         _______ _______ _______ _____ _____    ______ ____
ROOT
ATOM      1  C   UNL     1       4.192  -0.502   2.671  0.00  0.00    +0.069 C 
ATOM      2  N   UNL     1       5.259   0.021   2.173  0.00  0.00    -0.182 NA
ATOM      3  N   UNL     1       6.309  -0.878   2.004  0.00  0.00    -0.195 N 
ATOM      4  C   UNL     1       5.875  -2.208   2.461  0.00  0.00    +0.139 C 
ATOM      5  C   UNL     1       4.425  -1.974   2.930  0.00  0.00    +0.087 C 
ATOM      6  C   UNL     1       7.544  -0.575   1.495  0.00  0.00    +0.174 C 
ATOM      7  N   UNL     1       8.576  -1.383   1.305  0.00  0.00    -0.152 NA
ATOM      8  C   UNL     1       9.716  -0.965   0.804  0.00  0.00    +0.276 C 
ATOM      9  O   UNL     1      10.660  -1.720   0.633  0.00  0.00    -0.267 OA
ATOM     10  C   UNL     1       9.793   0.475   0.457  0.00  0.00    +0.079 C 
ATOM     11  C   UNL     1      10.819   1.189  -0.069  0.00  0.00    +0.028 C 
ATOM     12  S   UNL     1       8.149   1.004   0.921  0.00  0.00    -0.050 S 
ENDROOT
BRANCH  11  13
ATOM     13  C   UNL     1      10.726   2.653  -0.158  0.00  0.00    -0.023 A 
ATOM     14  C   UNL     1      11.695   3.378  -0.863  0.00  0.00    +0.008 A 
ATOM     15  C   UNL     1      11.601   4.751  -0.942  0.00  0.00    +0.002 A 
ATOM     16  C   UNL     1      10.553   5.414  -0.326  0.00  0.00    +0.015 A 
ATOM     17  C   UNL     1       9.591   4.705   0.374  0.00  0.00    +0.018 A 
ATOM     18  C   UNL     1       9.667   3.329   0.457  0.00  0.00    +0.023 A 
ATOM     19 BR   UNL     1       8.166   5.623   1.212  0.00  0.00    -0.050 Br
ENDBRANCH  11  13
BRANCH   1  23
ATOM     20  C   UNL     1       0.586   1.585   3.480  0.00  0.00    +0.000 A 
ATOM     21  C   UNL     1       1.665   2.260   2.936  0.00  0.00    +0.001 A 
ATOM     22  C   UNL     1       2.841   1.588   2.671  0.00  0.00    +0.010 A 
ATOM     23  C   UNL     1       2.940   0.223   2.953  0.00  0.00    -0.002 A 
ATOM     24  C   UNL     1       1.846  -0.451   3.501  0.00  0.00    +0.010 A 
ATOM     25  C   UNL     1       0.677   0.233   3.761  0.00  0.00    +0.001 A 
ENDBRANCH   1  23
BRANCH   4  26
ATOM     26  C   UNL     1       6.732  -2.681   3.607  0.00  0.00    +0.017 A 
ATOM     27  C   UNL     1       7.399  -1.763   4.396  0.00  0.00    +0.009 A 
ATOM     28  C   UNL     1       8.185  -2.196   5.447  0.00  0.00    +0.001 A 
ATOM     29  C   UNL     1       8.306  -3.548   5.713  0.00  0.00    +0.004 A 
ATOM     30  C   UNL     1       7.640  -4.469   4.927  0.00  0.00    +0.046 A 
ATOM     31  C   UNL     1       6.846  -4.037   3.875  0.00  0.00    +0.122 A 
BRANCH  31  32
ATOM     32  O   UNL     1       6.186  -4.941   3.104  0.00  0.00    -0.506 OA
ATOM     33  H   UNL     1       6.691  -5.250   2.341  0.00  0.00    +0.292 HD
ENDBRANCH  31  32
ENDBRANCH   4  26
TORSDOF 4
