REMARK  Name = ZINC39665572
REMARK  11 active torsions:
REMARK  status: ('A' for Active; 'I' for Inactive)
REMARK    1  A    between atoms: C_1  and  C_2
REMARK    2  A    between atoms: C_2  and  C_4
REMARK    3  A    between atoms: C_2  and  O_29
REMARK    4  A    between atoms: C_4  and  N_5
REMARK    5  A    between atoms: C_6  and  C_8
REMARK    6  A    between atoms: C_19  and  C_21
REMARK    7  A    between atoms: C_26  and  O_27
REMARK    8  A    between atoms: O_27  and  C_28
REMARK    9  A    between atoms: O_29  and  C_30
REMARK   10  A    between atoms: C_33  and  O_36
REMARK   11  A    between atoms: O_36  and  C_37
REMARK                            x       y       z     vdW  Elec       q    Type
REMARK                         _______ _______ _______ _____ _____    ______ ____
ROOT
ATOM      1  C   UNL     1       1.593  -4.076   1.760  0.00  0.00    +0.100 C 
ATOM      2  C   UNL     1       0.078  -4.375   1.702  0.00  0.00    +0.121 C 
ATOM      3  N   UNL     1      -0.088  -5.618   2.492  0.00  0.00    -0.296 N 
ATOM      4  C   UNL     1       0.838  -5.453   3.638  0.00  0.00    +0.115 C 
ATOM      5  C   UNL     1       2.088  -4.785   3.032  0.00  0.00    -0.004 C 
ATOM      6  C   UNL     1       2.669  -3.769   4.011  0.00  0.00    -0.010 C 
ATOM      7  C   UNL     1       3.207  -4.503   5.242  0.00  0.00    -0.082 C 
ATOM      8  N   UNL     1       4.239  -5.462   4.830  0.00  0.00    +0.379 N 
ATOM      9  C   UNL     1       3.651  -6.490   3.962  0.00  0.00    -0.082 C 
ATOM     10  C   UNL     1       3.131  -5.839   2.677  0.00  0.00    -0.010 C 
ATOM     11  C   UNL     1      -0.898  -6.662   2.227  0.00  0.00    +0.250 C 
ATOM     12  O   UNL     1      -1.538  -6.688   1.194  0.00  0.00    -0.270 OA
ATOM     13  H   UNL     1       4.967  -4.976   4.327  0.00  0.00    -0.086 HD
ATOM     14  H   UNL     1       4.635  -5.901   5.648  0.00  0.00    -0.086 HD
ENDROOT
BRANCH  11  15
ATOM     15  C   UNL     1      -1.008  -7.773   3.192  0.00  0.00    +0.078 A 
ATOM     16  C   UNL     1      -0.938  -7.522   4.564  0.00  0.00    +0.017 A 
ATOM     17  C   UNL     1      -1.042  -8.564   5.460  0.00  0.00    +0.001 A 
ATOM     18  C   UNL     1      -1.215  -9.861   5.005  0.00  0.00    +0.004 A 
ATOM     19  C   UNL     1      -1.286 -10.124   3.652  0.00  0.00    +0.046 A 
ATOM     20  C   UNL     1      -1.189  -9.086   2.736  0.00  0.00    +0.132 A 
BRANCH  20  21
ATOM     21  O   UNL     1      -1.263  -9.342   1.406  0.00  0.00    -0.494 OA
ATOM     22  C   UNL     1      -1.448 -10.704   1.017  0.00  0.00    +0.277 C 
ENDBRANCH  20  21
ENDBRANCH  11  15
BRANCH   1  24
ATOM     23  N   UNL     1       2.954  -2.052   1.346  0.00  0.00    -0.312 N 
ATOM     24  C   UNL     1       1.831  -2.591   1.860  0.00  0.00    +0.218 C 
ATOM     25  O   UNL     1       1.012  -1.881   2.404  0.00  0.00    -0.275 OA
ATOM     26  H   UNL     1       3.610  -2.620   0.911  0.00  0.00    +0.149 HD
BRANCH  23  27
ATOM     27  C   UNL     1       3.186  -0.609   1.443  0.00  0.00    +0.148 C 
BRANCH  27  29
ATOM     28  C   UNL     1       4.825   1.224   0.997  0.00  0.00    +0.053 C 
ATOM     29  C   UNL     1       4.523  -0.262   0.786  0.00  0.00    +0.187 C 
BRANCH  29  30
ATOM     30  O   UNL     1       4.452  -0.539  -0.614  0.00  0.00    -0.488 OA
BRANCH  30  31
ATOM     31  C   UNL     1       5.628  -0.770  -1.258  0.00  0.00    +0.121 A 
ATOM     32  C   UNL     1       5.636  -0.994  -2.627  0.00  0.00    +0.049 A 
ATOM     33  C   UNL     1       6.830  -1.228  -3.281  0.00  0.00    +0.049 A 
ATOM     34  C   UNL     1       8.020  -1.238  -2.570  0.00  0.00    +0.120 A 
ATOM     35  C   UNL     1       8.012  -1.013  -1.201  0.00  0.00    +0.049 A 
ATOM     36  C   UNL     1       6.819  -0.775  -0.547  0.00  0.00    +0.049 A 
BRANCH  34  37
ATOM     37  O   UNL     1       9.195  -1.469  -3.213  0.00  0.00    -0.495 OA
ATOM     38  C   UNL     1      10.383  -1.465  -2.418  0.00  0.00    +0.277 C 
ENDBRANCH  34  37
ENDBRANCH  30  31
ENDBRANCH  29  30
ENDBRANCH  27  29
ENDBRANCH  23  27
ENDBRANCH   1  24
TORSDOF 8
