REMARK  Name = ZINC11612289
REMARK  7 active torsions:
REMARK  status: ('A' for Active; 'I' for Inactive)
REMARK    1  A    between atoms: C_1  and  C_2
REMARK    2  A    between atoms: C_5  and  C_29
REMARK    3  A    between atoms: C_9  and  C_10
REMARK    4  A    between atoms: C_9  and  N_53
REMARK    5  A    between atoms: C_10  and  C_12
REMARK    6  A    between atoms: C_10  and  O_28
REMARK    7  A    between atoms: C_12  and  N_13
REMARK                            x       y       z     vdW  Elec       q    Type
REMARK                         _______ _______ _______ _____ _____    ______ ____
ROOT
ATOM      1  N   UNL     1       0.003  -0.003   0.032  0.00  0.00    -0.337 N 
ATOM      2  C   UNL     1       0.013  -0.804  -1.097  0.00  0.00    +0.050 A 
ATOM      3  C   UNL     1       0.020  -0.507  -2.457  0.00  0.00    +0.027 A 
ATOM      4  C   UNL     1       0.038  -1.524  -3.386  0.00  0.00    +0.017 A 
ATOM      5  C   UNL     1       0.055  -2.850  -2.979  0.00  0.00    +0.019 A 
ATOM      6  C   UNL     1       0.054  -3.165  -1.636  0.00  0.00    +0.026 A 
ATOM      7  C   UNL     1       0.035  -2.145  -0.688  0.00  0.00    +0.009 A 
ATOM      8  C   UNL     1       0.030  -2.133   0.787  0.00  0.00    +0.009 A 
ATOM      9  C   UNL     1       0.010  -0.785   1.174  0.00  0.00    +0.050 A 
ATOM     10  C   UNL     1       0.001  -0.464   2.528  0.00  0.00    +0.027 A 
ATOM     11  C   UNL     1       0.012  -1.466   3.474  0.00  0.00    +0.017 A 
ATOM     12  C   UNL     1       0.032  -2.799   3.090  0.00  0.00    +0.019 A 
ATOM     13  C   UNL     1       0.041  -3.136   1.753  0.00  0.00    +0.026 A 
ATOM     14 BR   UNL     1       0.046  -4.158   4.405  0.00  0.00    -0.050 Br
ATOM     15 BR   UNL     1       0.079  -4.232  -4.270  0.00  0.00    -0.050 Br
ENDROOT
BRANCH   1  16
ATOM     16  C   UNL     1      -0.018   1.461   0.019  0.00  0.00    +0.151 C 
BRANCH  16  17
ATOM     17  C   UNL     1       1.417   1.992   0.021  0.00  0.00    +0.118 C 
BRANCH  17  18
ATOM     18  O   UNL     1       2.056   1.634   1.247  0.00  0.00    -0.392 OA
ATOM     19  H   UNL     1       1.621   1.986   2.035  0.00  0.00    +0.210 HD
ENDBRANCH  17  18
BRANCH  17  20
ATOM     20  C   UNL     1       1.397   3.516  -0.118  0.00  0.00    -0.045 C 
BRANCH  20  28
ATOM     21  C   UNL     1       4.962   5.118   1.446  0.00  0.00    +0.005 C 
ATOM     22  C   UNL     1       4.268   5.910   0.337  0.00  0.00    -0.031 C 
ATOM     23  C   UNL     1       4.987   5.668  -0.992  0.00  0.00    +0.003 C 
ATOM     24  C   UNL     1       4.892   4.182  -1.351  0.00  0.00    -0.031 C 
ATOM     25  C   UNL     1       3.419   3.773  -1.424  0.00  0.00    -0.076 C 
ATOM     26  C   UNL     1       2.813   5.451   0.215  0.00  0.00    -0.076 C 
ATOM     27  C   UNL     1       5.557   3.941  -2.708  0.00  0.00    +0.005 C 
ATOM     28  N   UNL     1       2.790   4.009  -0.107  0.00  0.00    +0.382 N 
ATOM     29  H   UNL     1       3.319   3.499   0.610  0.00  0.00    -0.082 HD
ENDBRANCH  20  28
ENDBRANCH  17  20
ENDBRANCH  16  17
ENDBRANCH   1  16
TORSDOF 5
