REMARK  Name = ZINC22348157
REMARK  12 active torsions:
REMARK  status: ('A' for Active; 'I' for Inactive)
REMARK    1  A    between atoms: C_1  and  C_2
REMARK    2  A    between atoms: C_5  and  N_32
REMARK    3  A    between atoms: C_7  and  N_8
REMARK    4  A    between atoms: C_9  and  C_11
REMARK    5  A    between atoms: C_11  and  C_13
REMARK    6  A    between atoms: C_11  and  S_14
REMARK    7  A    between atoms: S_14  and  C_15
REMARK    8  A    between atoms: N_25  and  C_26
REMARK    9  A    between atoms: C_26  and  C_27
REMARK   10  A    between atoms: C_27  and  C_28
REMARK   11  A    between atoms: C_28  and  O_29
REMARK   12  A    between atoms: O_29  and  C_30
REMARK                            x       y       z     vdW  Elec       q    Type
REMARK                         _______ _______ _______ _____ _____    ______ ____
ROOT
ATOM      1  S   UNL     1      -5.952  -2.602   0.404  0.00  0.00    -0.075 S 
ENDROOT
BRANCH   1   2
ATOM      2  C   UNL     1      -7.608  -3.196   0.308  0.00  0.00    +0.173 A 
ATOM      3  N   UNL     1      -8.541  -2.380  -0.117  0.00  0.00    -0.223 NA
ATOM      4  C   UNL     1      -9.832  -2.774  -0.220  0.00  0.00    +0.080 A 
ATOM      5  C   UNL     1     -10.828  -1.907  -0.677  0.00  0.00    +0.048 A 
ATOM      6  C   UNL     1     -12.130  -2.350  -0.760  0.00  0.00    +0.043 A 
ATOM      7  C   UNL     1     -12.463  -3.650  -0.395  0.00  0.00    +0.021 A 
ATOM      8  C   UNL     1     -11.507  -4.516   0.056  0.00  0.00    +0.017 A 
ATOM      9  C   UNL     1     -10.181  -4.093   0.149  0.00  0.00    +0.065 A 
ATOM     10  C   UNL     1      -9.116  -4.984   0.627  0.00  0.00    +0.262 A 
ATOM     11  O   UNL     1      -9.354  -6.131   0.960  0.00  0.00    -0.267 OA
ATOM     12  N   UNL     1      -7.860  -4.485   0.684  0.00  0.00    -0.287 N 
ATOM     13 CL   UNL     1     -13.368  -1.274  -1.329  0.00  0.00    -0.083 Cl
BRANCH  12  14
ATOM     14  C   UNL     1      -6.761  -5.332   1.154  0.00  0.00    +0.129 C 
BRANCH  14  15
ATOM     15  C   UNL     1      -6.617  -5.186   2.670  0.00  0.00    +0.050 C 
BRANCH  15  16
ATOM     16  C   UNL     1      -5.469  -6.071   3.160  0.00  0.00    +0.161 C 
BRANCH  16  17
ATOM     17  O   UNL     1      -5.334  -5.934   4.577  0.00  0.00    -0.383 OA
ATOM     18  C   UNL     1      -4.284  -6.724   5.139  0.00  0.00    +0.193 C 
ENDBRANCH  16  17
ENDBRANCH  15  16
ENDBRANCH  14  15
ENDBRANCH  12  14
ENDBRANCH   1   2
BRANCH   1  19
ATOM     19  C   UNL     1      -6.191  -0.909  -0.190  0.00  0.00    +0.137 C 
ATOM     20  C   UNL     1      -6.639  -0.940  -1.653  0.00  0.00    +0.029 C 
BRANCH  19  22
ATOM     21  N   UNL     1      -4.907   1.194   0.031  0.00  0.00    -0.284 N 
ATOM     22  C   UNL     1      -4.894  -0.149  -0.078  0.00  0.00    +0.230 C 
ATOM     23  O   UNL     1      -3.839  -0.747  -0.087  0.00  0.00    -0.274 OA
ATOM     24  H   UNL     1      -5.865   1.730   0.113  0.00  0.00    +0.155 HD
BRANCH  21  31
ATOM     25  C   UNL     1      -4.856   3.760  -1.196  0.00  0.00    +0.045 C 
ATOM     26  C   UNL     1      -3.634   3.163  -0.548  0.00  0.00    -0.029 A 
ATOM     27  C   UNL     1      -2.444   3.864  -0.537  0.00  0.00    +0.007 A 
ATOM     28  C   UNL     1      -1.324   3.319   0.063  0.00  0.00    +0.033 A 
ATOM     29  C   UNL     1      -1.388   2.066   0.645  0.00  0.00    +0.128 A 
ATOM     30  C   UNL     1      -2.575   1.360   0.638  0.00  0.00    +0.056 A 
ATOM     31  C   UNL     1      -3.703   1.907   0.041  0.00  0.00    +0.038 A 
BRANCH  29  32
ATOM     32  N   UNL     1      -0.185   1.483   1.281  0.00  0.00    +0.056 N 
ATOM     33  O   UNL     1      -0.243   0.382   1.798  0.00  0.00    -0.126 OA
ATOM     34  O   UNL     1       0.863   2.103   1.283  0.00  0.00    -0.126 OA
ENDBRANCH  29  32
ENDBRANCH  21  31
ENDBRANCH  19  22
ENDBRANCH   1  19
TORSDOF 9
