REMARK  Name = ZINC20503290
REMARK  4 active torsions:
REMARK  status: ('A' for Active; 'I' for Inactive)
REMARK    1  A    between atoms: C_14  and  C_28
REMARK    2  A    between atoms: C_17  and  C_19
REMARK    3  A    between atoms: C_19  and  S_20
REMARK    4  A    between atoms: S_20  and  C_21
REMARK                            x       y       z     vdW  Elec       q    Type
REMARK                         _______ _______ _______ _____ _____    ______ ____
ROOT
ATOM      1  C   UNL     1       2.629   6.432  -0.709  0.00  0.00    +0.002 A 
ATOM      2  C   UNL     1       2.427   5.772  -1.909  0.00  0.00    +0.002 A 
ATOM      3  C   UNL     1       2.634   4.407  -1.988  0.00  0.00    +0.025 A 
ATOM      4  C   UNL     1       3.043   3.701  -0.876  0.00  0.00    +0.058 A 
ATOM      5  C   UNL     1       3.284   4.366   0.351  0.00  0.00    +0.053 A 
ATOM      6  C   UNL     1       3.051   5.746   0.407  0.00  0.00    +0.025 A 
ATOM      7  N   UNL     1       3.766   3.720   1.418  0.00  0.00    -0.316 N 
ATOM      8  C   UNL     1       3.587   2.578   1.979  0.00  0.00    +0.017 C 
ATOM      9  C   UNL     1       4.080   2.483   3.418  0.00  0.00    +0.051 C 
ATOM     10  C   UNL     1       3.225   1.481   4.191  0.00  0.00    +0.014 C 
ATOM     11  C   UNL     1       3.335   0.122   3.491  0.00  0.00    +0.080 C 
ATOM     12  C   UNL     1       2.881   0.277   2.069  0.00  0.00    +0.163 C 
ATOM     13  C   UNL     1       3.005   1.435   1.389  0.00  0.00    +0.040 C 
ATOM     14  C   UNL     1       2.499   1.455  -0.015  0.00  0.00    +0.182 C 
ATOM     15  N   UNL     1       3.231   2.329  -0.895  0.00  0.00    -0.254 N 
ATOM     16  C   UNL     1       4.122   1.800  -1.757  0.00  0.00    +0.231 C 
ATOM     17  O   UNL     1       4.298   0.600  -1.786  0.00  0.00    -0.274 OA
ATOM     18  O   UNL     1       2.328  -0.786   1.446  0.00  0.00    -0.292 OA
ATOM     19  H   UNL     1       4.483   4.436   1.845  0.00  0.00    +0.152 HD
ENDROOT
BRANCH  14  20
ATOM     20  C   UNL     1       1.056   1.892   0.002  0.00  0.00    +0.130 A 
ATOM     21  C   UNL     1      -0.013   1.076   0.008  0.00  0.00    +0.047 A 
ATOM     22  C   UNL     1      -1.159   1.903   0.018  0.00  0.00    +0.041 A 
ATOM     23  C   UNL     1      -0.722   3.175   0.027  0.00  0.00    +0.195 A 
ATOM     24  O   UNL     1       0.621   3.162   0.013  0.00  0.00    -0.466 OA
ENDBRANCH  14  20
BRANCH  16  25
ATOM     25  C   UNL     1       4.898   2.698  -2.686  0.00  0.00    +0.170 C 
BRANCH  25  26
ATOM     26  S   UNL     1       6.005   1.693  -3.713  0.00  0.00    -0.116 S 
BRANCH  26  27
ATOM     27  C   UNL     1       6.830   2.872  -4.730  0.00  0.00    +0.008 A 
ATOM     28  C   UNL     1       6.535   4.225  -4.607  0.00  0.00    +0.016 A 
ATOM     29  C   UNL     1       7.187   5.147  -5.402  0.00  0.00    +0.021 A 
ATOM     30  C   UNL     1       8.125   4.724  -6.328  0.00  0.00    +0.041 A 
ATOM     31  C   UNL     1       8.416   3.378  -6.456  0.00  0.00    +0.021 A 
ATOM     32  C   UNL     1       7.772   2.451  -5.660  0.00  0.00    +0.016 A 
ATOM     33 CL   UNL     1       8.937   5.886  -7.330  0.00  0.00    -0.084 Cl
ENDBRANCH  26  27
ENDBRANCH  25  26
ENDBRANCH  16  25
TORSDOF 4
