REMARK  Name = ZINC28948989
REMARK  10 active torsions:
REMARK  status: ('A' for Active; 'I' for Inactive)
REMARK    1  A    between atoms: C_1  and  N_2
REMARK    2  A    between atoms: N_2  and  C_3
REMARK    3  A    between atoms: C_4  and  O_28
REMARK    4  A    between atoms: C_6  and  C_9
REMARK    5  A    between atoms: C_10  and  C_11
REMARK    6  A    between atoms: C_13  and  C_17
REMARK    7  A    between atoms: C_18  and  C_19
REMARK    8  A    between atoms: C_21  and  O_27
REMARK    9  A    between atoms: C_22  and  N_25
REMARK   10  A    between atoms: N_25  and  C_26
REMARK                            x       y       z     vdW  Elec       q    Type
REMARK                         _______ _______ _______ _____ _____    ______ ____
ROOT
ATOM      1  C   UNL     1      -7.288  -2.980   0.049  0.00  0.00    +0.065 A 
ATOM      2  N   UNL     1      -7.266  -4.308   0.052  0.00  0.00    -0.248 NA
ATOM      3  C   UNL     1      -8.388  -5.019   0.059  0.00  0.00    +0.065 A 
ATOM      4  C   UNL     1      -9.633  -4.385   0.063  0.00  0.00    +0.028 A 
ATOM      5  C   UNL     1      -9.689  -3.001   0.059  0.00  0.00    +0.004 A 
ATOM      6  C   UNL     1      -8.502  -2.288   0.059  0.00  0.00    +0.028 A 
ENDROOT
BRANCH   1   8
ATOM      7  C   UNL     1      -4.849  -2.888   0.032  0.00  0.00    +0.010 C 
ATOM      8  C   UNL     1      -6.021  -2.229   0.042  0.00  0.00    +0.028 C 
BRANCH   7  12
ATOM      9  C   UNL     1      -1.198  -0.719   0.010  0.00  0.00    +0.069 A 
ATOM     10  C   UNL     1      -1.177  -2.114   0.008  0.00  0.00    +0.138 A 
ATOM     11  C   UNL     1      -2.362  -2.822   0.015  0.00  0.00    +0.055 A 
ATOM     12  C   UNL     1      -3.583  -2.138   0.025  0.00  0.00    -0.021 A 
ATOM     13  C   UNL     1      -3.596  -0.740   0.027  0.00  0.00    +0.010 A 
ATOM     14  C   UNL     1      -2.409  -0.039   0.025  0.00  0.00    +0.027 A 
BRANCH   9  16
ATOM     15  C   UNL     1      -0.018   1.461   0.010  0.00  0.00    +0.125 C 
ATOM     16  N   UNL     1       0.002  -0.004   0.002  0.00  0.00    -0.344 N 
ATOM     17  H   UNL     1       0.849  -0.478  -0.009  0.00  0.00    +0.146 HD
ENDBRANCH   9  16
BRANCH  10  18
ATOM     18  O   UNL     1       0.011  -2.777  -0.002  0.00  0.00    -0.505 OA
ATOM     19  H   UNL     1       0.361  -2.970   0.878  0.00  0.00    +0.292 HD
ENDBRANCH  10  18
ENDBRANCH   7  12
ENDBRANCH   1   8
BRANCH   3  20
ATOM     20  C   UNL     1      -8.319  -6.490   0.062  0.00  0.00    +0.028 C 
ATOM     21  C   UNL     1      -7.125  -7.107   0.059  0.00  0.00    +0.010 C 
BRANCH  21  22
ATOM     22  C   UNL     1      -7.056  -8.578   0.062  0.00  0.00    -0.021 A 
ATOM     23  C   UNL     1      -5.814  -9.222   0.064  0.00  0.00    +0.055 A 
ATOM     24  C   UNL     1      -5.755 -10.601   0.067  0.00  0.00    +0.138 A 
ATOM     25  C   UNL     1      -6.933 -11.350   0.069  0.00  0.00    +0.069 A 
ATOM     26  C   UNL     1      -8.166 -10.711   0.067  0.00  0.00    +0.027 A 
ATOM     27  C   UNL     1      -8.232  -9.334   0.069  0.00  0.00    +0.010 A 
BRANCH  25  28
ATOM     28  N   UNL     1      -6.871 -12.746   0.072  0.00  0.00    -0.344 N 
ATOM     29  C   UNL     1      -8.106 -13.534   0.074  0.00  0.00    +0.125 C 
ATOM     30  H   UNL     1      -6.010 -13.193   0.073  0.00  0.00    +0.146 HD
ENDBRANCH  25  28
BRANCH  24  31
ATOM     31  O   UNL     1      -4.549 -11.230   0.069  0.00  0.00    -0.505 OA
ATOM     32  H   UNL     1      -4.200 -11.409   0.952  0.00  0.00    +0.292 HD
ENDBRANCH  24  31
ENDBRANCH  21  22
ENDBRANCH   3  20
TORSDOF 8
