REMARK  Name = ZINC13733560
REMARK  6 active torsions:
REMARK  status: ('A' for Active; 'I' for Inactive)
REMARK    1  A    between atoms: C_1  and  C_2
REMARK    2  A    between atoms: C_2  and  C_3
REMARK    3  A    between atoms: C_8  and  N_9
REMARK    4  A    between atoms: C_37  and  C_39
REMARK    5  A    between atoms: C_39  and  C_40
REMARK    6  A    between atoms: C_39  and  C_41
REMARK                            x       y       z     vdW  Elec       q    Type
REMARK                         _______ _______ _______ _____ _____    ______ ____
ROOT
ATOM      1  N   UNL     1      -1.504  -0.314  -2.393  0.00  0.00    -0.210 N 
ATOM      2  C   UNL     1      -0.808  -1.187  -3.130  0.00  0.00    +0.232 C 
ATOM      3  O   UNL     1      -0.621  -2.351  -2.847  0.00  0.00    -0.274 OA
ATOM      4  C   UNL     1      -0.291  -0.497  -4.372  0.00  0.00    +0.107 C 
ATOM      5  C   UNL     1      -0.813   0.959  -4.217  0.00  0.00    +0.121 C 
ATOM      6  C   UNL     1      -1.577   0.917  -2.913  0.00  0.00    +0.233 C 
ATOM      7  O   UNL     1      -2.163   1.854  -2.414  0.00  0.00    -0.274 OA
ATOM      8  C   UNL     1      -1.780   1.152  -5.391  0.00  0.00    +0.118 C 
ATOM      9  C   UNL     1      -1.717   2.550  -5.933  0.00  0.00    +0.005 A 
ATOM     10  C   UNL     1      -0.702   3.309  -6.474  0.00  0.00    +0.008 A 
ATOM     11  C   UNL     1      -0.955   4.602  -6.897  0.00  0.00    +0.000 A 
ATOM     12  C   UNL     1      -2.227   5.130  -6.776  0.00  0.00    +0.002 A 
ATOM     13  C   UNL     1      -3.246   4.373  -6.235  0.00  0.00    +0.026 A 
ATOM     14  C   UNL     1      -2.998   3.071  -5.807  0.00  0.00    +0.057 A 
ATOM     15  N   UNL     1      -3.862   2.124  -5.232  0.00  0.00    -0.262 N 
ATOM     16  C   UNL     1      -3.212   0.957  -4.959  0.00  0.00    +0.143 A 
ATOM     17  N   UNL     1      -3.801  -0.076  -4.428  0.00  0.00    -0.231 NA
ATOM     18  C   UNL     1      -5.115  -0.067  -4.098  0.00  0.00    +0.078 A 
ATOM     19  C   UNL     1      -5.738  -1.178  -3.527  0.00  0.00    +0.028 A 
ATOM     20  C   UNL     1      -7.076  -1.120  -3.207  0.00  0.00    +0.002 A 
ATOM     21  C   UNL     1      -7.815   0.032  -3.444  0.00  0.00    +0.001 A 
ATOM     22  C   UNL     1      -7.223   1.140  -4.008  0.00  0.00    +0.015 A 
ATOM     23  C   UNL     1      -5.870   1.102  -4.340  0.00  0.00    +0.065 A 
ATOM     24  C   UNL     1      -5.184   2.251  -4.944  0.00  0.00    +0.266 A 
ATOM     25  O   UNL     1      -5.781   3.285  -5.179  0.00  0.00    -0.267 OA
ATOM     26  N   UNL     1      -1.389   0.157  -6.407  0.00  0.00    -0.296 NA
ATOM     27  C   UNL     1      -1.021  -1.065  -5.608  0.00  0.00    +0.070 C 
ATOM     28  H   UNL     1      -2.155  -0.041  -7.033  0.00  0.00    +0.123 HD
ENDROOT
BRANCH   1  34
ATOM     29  C   UNL     1      -1.412  -0.526   0.013  0.00  0.00    -0.026 A 
ATOM     30  C   UNL     1      -2.015  -0.864   1.209  0.00  0.00    +0.005 A 
ATOM     31  C   UNL     1      -3.312  -1.342   1.219  0.00  0.00    +0.000 A 
ATOM     32  C   UNL     1      -4.010  -1.483   0.034  0.00  0.00    +0.002 A 
ATOM     33  C   UNL     1      -3.412  -1.147  -1.165  0.00  0.00    +0.024 A 
ATOM     34  C   UNL     1      -2.111  -0.661  -1.179  0.00  0.00    +0.047 A 
BRANCH  29  36
ATOM     35  C   UNL     1      -0.019   1.526   0.010  0.00  0.00    +0.009 C 
ATOM     36  C   UNL     1       0.002  -0.004   0.002  0.00  0.00    +0.033 C 
ENDBRANCH  29  36
ENDBRANCH   1  34
BRANCH  27  37
ATOM     37  C   UNL     1      -0.082  -1.965  -6.414  0.00  0.00    +0.001 C 
ATOM     38  C   UNL     1      -0.826  -2.516  -7.633  0.00  0.00    +0.009 C 
ATOM     39  C   UNL     1       1.128  -1.153  -6.879  0.00  0.00    +0.009 C 
ENDBRANCH  27  37
TORSDOF 3
