REMARK  Name = ZINC11193450
REMARK  11 active torsions:
REMARK  status: ('A' for Active; 'I' for Inactive)
REMARK    1  A    between atoms: C_1  and  C_2
REMARK    2  A    between atoms: C_2  and  N_3
REMARK    3  A    between atoms: C_5  and  C_14
REMARK    4  A    between atoms: C_14  and  N_57
REMARK    5  A    between atoms: C_15  and  N_57
REMARK    6  A    between atoms: C_16  and  C_18
REMARK    7  A    between atoms: C_16  and  C_19
REMARK    8  A    between atoms: C_16  and  N_57
REMARK    9  A    between atoms: N_21  and  C_22
REMARK   10  A    between atoms: C_25  and  O_28
REMARK   11  A    between atoms: O_28  and  C_29
REMARK                            x       y       z     vdW  Elec       q    Type
REMARK                         _______ _______ _______ _____ _____    ______ ____
ROOT
ATOM      1  C   UNL     1      -0.297   1.724  -2.439  0.00  0.00    +0.016 C 
ATOM      2  C   UNL     1      -0.117   0.289  -2.937  0.00  0.00    -0.004 C 
ENDROOT
BRANCH   1   3
ATOM      3  C   UNL     1      -1.077   2.515  -3.457  0.00  0.00    +0.203 C 
ATOM      4  O   UNL     1      -2.137   3.019  -3.150  0.00  0.00    -0.277 OA
ATOM      5  N   UNL     1      -0.598   2.662  -4.708  0.00  0.00    -0.287 N 
ATOM      6  H   UNL     1       0.282   2.322  -4.933  0.00  0.00    +0.155 HD
BRANCH   5   7
ATOM      7  C   UNL     1      -1.371   3.308  -5.682  0.00  0.00    +0.034 A 
ATOM      8  C   UNL     1      -1.315   2.885  -7.004  0.00  0.00    +0.027 A 
ATOM      9  C   UNL     1      -2.081   3.518  -7.963  0.00  0.00    +0.047 A 
ATOM     10  C   UNL     1      -2.896   4.583  -7.609  0.00  0.00    +0.127 A 
ATOM     11  C   UNL     1      -2.948   5.009  -6.289  0.00  0.00    +0.047 A 
ATOM     12  C   UNL     1      -2.187   4.373  -5.328  0.00  0.00    +0.027 A 
BRANCH  10  13
ATOM     13  O   UNL     1      -3.646   5.210  -8.555  0.00  0.00    -0.434 OA
BRANCH  13  14
ATOM     14  C   UNL     1      -3.544   4.719  -9.893  0.00  0.00    +0.541 C 
ATOM     15  F   UNL     1      -2.219   4.828 -10.330  0.00  0.00    -0.166 F 
ATOM     16  F   UNL     1      -3.938   3.377  -9.929  0.00  0.00    -0.166 F 
ENDBRANCH  13  14
ENDBRANCH  10  13
ENDBRANCH   5   7
ENDBRANCH   1   3
BRANCH   1  18
ATOM     17  C   UNL     1      -2.289   0.972  -1.287  0.00  0.00    -0.095 C 
ATOM     18  N   UNL     1      -1.032   1.739  -1.157  0.00  0.00    +0.388 N 
ATOM     19  H   UNL     1      -1.258   2.710  -0.913  0.00  0.00    -0.081 HD
BRANCH  18  20
ATOM     20  C   UNL     1      -0.195   1.158  -0.087  0.00  0.00    -0.031 C 
BRANCH  20  23
ATOM     21  N   UNL     1       2.983   2.436   1.535  0.00  0.00    -0.324 N 
ATOM     22  C   UNL     1       1.839   1.539   1.328  0.00  0.00    +0.147 C 
ATOM     23  C   UNL     1       0.969   2.109   0.200  0.00  0.00    +0.174 C 
ATOM     24  O   UNL     1       0.462   3.376   0.633  0.00  0.00    -0.487 OA
ATOM     25  C   UNL     1       1.353   4.221   1.223  0.00  0.00    +0.142 A 
ATOM     26  C   UNL     1       2.588   3.770   1.674  0.00  0.00    +0.072 A 
ATOM     27  C   UNL     1       3.463   4.664   2.282  0.00  0.00    +0.027 A 
ATOM     28  C   UNL     1       3.110   5.990   2.433  0.00  0.00    +0.002 A 
ATOM     29  C   UNL     1       1.882   6.436   1.980  0.00  0.00    +0.004 A 
ATOM     30  C   UNL     1       1.005   5.555   1.377  0.00  0.00    +0.047 A 
BRANCH  21  32
ATOM     31  C   UNL     1       4.584   0.751   2.306  0.00  0.00    +0.024 C 
ATOM     32  C   UNL     1       3.789   2.003   2.684  0.00  0.00    +0.102 C 
ENDBRANCH  21  32
ENDBRANCH  20  23
ENDBRANCH  18  20
ENDBRANCH   1  18
TORSDOF 8
