REMARK  Name = ZINC32665037
REMARK  10 active torsions:
REMARK  status: ('A' for Active; 'I' for Inactive)
REMARK    1  A    between atoms: C_1  and  C_2
REMARK    2  A    between atoms: C_2  and  C_3
REMARK    3  A    between atoms: C_3  and  N_4
REMARK    4  A    between atoms: N_4  and  C_5
REMARK    5  A    between atoms: N_4  and  C_16
REMARK    6  A    between atoms: C_5  and  C_6
REMARK    7  A    between atoms: C_9  and  C_11
REMARK    8  A    between atoms: C_16  and  C_17
REMARK    9  A    between atoms: C_20  and  C_30
REMARK   10  A    between atoms: C_23  and  C_25
REMARK                            x       y       z     vdW  Elec       q    Type
REMARK                         _______ _______ _______ _____ _____    ______ ____
ROOT
ATOM      1  C   UNL     1      -1.036  -2.361   0.533  0.00  0.00    +0.021 C 
ENDROOT
BRANCH   1   2
ATOM      2  C   UNL     1      -1.319  -0.925   0.891  0.00  0.00    +0.219 C 
ATOM      3  O   UNL     1      -2.448  -0.489   0.803  0.00  0.00    -0.276 OA
ATOM      4  N   UNL     1      -0.319  -0.124   1.310  0.00  0.00    -0.186 N 
ATOM      5  C   UNL     1      -0.457   1.290   1.690  0.00  0.00    +0.143 C 
ATOM      6  C   UNL     1       0.977   1.703   2.078  0.00  0.00    +0.088 C 
ATOM      7  C   UNL     1       1.788   0.445   1.870  0.00  0.00    +0.075 C 
ATOM      8  N   UNL     1       1.015  -0.502   1.453  0.00  0.00    -0.180 NA
BRANCH   7   9
ATOM      9  C   UNL     1       3.230   0.318   2.106  0.00  0.00    +0.035 A 
ATOM     10  C   UNL     1       4.046  -0.788   1.948  0.00  0.00    +0.017 A 
ATOM     11  C   UNL     1       5.386  -0.658   2.231  0.00  0.00    +0.008 A 
ATOM     12  C   UNL     1       5.860   0.538   2.665  0.00  0.00    +0.046 A 
ATOM     13  S   UNL     1       4.389   1.549   2.679  0.00  0.00    -0.095 S 
ENDBRANCH   7   9
BRANCH   5  14
ATOM     14  C   UNL     1      -0.946   2.107   0.522  0.00  0.00    +0.013 A 
ATOM     15  C   UNL     1      -1.829   3.135   0.509  0.00  0.00    +0.013 A 
ATOM     16  C   UNL     1      -2.130   3.747  -0.693  0.00  0.00    +0.008 A 
ATOM     17  C   UNL     1      -1.539   3.294  -1.826  0.00  0.00    +0.045 A 
ATOM     18  S   UNL     1      -0.517   1.968  -1.206  0.00  0.00    -0.100 S 
ENDBRANCH   5  14
ENDBRANCH   1   2
BRANCH   1  19
ATOM     19  N   UNL     1      -2.281  -3.015   0.110  0.00  0.00    +0.391 N 
ATOM     20  H   UNL     1      -3.037  -2.840   0.890  0.00  0.00    -0.080 HD
BRANCH  19  21
ATOM     21  C   UNL     1      -2.781  -2.434  -1.143  0.00  0.00    -0.078 C 
BRANCH  21  23
ATOM     22  C   UNL     1      -2.254  -2.008  -3.548  0.00  0.00    +0.002 C 
ATOM     23  C   UNL     1      -1.735  -2.617  -2.244  0.00  0.00    -0.022 C 
ENDBRANCH  21  23
ENDBRANCH  19  21
BRANCH  19  24
ATOM     24  C   UNL     1      -2.095  -4.467  -0.020  0.00  0.00    +0.021 C 
BRANCH  24  25
ATOM     25  C   UNL     1      -3.441  -5.142  -0.074  0.00  0.00    +0.202 A 
ATOM     26  N   UNL     1      -4.127  -5.405  -1.151  0.00  0.00    -0.114 NA
ATOM     27  N   UNL     1      -5.229  -5.987  -0.829  0.00  0.00    -0.104 NA
ATOM     28  C   UNL     1      -5.284  -6.116   0.479  0.00  0.00    +0.284 A 
ATOM     29  O   UNL     1      -4.149  -5.588   0.980  0.00  0.00    -0.420 OA
BRANCH  28  30
ATOM     30  C   UNL     1      -6.377  -6.728   1.250  0.00  0.00    +0.191 A 
ATOM     31  C   UNL     1      -7.521  -7.260   0.733  0.00  0.00    +0.055 A 
ATOM     32  C   UNL     1      -8.276  -7.731   1.823  0.00  0.00    +0.042 A 
ATOM     33  C   UNL     1      -7.570  -7.461   2.940  0.00  0.00    +0.196 A 
ATOM     34  O   UNL     1      -6.425  -6.856   2.591  0.00  0.00    -0.458 OA
ENDBRANCH  28  30
ENDBRANCH  24  25
ENDBRANCH  19  24
ENDBRANCH   1  19
TORSDOF 9
