REMARK  Name = ZINC04995029
REMARK  6 active torsions:
REMARK  status: ('A' for Active; 'I' for Inactive)
REMARK    1  A    between atoms: C_4  and  C_7
REMARK    2  A    between atoms: C_8  and  C_9
REMARK    3  A    between atoms: C_12  and  N_15
REMARK    4  A    between atoms: N_15  and  O_27
REMARK    5  A    between atoms: C_16  and  C_18
REMARK    6  A    between atoms: C_23  and  N_24
REMARK                            x       y       z     vdW  Elec       q    Type
REMARK                         _______ _______ _______ _____ _____    ______ ____
ROOT
ATOM      1  C   UNL     1      -2.177  -0.608   2.660  0.00  0.00    -0.025 A 
ATOM      2  C   UNL     1      -2.991   0.504   2.423  0.00  0.00    +0.010 A 
ATOM      3  C   UNL     1      -2.658   1.401   1.433  0.00  0.00    +0.026 A 
ATOM      4  C   UNL     1      -1.512   1.202   0.669  0.00  0.00    +0.064 A 
ATOM      5  C   UNL     1      -0.703   0.095   0.898  0.00  0.00    +0.026 A 
ATOM      6  C   UNL     1      -1.027  -0.804   1.890  0.00  0.00    +0.010 A 
ENDROOT
BRANCH   4   7
ATOM      7  N   UNL     1      -1.178   2.114  -0.335  0.00  0.00    -0.147 N 
ATOM      8  C   UNL     1       0.012   2.746  -0.302  0.00  0.00    +0.276 C 
ATOM      9  O   UNL     1       0.863   2.398   0.493  0.00  0.00    -0.267 OA
BRANCH   8  10
ATOM     10  C   UNL     1       0.284   3.858  -1.237  0.00  0.00    +0.069 A 
ATOM     11  C   UNL     1      -0.544   4.981  -1.250  0.00  0.00    +0.015 A 
ATOM     12  C   UNL     1      -0.282   6.018  -2.122  0.00  0.00    +0.001 A 
ATOM     13  C   UNL     1       0.794   5.941  -2.989  0.00  0.00    +0.002 A 
ATOM     14  C   UNL     1       1.615   4.828  -2.985  0.00  0.00    +0.033 A 
ATOM     15  C   UNL     1       1.367   3.786  -2.115  0.00  0.00    +0.138 A 
BRANCH  15  16
ATOM     16  N   UNL     1       2.247   2.596  -2.112  0.00  0.00    +0.057 N 
ATOM     17  O   UNL     1       3.449   2.727  -2.255  0.00  0.00    -0.126 OA
ATOM     18  O   UNL     1       1.768   1.485  -1.967  0.00  0.00    -0.126 OA
ENDBRANCH  15  16
ENDBRANCH   8  10
BRANCH   7  19
ATOM     19  O   UNL     1      -2.089   2.373  -1.388  0.00  0.00    -0.287 OA
ATOM     20  H   UNL     1      -2.914   1.873  -1.326  0.00  0.00    +0.242 HD
ENDBRANCH   7  19
ENDBRANCH   4   7
BRANCH   1  22
ATOM     21  C   UNL     1      -3.043  -1.132   4.880  0.00  0.00    +0.008 C 
ATOM     22  C   UNL     1      -2.530  -1.570   3.718  0.00  0.00    +0.008 C 
BRANCH  21  26
ATOM     23  C   UNL     1      -3.233   3.030   5.681  0.00  0.00    +0.000 A 
ATOM     24  C   UNL     1      -4.269   2.204   6.082  0.00  0.00    +0.001 A 
ATOM     25  C   UNL     1      -4.214   0.850   5.825  0.00  0.00    +0.008 A 
ATOM     26  C   UNL     1      -3.109   0.314   5.158  0.00  0.00    -0.025 A 
ATOM     27  C   UNL     1      -2.066   1.153   4.761  0.00  0.00    +0.008 A 
ATOM     28  C   UNL     1      -2.137   2.506   5.020  0.00  0.00    +0.001 A 
ENDBRANCH  21  26
ENDBRANCH   1  22
TORSDOF 6
