REMARK  Name = ZINC63491767
REMARK  11 active torsions:
REMARK  status: ('A' for Active; 'I' for Inactive)
REMARK    1  A    between atoms: C_1  and  C_2
REMARK    2  A    between atoms: C_2  and  O_3
REMARK    3  A    between atoms: O_3  and  C_4
REMARK    4  A    between atoms: C_8  and  C_13
REMARK    5  A    between atoms: C_9  and  O_10
REMARK    6  A    between atoms: O_10  and  C_11
REMARK    7  A    between atoms: C_11  and  C_12
REMARK    8  A    between atoms: C_13  and  C_14
REMARK    9  A    between atoms: C_29  and  C_31
REMARK   10  A    between atoms: C_34  and  S_37
REMARK   11  A    between atoms: S_37  and  C_38
REMARK                            x       y       z     vdW  Elec       q    Type
REMARK                         _______ _______ _______ _____ _____    ______ ____
ROOT
ATOM      1  C   UNL     1       3.622  -4.501  -3.773  0.00  0.00    +0.221 C 
ATOM      2  O   UNL     1       3.950  -4.018  -2.710  0.00  0.00    -0.275 OA
ATOM      3  N   UNL     1       4.562  -4.955  -4.625  0.00  0.00    -0.292 N 
ATOM      4  C   UNL     1       4.158  -5.532  -5.912  0.00  0.00    +0.113 C 
ATOM      5  C   UNL     1       4.697  -6.970  -6.020  0.00  0.00    +0.052 C 
ATOM      6  C   UNL     1       6.136  -6.928  -5.567  0.00  0.00    -0.035 C 
ATOM      7  C   UNL     1       7.250  -7.366  -6.141  0.00  0.00    -0.001 A 
ATOM      8  C   UNL     1       7.479  -8.145  -7.368  0.00  0.00    +0.010 A 
ATOM      9  C   UNL     1       8.776  -8.409  -7.678  0.00  0.00    +0.001 A 
ATOM     10  C   UNL     1       9.855  -7.980  -6.899  0.00  0.00    +0.002 A 
ATOM     11  C   UNL     1       9.736  -7.267  -5.750  0.00  0.00    +0.026 A 
ATOM     12  C   UNL     1       8.420  -6.935  -5.317  0.00  0.00    +0.043 A 
ATOM     13  N   UNL     1       8.019  -6.292  -4.260  0.00  0.00    -0.375 N 
ATOM     14  C   UNL     1       6.556  -6.287  -4.250  0.00  0.00    +0.131 C 
ATOM     15  C   UNL     1       5.984  -4.861  -4.258  0.00  0.00    +0.133 C 
ATOM     16  H   UNL     1       8.593  -5.883  -3.593  0.00  0.00    +0.160 HD
ENDROOT
BRANCH  15  17
ATOM     17  C   UNL     1       6.718  -4.019  -5.270  0.00  0.00    -0.025 A 
ATOM     18  C   UNL     1       7.415  -2.898  -4.858  0.00  0.00    +0.006 A 
ATOM     19  C   UNL     1       8.089  -2.123  -5.782  0.00  0.00    +0.015 A 
ATOM     20  C   UNL     1       8.066  -2.473  -7.127  0.00  0.00    +0.008 A 
ATOM     21  C   UNL     1       7.364  -3.600  -7.537  0.00  0.00    +0.015 A 
ATOM     22  C   UNL     1       6.698  -4.373  -6.606  0.00  0.00    +0.006 A 
BRANCH  20  23
ATOM     23  S   UNL     1       8.923  -1.488  -8.310  0.00  0.00    -0.129 S 
ATOM     24  C   UNL     1       8.607  -2.323  -9.889  0.00  0.00    +0.090 C 
ENDBRANCH  20  23
ENDBRANCH  15  17
BRANCH   1  25
ATOM     25  C   UNL     1       2.164  -4.593  -4.142  0.00  0.00    +0.135 C 
BRANCH  25  30
ATOM     26  C   UNL     1       0.316  -2.132  -1.938  0.00  0.00    +0.162 A 
ATOM     27  C   UNL     1      -0.212  -2.975  -0.973  0.00  0.00    +0.049 A 
ATOM     28  C   UNL     1       0.029  -4.335  -1.037  0.00  0.00    +0.004 A 
ATOM     29  C   UNL     1       0.796  -4.857  -2.062  0.00  0.00    +0.008 A 
ATOM     30  C   UNL     1       1.327  -4.021  -3.027  0.00  0.00    +0.007 A 
ATOM     31  C   UNL     1       1.084  -2.658  -2.972  0.00  0.00    +0.165 A 
BRANCH  26  32
ATOM     32  O   UNL     1       0.080  -0.794  -1.876  0.00  0.00    -0.489 OA
BRANCH  32  34
ATOM     33  C   UNL     1      -0.872   1.194  -0.885  0.00  0.00    +0.048 C 
ATOM     34  C   UNL     1      -0.716  -0.325  -0.787  0.00  0.00    +0.226 C 
ENDBRANCH  32  34
ENDBRANCH  26  32
BRANCH  31  35
ATOM     35  O   UNL     1       1.601  -1.835  -3.924  0.00  0.00    -0.488 OA
BRANCH  35  36
ATOM     36  C   UNL     1       2.898  -1.289  -3.675  0.00  0.00    +0.226 C 
ATOM     37  C   UNL     1       3.308  -0.396  -4.848  0.00  0.00    +0.048 C 
ENDBRANCH  35  36
ENDBRANCH  31  35
ENDBRANCH  25  30
ENDBRANCH   1  25
TORSDOF 8
