REMARK  Name = ZINC32962527
REMARK  4 active torsions:
REMARK  status: ('A' for Active; 'I' for Inactive)
REMARK    1  A    between atoms: C_13  and  C_15
REMARK    2  A    between atoms: N_18  and  S_21
REMARK    3  A    between atoms: S_21  and  C_24
REMARK    4  A    between atoms: C_28  and  C_30
REMARK                            x       y       z     vdW  Elec       q    Type
REMARK                         _______ _______ _______ _____ _____    ______ ____
ROOT
ATOM      1  C   UNL     1       0.147   9.333  -2.694  0.00  0.00    +0.078 C 
ATOM      2  C   UNL     1      -0.258   8.179  -3.615  0.00  0.00    +0.030 C 
ATOM      3  C   UNL     1      -1.174   8.712  -4.721  0.00  0.00    +0.110 C 
ATOM      4  N   UNL     1      -0.495   9.821  -5.405  0.00  0.00    -0.177 NA
ATOM      5  C   UNL     1       0.015  10.940  -4.602  0.00  0.00    +0.110 C 
ATOM      6  C   UNL     1       0.918  10.383  -3.497  0.00  0.00    +0.030 C 
ENDROOT
BRANCH   1  19
ATOM      7  C   UNL     1      -0.779   8.128   5.731  0.00  0.00    +0.005 A 
ATOM      8  C   UNL     1      -1.784   9.078   5.859  0.00  0.00    +0.018 A 
ATOM      9  C   UNL     1      -2.338   9.634   4.724  0.00  0.00    +0.084 A 
ATOM     10  N   UNL     1      -1.929   9.269   3.523  0.00  0.00    -0.350 N 
ATOM     11  C   UNL     1      -0.978   8.363   3.359  0.00  0.00    +0.099 A 
ATOM     12  C   UNL     1      -0.375   7.762   4.460  0.00  0.00    +0.042 A 
ATOM     13  N   UNL     1      -0.578   8.009   2.076  0.00  0.00    -0.314 N 
ATOM     14  C   UNL     1       0.869   8.197   1.905  0.00  0.00    +0.125 C 
ATOM     15  C   UNL     1       1.297   7.628   0.548  0.00  0.00    +0.126 C 
ATOM     16  N   UNL     1       0.463   8.238  -0.499  0.00  0.00    -0.298 N 
ATOM     17  C   UNL     1      -0.998   8.210  -0.328  0.00  0.00    +0.126 C 
ATOM     18  C   UNL     1      -1.336   8.756   1.063  0.00  0.00    +0.125 C 
ATOM     19  C   UNL     1       1.021   8.806  -1.585  0.00  0.00    +0.219 C 
ATOM     20  O   UNL     1       2.228   8.895  -1.671  0.00  0.00    -0.275 OA
ATOM     21  H   UNL     1      -2.381   9.721   2.628  0.00  0.00    +0.166 HD
ENDBRANCH   1  19
BRANCH   4  22
ATOM     22  S   UNL     1      -0.308   9.809  -7.051  0.00  0.00    +0.061 S 
ATOM     23  O   UNL     1      -1.330   8.969  -7.570  0.00  0.00    -0.153 OA
ATOM     24  O   UNL     1      -0.158  11.164  -7.452  0.00  0.00    -0.153 OA
BRANCH  22  25
ATOM     25  C   UNL     1       1.224   9.009  -7.395  0.00  0.00    +0.106 A 
ATOM     26  C   UNL     1       2.388   9.752  -7.479  0.00  0.00    +0.030 A 
ATOM     27  C   UNL     1       3.590   9.124  -7.743  0.00  0.00    +0.022 A 
ATOM     28  C   UNL     1       3.628   7.755  -7.935  0.00  0.00    +0.053 A 
ATOM     29  C   UNL     1       2.463   7.013  -7.856  0.00  0.00    +0.075 A 
ATOM     30  C   UNL     1       1.261   7.641  -7.586  0.00  0.00    +0.042 A 
ATOM     31 CL   UNL     1       5.137   6.966  -8.274  0.00  0.00    -0.083 Cl
BRANCH  29  32
ATOM     32  C   UNL     1       2.503   5.521  -8.065  0.00  0.00    +0.419 C 
ATOM     33  F   UNL     1       1.212   4.997  -7.937  0.00  0.00    -0.166 F 
ATOM     34  F   UNL     1       2.995   5.242  -9.345  0.00  0.00    -0.166 F 
ATOM     35  F   UNL     1       3.340   4.939  -7.106  0.00  0.00    -0.166 F 
ENDBRANCH  29  32
ENDBRANCH  22  25
ENDBRANCH   4  22
TORSDOF 4
