REMARK  Name = ZINC02950632
REMARK  8 active torsions:
REMARK  status: ('A' for Active; 'I' for Inactive)
REMARK    1  A    between atoms: C_1  and  C_2
REMARK    2  A    between atoms: C_2  and  C_3
REMARK    3  A    between atoms: C_3  and  C_4
REMARK    4  A    between atoms: C_4  and  C_5
REMARK    5  A    between atoms: N_7  and  C_8
REMARK    6  A    between atoms: C_13  and  C_14
REMARK    7  A    between atoms: C_21  and  C_27
REMARK    8  A    between atoms: C_22  and  C_26
REMARK                            x       y       z     vdW  Elec       q    Type
REMARK                         _______ _______ _______ _____ _____    ______ ____
ROOT
ATOM      1  C   UNL     1       6.103   3.347   0.063  0.00  0.00    +0.043 A 
ATOM      2  C   UNL     1       7.315   4.021   0.084  0.00  0.00    +0.024 A 
ATOM      3  C   UNL     1       7.343   5.398  -0.018  0.00  0.00    +0.002 A 
ATOM      4  C   UNL     1       6.164   6.115  -0.142  0.00  0.00    +0.001 A 
ATOM      5  C   UNL     1       4.951   5.460  -0.169  0.00  0.00    +0.012 A 
ATOM      6  C   UNL     1       4.908   4.069  -0.062  0.00  0.00    +0.027 A 
ENDROOT
BRANCH   6   7
ATOM      7  C   UNL     1       3.610   3.362  -0.085  0.00  0.00    +0.138 A 
ATOM      8  C   UNL     1       3.140   2.644   1.114  0.00  0.00    +0.275 A 
ATOM      9  O   UNL     1       3.813   2.630   2.128  0.00  0.00    -0.266 OA
ATOM     10  N   UNL     1       1.952   2.003   1.072  0.00  0.00    -0.319 N 
ATOM     11  H   UNL     1       1.613   1.510   1.874  0.00  0.00    +0.169 HD
ATOM     12  C   UNL     1       1.210   2.038  -0.094  0.00  0.00    +0.068 A 
ATOM     13  C   UNL     1      -0.017   1.387  -0.163  0.00  0.00    +0.031 A 
ATOM     14  C   UNL     1      -0.751   1.427  -1.329  0.00  0.00    -0.045 A 
ATOM     15  C   UNL     1      -0.275   2.113  -2.438  0.00  0.00    -0.045 A 
ATOM     16  C   UNL     1       0.926   2.759  -2.393  0.00  0.00    +0.033 A 
ATOM     17  C   UNL     1       1.693   2.734  -1.218  0.00  0.00    +0.088 A 
ATOM     18  N   UNL     1       2.877   3.372  -1.174  0.00  0.00    -0.240 NA
ATOM     19  C   UNL     1      -1.092   2.145  -3.703  0.00  0.00    +0.044 C 
ATOM     20  C   UNL     1      -2.079   0.720  -1.401  0.00  0.00    +0.044 C 
ENDBRANCH   6   7
BRANCH   1  23
ATOM     21  C   UNL     1       6.994   1.315   0.913  0.00  0.00    +0.217 C 
ATOM     22  O   UNL     1       7.789   1.951   1.572  0.00  0.00    -0.275 OA
ATOM     23  N   UNL     1       6.073   1.955   0.166  0.00  0.00    -0.285 N 
ATOM     24  H   UNL     1       5.390   1.449  -0.301  0.00  0.00    +0.155 HD
BRANCH  21  25
ATOM     25  C   UNL     1       7.035  -0.191   0.930  0.00  0.00    +0.096 C 
BRANCH  25  26
ATOM     26  C   UNL     1       8.164  -0.660   1.850  0.00  0.00    +0.009 C 
BRANCH  26  28
ATOM     27  C   UNL     1       9.335  -2.658   2.788  0.00  0.00    +0.004 C 
ATOM     28  C   UNL     1       8.206  -2.189   1.868  0.00  0.00    -0.003 C 
ENDBRANCH  26  28
ENDBRANCH  25  26
ENDBRANCH  21  25
ENDBRANCH   1  23
TORSDOF 5
