REMARK  Name = ZINC53145995
REMARK  3 active torsions:
REMARK  status: ('A' for Active; 'I' for Inactive)
REMARK    1  A    between atoms: C_6  and  C_11
REMARK    2  A    between atoms: C_9  and  N_10
REMARK    3  A    between atoms: C_11  and  C_12
REMARK                            x       y       z     vdW  Elec       q    Type
REMARK                         _______ _______ _______ _____ _____    ______ ____
ROOT
ATOM      1  C   UNL     1      -0.017   1.406   0.010  0.00  0.00    +0.028 A 
ATOM      2  C   UNL     1       1.154   2.096   0.002  0.00  0.00    +0.050 A 
ATOM      3  C   UNL     1       2.372   1.389  -0.013  0.00  0.00    +0.161 A 
ATOM      4  N   UNL     1       3.641   1.765  -0.023  0.00  0.00    -0.129 NA
ATOM      5  N   UNL     1       4.397   0.723  -0.036  0.00  0.00    -0.134 NA
ATOM      6  C   UNL     1       3.669  -0.364  -0.035  0.00  0.00    +0.138 A 
ATOM      7  N   UNL     1       2.364   0.016  -0.020  0.00  0.00    -0.285 N 
ATOM      8  C   UNL     1       1.183  -0.670  -0.013  0.00  0.00    +0.117 A 
ATOM      9  C   UNL     1       0.002  -0.004   0.002  0.00  0.00    +0.041 A 
ENDROOT
BRANCH   9  10
ATOM     10  N   UNL     1      -1.203  -0.719   0.010  0.00  0.00    -0.357 N 
ATOM     11  H   UNL     1      -2.048  -0.244   0.021  0.00  0.00    +0.142 HD
ATOM     12  H   UNL     1      -1.191  -1.689   0.005  0.00  0.00    +0.142 HD
ENDBRANCH   9  10
BRANCH   6  13
ATOM     13  C   UNL     1       4.184  -1.781  -0.048  0.00  0.00    +0.080 C 
BRANCH  13  14
ATOM     14  C   UNL     1       4.372  -2.268   1.390  0.00  0.00    -0.000 C 
ATOM     15  C   UNL     1       5.528  -1.502   2.072  0.00  0.00    +0.007 C 
ATOM     16  C   UNL     1       6.572  -2.602   2.434  0.00  0.00    -0.010 C 
ATOM     17  C   UNL     1       5.911  -3.399   3.600  0.00  0.00    +0.004 C 
ATOM     18  C   UNL     1       4.746  -4.168   2.936  0.00  0.00    +0.004 C 
ATOM     19  C   UNL     1       4.823  -3.761   1.403  0.00  0.00    -0.007 C 
ATOM     20  C   UNL     1       6.378  -3.592   1.231  0.00  0.00    +0.007 C 
ENDBRANCH  13  14
ENDBRANCH   6  13
TORSDOF 3
