REMARK  Name = ZINC36167788
REMARK  14 active torsions:
REMARK  status: ('A' for Active; 'I' for Inactive)
REMARK    1  A    between atoms: C_1  and  O_2
REMARK    2  A    between atoms: O_2  and  C_3
REMARK    3  A    between atoms: C_3  and  C_4
REMARK    4  A    between atoms: C_4  and  N_5
REMARK    5  A    between atoms: N_5  and  C_6
REMARK    6  A    between atoms: N_5  and  C_15
REMARK    7  A    between atoms: C_6  and  C_7
REMARK    8  A    between atoms: C_12  and  O_13
REMARK    9  A    between atoms: O_13  and  C_14
REMARK   10  A    between atoms: C_15  and  C_16
REMARK   11  A    between atoms: C_19  and  C_21
REMARK   12  A    between atoms: C_21  and  C_22
REMARK   13  A    between atoms: C_21  and  C_27
REMARK   14  A    between atoms: C_21  and  O_32
REMARK                            x       y       z     vdW  Elec       q    Type
REMARK                         _______ _______ _______ _____ _____    ______ ____
ROOT
ATOM      1  C   UNL     1      -4.390  -0.972  -2.040  0.00  0.00    +0.089 A 
ATOM      2  C   UNL     1      -5.379  -0.400  -2.750  0.00  0.00    +0.043 A 
ATOM      3  C   UNL     1      -6.159  -1.451  -3.285  0.00  0.00    +0.048 A 
ATOM      4  C   UNL     1      -5.600  -2.602  -2.869  0.00  0.00    +0.147 A 
ATOM      5  O   UNL     1      -4.526  -2.306  -2.120  0.00  0.00    -0.463 OA
ENDROOT
BRANCH   1   6
ATOM      6  C   UNL     1      -3.310  -0.240  -1.286  0.00  0.00    -0.003 C 
BRANCH   6   7
ATOM      7  N   UNL     1      -3.798   0.110   0.054  0.00  0.00    +0.389 N 
ATOM      8  H   UNL     1      -4.665   0.621  -0.026  0.00  0.00    -0.081 HD
BRANCH   7   9
ATOM      9  C   UNL     1      -2.800   0.944   0.737  0.00  0.00    -0.049 C 
BRANCH   9  10
ATOM     10  C   UNL     1      -2.699   2.299   0.032  0.00  0.00    +0.141 C 
BRANCH  10  12
ATOM     11  C   UNL     1      -3.992   4.225  -0.570  0.00  0.00    +0.193 C 
ATOM     12  O   UNL     1      -3.946   2.988   0.144  0.00  0.00    -0.385 OA
ENDBRANCH  10  12
ENDBRANCH   9  10
ENDBRANCH   7   9
BRANCH   7  13
ATOM     13  C   UNL     1      -4.023  -1.117   0.829  0.00  0.00    -0.039 C 
BRANCH  13  14
ATOM     14  C   UNL     1      -4.639  -0.766   2.159  0.00  0.00    -0.022 A 
ATOM     15  C   UNL     1      -3.850  -0.700   3.291  0.00  0.00    +0.005 A 
ATOM     16  C   UNL     1      -4.415  -0.378   4.511  0.00  0.00    +0.000 A 
ATOM     17  C   UNL     1      -5.770  -0.122   4.602  0.00  0.00    +0.004 A 
ATOM     18  C   UNL     1      -6.564  -0.186   3.473  0.00  0.00    +0.046 A 
ATOM     19  C   UNL     1      -5.998  -0.504   2.246  0.00  0.00    +0.121 A 
BRANCH  19  20
ATOM     20  O   UNL     1      -6.776  -0.562   1.133  0.00  0.00    -0.495 OA
ATOM     21  C   UNL     1      -8.167  -0.280   1.298  0.00  0.00    +0.277 C 
ENDBRANCH  19  20
ENDBRANCH  13  14
ENDBRANCH   7  13
ENDBRANCH   6   7
ENDBRANCH   1   6
BRANCH   4  22
ATOM     22  C   UNL     1      -6.093  -3.989  -3.194  0.00  0.00    +0.186 C 
BRANCH  22  23
ATOM     23  C   UNL     1      -4.982  -4.779  -3.837  0.00  0.00    +0.034 A 
ATOM     24  C   UNL     1      -5.063  -5.777  -4.750  0.00  0.00    +0.015 A 
ATOM     25  C   UNL     1      -3.898  -6.365  -5.205  0.00  0.00    +0.008 A 
ATOM     26  C   UNL     1      -2.709  -5.925  -4.725  0.00  0.00    +0.045 A 
ATOM     27  S   UNL     1      -3.219  -4.638  -3.598  0.00  0.00    -0.098 S 
ENDBRANCH  22  23
BRANCH  22  28
ATOM     28  C   UNL     1      -6.530  -4.676  -1.926  0.00  0.00    +0.034 A 
ATOM     29  C   UNL     1      -7.715  -5.270  -1.641  0.00  0.00    +0.015 A 
ATOM     30  C   UNL     1      -7.895  -5.845  -0.397  0.00  0.00    +0.008 A 
ATOM     31  C   UNL     1      -6.881  -5.798   0.502  0.00  0.00    +0.045 A 
ATOM     32  S   UNL     1      -5.619  -4.926  -0.411  0.00  0.00    -0.098 S 
ENDBRANCH  22  28
BRANCH  22  33
ATOM     33  O   UNL     1      -7.199  -3.903  -4.094  0.00  0.00    -0.371 OA
ATOM     34  H   UNL     1      -6.990  -3.470  -4.934  0.00  0.00    +0.212 HD
ENDBRANCH  22  33
ENDBRANCH   4  22
TORSDOF 12
