REMARK  Name = ZINC33939877
REMARK  7 active torsions:
REMARK  status: ('A' for Active; 'I' for Inactive)
REMARK    1  A    between atoms: C_4  and  C_7
REMARK    2  A    between atoms: C_7  and  N_8
REMARK    3  A    between atoms: C_9  and  C_11
REMARK    4  A    between atoms: C_19  and  C_32
REMARK    5  A    between atoms: N_25  and  C_26
REMARK    6  A    between atoms: C_26  and  C_27
REMARK    7  A    between atoms: N_34  and  C_35
REMARK                            x       y       z     vdW  Elec       q    Type
REMARK                         _______ _______ _______ _____ _____    ______ ____
ROOT
ATOM      1  C   UNL     1       5.732  -1.850   2.999  0.00  0.00    +0.199 C 
ATOM      2  C   UNL     1       6.535  -0.696   3.513  0.00  0.00    +0.127 C 
ATOM      3  C   UNL     1       7.579  -0.216   2.522  0.00  0.00    +0.009 C 
ATOM      4  C   UNL     1       8.193   0.800   3.110  0.00  0.00    +0.004 C 
ATOM      5  C   UNL     1       7.555   0.899   4.501  0.00  0.00    +0.155 C 
ATOM      6  O   UNL     1       6.160   0.468   4.212  0.00  0.00    -0.358 OA
ATOM      7  C   UNL     1       8.165  -0.356   5.236  0.00  0.00    +0.123 C 
ATOM      8  C   UNL     1       7.268  -1.464   4.685  0.00  0.00    +0.128 C 
ATOM      9  C   UNL     1       7.700  -2.680   3.972  0.00  0.00    +0.224 C 
ATOM     10  O   UNL     1       8.717  -3.309   4.170  0.00  0.00    -0.275 OA
ATOM     11  N   UNL     1       6.730  -2.965   3.042  0.00  0.00    -0.282 N 
ENDROOT
BRANCH   1  13
ATOM     12  N   UNL     1       4.102  -0.957   1.367  0.00  0.00    -0.310 N 
ATOM     13  C   UNL     1       5.267  -1.596   1.588  0.00  0.00    +0.237 C 
ATOM     14  O   UNL     1       5.942  -1.968   0.651  0.00  0.00    -0.274 OA
ATOM     15  H   UNL     1       3.562  -0.660   2.116  0.00  0.00    +0.149 HD
BRANCH  12  16
ATOM     16  C   UNL     1       3.650  -0.711  -0.005  0.00  0.00    +0.139 C 
BRANCH  16  20
ATOM     17  C   UNL     1      -0.095   1.344   0.074  0.00  0.00    +0.000 A 
ATOM     18  C   UNL     1       1.087   2.061   0.061  0.00  0.00    +0.000 A 
ATOM     19  C   UNL     1       2.299   1.396   0.036  0.00  0.00    +0.005 A 
ATOM     20  C   UNL     1       2.329   0.014   0.024  0.00  0.00    -0.030 A 
ATOM     21  C   UNL     1       1.147  -0.703   0.038  0.00  0.00    +0.005 A 
ATOM     22  C   UNL     1      -0.065  -0.038   0.062  0.00  0.00    +0.000 A 
ENDBRANCH  16  20
ENDBRANCH  12  16
ENDBRANCH   1  13
BRANCH   7  23
ATOM     23  C   UNL     1       9.608  -0.561   4.850  0.00  0.00    +0.224 C 
ATOM     24  O   UNL     1       9.948  -1.584   4.294  0.00  0.00    -0.275 OA
ATOM     25  N   UNL     1      10.520   0.393   5.123  0.00  0.00    -0.283 N 
ATOM     26  H   UNL     1      10.237   1.243   5.494  0.00  0.00    +0.155 HD
BRANCH  25  27
ATOM     27  C   UNL     1      11.877   0.156   4.872  0.00  0.00    +0.069 A 
ATOM     28  C   UNL     1      12.363  -1.144   4.845  0.00  0.00    +0.026 A 
ATOM     29  C   UNL     1      13.702  -1.375   4.597  0.00  0.00    +0.002 A 
ATOM     30  C   UNL     1      14.560  -0.313   4.376  0.00  0.00    +0.003 A 
ATOM     31  C   UNL     1      14.081   0.984   4.402  0.00  0.00    +0.040 A 
ATOM     32  C   UNL     1      12.740   1.222   4.644  0.00  0.00    +0.144 A 
ATOM     33  F   UNL     1      12.271   2.489   4.665  0.00  0.00    -0.204 F 
ENDBRANCH  25  27
ENDBRANCH   7  23
BRANCH  11  34
ATOM     34  C   UNL     1       6.679  -4.174   2.216  0.00  0.00    +0.151 C 
BRANCH  34  35
ATOM     35  C   UNL     1       5.792  -5.197   2.878  0.00  0.00    +0.007 A 
ATOM     36  C   UNL     1       4.478  -5.452   2.664  0.00  0.00    +0.013 A 
ATOM     37  C   UNL     1       3.861  -6.450   3.396  0.00  0.00    +0.008 A 
ATOM     38  C   UNL     1       4.589  -7.144   4.304  0.00  0.00    +0.045 A 
ATOM     39  S   UNL     1       6.200  -6.392   4.140  0.00  0.00    -0.100 S 
ENDBRANCH  34  35
ENDBRANCH  11  34
TORSDOF 7
