REMARK  Name = ZINC67270968
REMARK  10 active torsions:
REMARK  status: ('A' for Active; 'I' for Inactive)
REMARK    1  A    between atoms: C_1  and  C_2
REMARK    2  A    between atoms: C_7  and  C_8
REMARK    3  A    between atoms: C_8  and  C_10
REMARK    4  A    between atoms: C_8  and  N_25
REMARK    5  A    between atoms: C_10  and  C_11
REMARK    6  A    between atoms: N_13  and  C_14
REMARK    7  A    between atoms: C_14  and  C_15
REMARK    8  A    between atoms: C_15  and  C_17
REMARK    9  A    between atoms: C_15  and  N_18
REMARK   10  A    between atoms: C_21  and  C_24
REMARK                            x       y       z     vdW  Elec       q    Type
REMARK                         _______ _______ _______ _____ _____    ______ ____
ROOT
ATOM      1  C   UNL     1       3.077   1.558   3.496  0.00  0.00    +0.123 C 
ENDROOT
BRANCH   1   2
ATOM      2  C   UNL     1       2.640   2.093   4.836  0.00  0.00    +0.215 C 
ATOM      3  O   UNL     1       1.486   1.973   5.189  0.00  0.00    -0.276 OA
ATOM      4  N   UNL     1       3.532   2.704   5.641  0.00  0.00    -0.317 N 
ATOM      5  H   UNL     1       4.455   2.799   5.358  0.00  0.00    +0.149 HD
BRANCH   4   6
ATOM      6  C   UNL     1       3.107   3.224   6.943  0.00  0.00    +0.088 C 
BRANCH   6   7
ATOM      7  C   UNL     1       4.278   3.951   7.608  0.00  0.00    -0.054 C 
ATOM      8  C   UNL     1       3.864   4.410   9.008  0.00  0.00    -0.012 C 
BRANCH   7   9
ATOM      9  N   UNL     1       5.426   3.039   7.711  0.00  0.00    +0.382 N 
ATOM     10  C   UNL     1       6.591   3.777   8.212  0.00  0.00    -0.078 C 
ATOM     11  C   UNL     1       7.810   2.853   8.244  0.00  0.00    -0.016 C 
ATOM     12  C   UNL     1       7.519   1.667   9.168  0.00  0.00    -0.018 C 
ATOM     13  C   UNL     1       6.258   0.948   8.679  0.00  0.00    -0.016 C 
ATOM     14  C   UNL     1       5.097   1.943   8.630  0.00  0.00    -0.078 C 
ATOM     15  C   UNL     1       8.703   0.697   9.144  0.00  0.00    +0.007 C 
ATOM     16  H   UNL     1       5.636   2.661   6.800  0.00  0.00    -0.081 HD
ENDBRANCH   7   9
ENDBRANCH   6   7
ENDBRANCH   4   6
ENDBRANCH   1   2
BRANCH   1  17
ATOM     17  C   UNL     1       1.881   0.918   2.788  0.00  0.00    +0.114 C 
BRANCH  17  24
ATOM     18  C   UNL     1      -0.138   0.229   0.840  0.00  0.00    +0.044 C 
ATOM     19  C   UNL     1       1.321   0.164   0.468  0.00  0.00    -0.045 A 
ATOM     20  C   UNL     1       1.694  -0.220  -0.807  0.00  0.00    +0.004 A 
ATOM     21  C   UNL     1       3.032  -0.280  -1.147  0.00  0.00    +0.000 A 
ATOM     22  C   UNL     1       3.998   0.045  -0.213  0.00  0.00    +0.000 A 
ATOM     23  C   UNL     1       3.626   0.429   1.061  0.00  0.00    +0.006 A 
ATOM     24  C   UNL     1       2.287   0.493   1.400  0.00  0.00    -0.024 A 
ENDBRANCH  17  24
BRANCH  17  25
ATOM     25  N   UNL     1       1.435  -0.254   3.546  0.00  0.00    -0.292 N 
ATOM     26  C   UNL     1       2.247  -1.322   3.676  0.00  0.00    +0.298 C 
ATOM     27  O   UNL     1       3.380  -1.281   3.237  0.00  0.00    -0.253 OA
ATOM     28  N   UNL     1       1.802  -2.435   4.291  0.00  0.00    -0.313 N 
ATOM     29  H   UNL     1       0.555  -0.261   3.955  0.00  0.00    +0.151 HD
ATOM     30  H   UNL     1       0.898  -2.468   4.641  0.00  0.00    +0.146 HD
ATOM     31  H   UNL     1       2.386  -3.204   4.384  0.00  0.00    +0.146 HD
ENDBRANCH  17  25
ENDBRANCH   1  17
TORSDOF 7
