REMARK  Name = ZINC40386850
REMARK  6 active torsions:
REMARK  status: ('A' for Active; 'I' for Inactive)
REMARK    1  A    between atoms: C_1  and  C_2
REMARK    2  A    between atoms: C_2  and  N_3
REMARK    3  A    between atoms: N_3  and  C_4
REMARK    4  A    between atoms: C_7  and  C_22
REMARK    5  A    between atoms: C_9  and  N_21
REMARK    6  A    between atoms: N_10  and  C_14
REMARK                            x       y       z     vdW  Elec       q    Type
REMARK                         _______ _______ _______ _____ _____    ______ ____
ROOT
ATOM      1  N   UNL     1       0.736  -0.166   1.275  0.00  0.00    -0.303 N 
ATOM      2  C   UNL     1       0.038  -0.218   2.562  0.00  0.00    +0.132 C 
ATOM      3  C   UNL     1       2.031  -0.641   1.171  0.00  0.00    +0.220 A 
ATOM      4  N   UNL     1       2.606  -1.143   2.259  0.00  0.00    -0.213 NA
ATOM      5  C   UNL     1       3.844  -1.621   2.248  0.00  0.00    +0.091 A 
ATOM      6  C   UNL     1       4.562  -1.589   1.031  0.00  0.00    +0.086 A 
ATOM      7  C   UNL     1       5.830  -1.974   0.614  0.00  0.00    +0.131 A 
ATOM      8  N   UNL     1       5.932  -1.679  -0.697  0.00  0.00    -0.216 N 
ATOM      9  N   UNL     1       4.741  -1.101  -1.149  0.00  0.00    -0.144 NA
ATOM     10  C   UNL     1       3.887  -1.024  -0.152  0.00  0.00    +0.189 A 
ATOM     11  N   UNL     1       2.625  -0.578  -0.004  0.00  0.00    -0.193 NA
ENDROOT
BRANCH   8  12
ATOM     12  C   UNL     1       7.063  -1.915  -1.489  0.00  0.00    +0.068 A 
ATOM     13  C   UNL     1       8.334  -1.793  -0.941  0.00  0.00    +0.030 A 
ATOM     14  C   UNL     1       9.447  -2.026  -1.724  0.00  0.00    +0.040 A 
ATOM     15  C   UNL     1       9.298  -2.382  -3.054  0.00  0.00    +0.124 A 
ATOM     16  C   UNL     1       8.032  -2.503  -3.602  0.00  0.00    +0.040 A 
ATOM     17  C   UNL     1       6.915  -2.277  -2.822  0.00  0.00    +0.030 A 
ATOM     18  F   UNL     1      10.389  -2.609  -3.818  0.00  0.00    -0.205 F 
ENDBRANCH   8  12
BRANCH   5  19
ATOM     19  C   UNL     1       4.456  -2.172   3.477  0.00  0.00    +0.036 A 
ATOM     20  C   UNL     1       5.648  -1.637   3.966  0.00  0.00    +0.013 A 
ATOM     21  C   UNL     1       6.214  -2.155   5.112  0.00  0.00    +0.001 A 
ATOM     22  C   UNL     1       5.603  -3.204   5.778  0.00  0.00    +0.003 A 
ATOM     23  C   UNL     1       4.422  -3.741   5.300  0.00  0.00    +0.039 A 
ATOM     24  C   UNL     1       3.841  -3.227   4.155  0.00  0.00    +0.133 A 
ATOM     25  F   UNL     1       2.683  -3.748   3.691  0.00  0.00    -0.205 F 
ENDBRANCH   5  19
BRANCH   7  26
ATOM     26  N   UNL     1       6.808  -2.554   1.399  0.00  0.00    -0.342 N 
ATOM     27  H   UNL     1       6.642  -2.713   2.342  0.00  0.00    +0.144 HD
ATOM     28  H   UNL     1       7.660  -2.802   1.008  0.00  0.00    +0.144 HD
ENDBRANCH   7  26
BRANCH   1  30
ATOM     29  C   UNL     1       0.336   1.893   0.017  0.00  0.00    +0.024 C 
ATOM     30  C   UNL     1       0.063   0.390   0.098  0.00  0.00    +0.104 C 
ENDBRANCH   1  30
TORSDOF 4
