REMARK  Name = ZINC36637429
REMARK  12 active torsions:
REMARK  status: ('A' for Active; 'I' for Inactive)
REMARK    1  A    between atoms: C_1  and  C_2
REMARK    2  A    between atoms: C_5  and  C_38
REMARK    3  A    between atoms: N_8  and  S_10
REMARK    4  A    between atoms: S_10  and  C_13
REMARK    5  A    between atoms: C_16  and  C_19
REMARK    6  A    between atoms: N_21  and  C_22
REMARK    7  A    between atoms: C_22  and  C_23
REMARK    8  A    between atoms: C_23  and  N_24
REMARK    9  A    between atoms: N_24  and  C_25
REMARK   10  A    between atoms: N_24  and  C_26
REMARK   11  A    between atoms: C_30  and  O_36
REMARK   12  A    between atoms: O_36  and  C_37
REMARK                            x       y       z     vdW  Elec       q    Type
REMARK                         _______ _______ _______ _____ _____    ______ ____
ROOT
ATOM      1  C   UNL     1       3.807  -4.168  -4.070  0.00  0.00    +0.252 C 
ATOM      2  O   UNL     1       3.498  -5.214  -4.604  0.00  0.00    -0.270 OA
ATOM      3  N   UNL     1       4.636  -3.310  -4.696  0.00  0.00    -0.248 N 
ATOM      4  C   UNL     1       5.027  -3.554  -6.002  0.00  0.00    +0.168 A 
ATOM      5  N   UNL     1       4.696  -4.551  -6.788  0.00  0.00    -0.221 NA
ATOM      6  C   UNL     1       5.157  -4.663  -8.053  0.00  0.00    +0.122 A 
ATOM      7  C   UNL     1       4.880  -5.682  -9.000  0.00  0.00    +0.146 A 
ATOM      8  C   UNL     1       5.439  -5.644 -10.255  0.00  0.00    +0.048 A 
ATOM      9  C   UNL     1       6.287  -4.615 -10.638  0.00  0.00    +0.005 A 
ATOM     10  C   UNL     1       6.578  -3.606  -9.739  0.00  0.00    +0.017 A 
ATOM     11  C   UNL     1       6.025  -3.635  -8.482  0.00  0.00    +0.044 A 
ATOM     12  S   UNL     1       6.106  -2.587  -7.049  0.00  0.00    -0.052 S 
ENDROOT
BRANCH   1  16
ATOM     13  C   UNL     1       2.271  -3.213  -0.227  0.00  0.00    +0.106 A 
ATOM     14  C   UNL     1       1.508  -3.958  -1.107  0.00  0.00    +0.029 A 
ATOM     15  C   UNL     1       2.000  -4.272  -2.357  0.00  0.00    +0.015 A 
ATOM     16  C   UNL     1       3.272  -3.835  -2.732  0.00  0.00    +0.037 A 
ATOM     17  C   UNL     1       4.037  -3.083  -1.839  0.00  0.00    +0.015 A 
ATOM     18  C   UNL     1       3.530  -2.772  -0.594  0.00  0.00    +0.029 A 
BRANCH  13  19
ATOM     19  S   UNL     1       1.634  -2.817   1.368  0.00  0.00    +0.061 S 
ATOM     20  O   UNL     1       2.757  -2.571   2.204  0.00  0.00    -0.153 OA
ATOM     21  O   UNL     1       0.660  -3.806   1.673  0.00  0.00    -0.153 OA
BRANCH  19  27
ATOM     22  C   UNL     1       1.891   2.171   0.467  0.00  0.00    +0.009 C 
ATOM     23  C   UNL     1       1.286   0.789   0.213  0.00  0.00    +0.002 C 
ATOM     24  C   UNL     1      -0.218   0.927  -0.033  0.00  0.00    +0.009 C 
ATOM     25  C   UNL     1      -0.818  -0.452  -0.320  0.00  0.00    +0.002 C 
ATOM     26  C   UNL     1      -0.608  -1.359   0.896  0.00  0.00    +0.112 C 
ATOM     27  N   UNL     1       0.823  -1.381   1.229  0.00  0.00    -0.176 NA
ATOM     28  C   UNL     1       1.520  -0.104   1.435  0.00  0.00    +0.112 C 
ATOM     29  C   UNL     1      -0.128  -1.065  -1.540  0.00  0.00    +0.009 C 
ENDBRANCH  19  27
ENDBRANCH  13  19
ENDBRANCH   1  16
BRANCH   7  30
ATOM     30  O   UNL     1       4.053  -6.707  -8.662  0.00  0.00    -0.493 OA
ATOM     31  C   UNL     1       3.813  -7.702  -9.659  0.00  0.00    +0.277 C 
ENDBRANCH   7  30
BRANCH   3  32
ATOM     32  C   UNL     1       5.125  -2.119  -3.995  0.00  0.00    +0.097 C 
BRANCH  32  33
ATOM     33  C   UNL     1       6.566  -2.352  -3.539  0.00  0.00    -0.060 C 
BRANCH  33  34
ATOM     34  N   UNL     1       7.102  -1.113  -2.959  0.00  0.00    +0.377 N 
ATOM     35  C   UNL     1       6.359  -0.783  -1.736  0.00  0.00    -0.097 C 
ATOM     36  C   UNL     1       8.523  -1.299  -2.634  0.00  0.00    -0.097 C 
ATOM     37  H   UNL     1       7.005  -0.361  -3.625  0.00  0.00    -0.083 HD
ENDBRANCH  33  34
ENDBRANCH  32  33
ENDBRANCH   3  32
TORSDOF 7
