REMARK  Name = ZINC35308573
REMARK  3 active torsions:
REMARK  status: ('A' for Active; 'I' for Inactive)
REMARK    1  A    between atoms: N_9  and  C_12
REMARK    2  A    between atoms: C_12  and  C_13
REMARK    3  A    between atoms: C_18  and  N_19
REMARK                            x       y       z     vdW  Elec       q    Type
REMARK                         _______ _______ _______ _____ _____    ______ ____
ROOT
ATOM      1  C   UNL     1      -0.017   1.363   0.009  0.00  0.00    +0.001 A 
ATOM      2  C   UNL     1       1.165   2.092   0.002  0.00  0.00    +0.001 A 
ATOM      3  C   UNL     1       2.386   1.454  -0.013  0.00  0.00    +0.014 A 
ATOM      4  C   UNL     1       2.429   0.060  -0.021  0.00  0.00    +0.050 A 
ATOM      5  C   UNL     1       1.224  -0.679  -0.013  0.00  0.00    +0.007 A 
ATOM      6  C   UNL     1       0.002  -0.004   0.002  0.00  0.00    +0.010 A 
ATOM      7  C   UNL     1       1.300  -2.140  -0.022  0.00  0.00    +0.141 A 
ATOM      8  N   UNL     1       2.458  -2.731  -0.037  0.00  0.00    -0.176 NA
ATOM      9  N   UNL     1       3.663  -2.028  -0.045  0.00  0.00    -0.225 N 
ATOM     10  C   UNL     1       3.698  -0.679  -0.038  0.00  0.00    +0.275 A 
ATOM     11  O   UNL     1       4.762  -0.086  -0.046  0.00  0.00    -0.266 OA
ENDROOT
BRANCH   9  12
ATOM     12  C   UNL     1       4.923  -2.774  -0.062  0.00  0.00    +0.184 C 
BRANCH  12  13
ATOM     13  C   UNL     1       5.370  -3.037   1.353  0.00  0.00    -0.003 A 
ATOM     14  C   UNL     1       6.338  -2.240   1.932  0.00  0.00    +0.045 A 
ATOM     15  C   UNL     1       6.748  -2.482   3.232  0.00  0.00    +0.124 A 
ATOM     16  C   UNL     1       6.189  -3.522   3.955  0.00  0.00    +0.040 A 
ATOM     17  C   UNL     1       5.221  -4.322   3.380  0.00  0.00    +0.026 A 
ATOM     18  C   UNL     1       4.804  -4.078   2.078  0.00  0.00    +0.030 A 
ATOM     19  F   UNL     1       7.695  -1.701   3.797  0.00  0.00    -0.205 F 
BRANCH  18  20
ATOM     20  N   UNL     1       3.819  -4.882   1.496  0.00  0.00    -0.358 N 
ATOM     21  H   UNL     1       3.531  -4.713   0.585  0.00  0.00    +0.142 HD
ATOM     22  H   UNL     1       3.425  -5.609   2.003  0.00  0.00    +0.142 HD
ENDBRANCH  18  20
ENDBRANCH  12  13
ENDBRANCH   9  12
TORSDOF 3
