REMARK  Name = ZINC67585332
REMARK  12 active torsions:
REMARK  status: ('A' for Active; 'I' for Inactive)
REMARK    1  A    between atoms: C_1  and  C_2
REMARK    2  A    between atoms: C_2  and  C_3
REMARK    3  A    between atoms: C_3  and  C_4
REMARK    4  A    between atoms: N_6  and  C_7
REMARK    5  A    between atoms: C_11  and  N_14
REMARK    6  A    between atoms: C_12  and  C_13
REMARK    7  A    between atoms: N_17  and  C_18
REMARK    8  A    between atoms: C_18  and  C_20
REMARK    9  A    between atoms: C_18  and  C_21
REMARK   10  A    between atoms: C_21  and  N_22
REMARK   11  A    between atoms: C_24  and  C_31
REMARK   12  A    between atoms: C_27  and  C_30
REMARK                            x       y       z     vdW  Elec       q    Type
REMARK                         _______ _______ _______ _____ _____    ______ ____
ROOT
ATOM      1  N   UNL     1       2.835  -6.904  -3.816  0.00  0.00    -0.269 N 
ATOM      2  C   UNL     1       2.881  -8.245  -3.941  0.00  0.00    +0.304 C 
ATOM      3  O   UNL     1       2.385  -8.953  -3.086  0.00  0.00    -0.253 OA
ATOM      4  N   UNL     1       3.478  -8.802  -5.013  0.00  0.00    -0.298 N 
ATOM      5  H   UNL     1       3.288  -6.341  -4.463  0.00  0.00    +0.156 HD
ATOM      6  H   UNL     1       3.874  -8.238  -5.696  0.00  0.00    +0.150 HD
ENDROOT
BRANCH   1  11
ATOM      7  C   UNL     1       0.775  -4.549  -1.876  0.00  0.00    +0.038 A 
ATOM      8  C   UNL     1       0.751  -5.182  -0.640  0.00  0.00    +0.024 A 
ATOM      9  C   UNL     1       1.415  -6.380  -0.463  0.00  0.00    +0.004 A 
ATOM     10  C   UNL     1       2.106  -6.952  -1.514  0.00  0.00    +0.024 A 
ATOM     11  C   UNL     1       2.135  -6.324  -2.752  0.00  0.00    +0.039 A 
ATOM     12  C   UNL     1       1.464  -5.124  -2.935  0.00  0.00    -0.008 A 
ATOM     13  C   UNL     1       1.487  -4.443  -4.279  0.00  0.00    +0.047 C 
BRANCH   7  16
ATOM     14  C   UNL     1      -0.938  -3.018  -1.259  0.00  0.00    +0.217 C 
ATOM     15  O   UNL     1      -1.353  -3.824  -0.453  0.00  0.00    -0.275 OA
ATOM     16  N   UNL     1       0.102  -3.335  -2.055  0.00  0.00    -0.285 N 
ATOM     17  H   UNL     1       0.385  -2.722  -2.752  0.00  0.00    +0.155 HD
BRANCH  14  18
ATOM     18  C   UNL     1      -1.587  -1.662  -1.371  0.00  0.00    +0.096 C 
BRANCH  18  20
ATOM     19  C   UNL     1      -3.392  -0.185  -0.477  0.00  0.00    +0.004 C 
ATOM     20  C   UNL     1      -2.734  -1.561  -0.364  0.00  0.00    +0.006 C 
ENDBRANCH  18  20
ENDBRANCH  14  18
ENDBRANCH   7  16
ENDBRANCH   1  11
BRANCH   4  21
ATOM     21  C   UNL     1       3.528 -10.260  -5.149  0.00  0.00    +0.055 C 
ATOM     22  C   UNL     1       2.285 -10.745  -5.898  0.00  0.00    +0.026 C 
BRANCH  21  23
ATOM     23  C   UNL     1       4.782 -10.657  -5.931  0.00  0.00    -0.057 C 
BRANCH  23  24
ATOM     24  N   UNL     1       5.974 -10.160  -5.230  0.00  0.00    +0.381 N 
ATOM     25  C   UNL     1       7.163 -10.411  -6.052  0.00  0.00    -0.076 C 
ATOM     26  C   UNL     1       8.397  -9.823  -5.364  0.00  0.00    -0.031 C 
ATOM     27  C   UNL     1       8.573 -10.485  -3.994  0.00  0.00    +0.003 C 
ATOM     28  C   UNL     1       7.298 -10.280  -3.171  0.00  0.00    -0.031 C 
ATOM     29  C   UNL     1       6.104 -10.851  -3.941  0.00  0.00    -0.076 C 
ATOM     30  C   UNL     1       7.433 -11.003  -1.830  0.00  0.00    +0.005 C 
ATOM     31  C   UNL     1       8.213  -8.315  -5.184  0.00  0.00    +0.005 C 
ATOM     32  H   UNL     1       5.880  -9.168  -5.071  0.00  0.00    -0.082 HD
ENDBRANCH  23  24
ENDBRANCH  21  23
ENDBRANCH   4  21
TORSDOF 7
