REMARK  Name = ZINC16647751
REMARK  9 active torsions:
REMARK  status: ('A' for Active; 'I' for Inactive)
REMARK    1  A    between atoms: C_1  and  C_2
REMARK    2  A    between atoms: C_2  and  C_3
REMARK    3  A    between atoms: C_3  and  C_5
REMARK    4  A    between atoms: C_3  and  C_6
REMARK    5  A    between atoms: C_6  and  N_7
REMARK    6  A    between atoms: C_8  and  C_10
REMARK    7  A    between atoms: C_10  and  N_11
REMARK    8  A    between atoms: N_13  and  C_35
REMARK    9  A    between atoms: N_24  and  C_25
REMARK                            x       y       z     vdW  Elec       q    Type
REMARK                         _______ _______ _______ _____ _____    ______ ____
ROOT
ATOM      1  N   UNL     1       0.213   5.623  -0.407  0.00  0.00    -0.275 N 
ATOM      2  C   UNL     1       0.947   5.829   0.847  0.00  0.00    +0.217 C 
ATOM      3  N   UNL     1       0.475   4.779   1.779  0.00  0.00    -0.300 N 
ATOM      4  C   UNL     1       0.046   3.694   0.871  0.00  0.00    +0.115 C 
ATOM      5  C   UNL     1      -0.316   4.381  -0.423  0.00  0.00    +0.241 C 
ATOM      6  O   UNL     1      -0.969   3.900  -1.324  0.00  0.00    -0.273 OA
ATOM      7  C   UNL     1       1.194   2.713   0.650  0.00  0.00    +0.054 C 
ATOM      8  C   UNL     1       0.749   1.621  -0.330  0.00  0.00    +0.112 C 
ATOM      9  N   UNL     1      -0.492   1.015   0.171  0.00  0.00    -0.285 N 
ATOM     10  C   UNL     1      -1.635   1.888   0.472  0.00  0.00    +0.112 C 
ATOM     11  C   UNL     1      -1.170   2.978   1.451  0.00  0.00    +0.054 C 
ATOM     12  C   UNL     1      -0.582  -0.319   0.345  0.00  0.00    +0.306 C 
ATOM     13  O   UNL     1       0.336  -1.040   0.005  0.00  0.00    -0.252 OA
ATOM     14  N   UNL     1      -1.690  -0.853   0.896  0.00  0.00    -0.269 N 
ATOM     15  H   UNL     1      -2.449  -0.286   1.104  0.00  0.00    +0.156 HD
ENDROOT
BRANCH  14  16
ATOM     16  C   UNL     1      -1.744  -2.221   1.168  0.00  0.00    +0.042 A 
ATOM     17  C   UNL     1      -0.584  -2.960   1.253  0.00  0.00    +0.024 A 
ATOM     18  C   UNL     1      -0.627  -4.324   1.523  0.00  0.00    +0.002 A 
ATOM     19  C   UNL     1      -1.813  -4.966   1.711  0.00  0.00    +0.008 A 
ATOM     20  C   UNL     1      -3.019  -4.250   1.633  0.00  0.00    -0.016 A 
ATOM     21  C   UNL     1      -2.988  -2.859   1.363  0.00  0.00    +0.003 A 
ATOM     22  C   UNL     1      -4.194  -2.145   1.281  0.00  0.00    +0.010 A 
ATOM     23  C   UNL     1      -5.375  -2.794   1.471  0.00  0.00    +0.001 A 
ATOM     24  C   UNL     1      -5.407  -4.161   1.741  0.00  0.00    +0.001 A 
ATOM     25  C   UNL     1      -4.258  -4.886   1.823  0.00  0.00    +0.008 A 
ENDBRANCH  14  16
BRANCH   3  26
ATOM     26  C   UNL     1       1.508   4.351   2.616  0.00  0.00    +0.032 A 
ATOM     27  C   UNL     1       1.319   3.259   3.454  0.00  0.00    +0.023 A 
ATOM     28  C   UNL     1       2.344   2.835   4.276  0.00  0.00    +0.002 A 
ATOM     29  C   UNL     1       3.555   3.504   4.275  0.00  0.00    +0.000 A 
ATOM     30  C   UNL     1       3.745   4.595   3.446  0.00  0.00    +0.002 A 
ATOM     31  C   UNL     1       2.726   5.020   2.617  0.00  0.00    +0.023 A 
ENDBRANCH   3  26
BRANCH   1  32
ATOM     32  C   UNL     1       0.075   6.614  -1.478  0.00  0.00    +0.205 C 
BRANCH  32  34
ATOM     33  N   UNL     1       1.291   7.267  -3.530  0.00  0.00    -0.314 N 
ATOM     34  C   UNL     1       1.210   6.457  -2.456  0.00  0.00    +0.230 C 
ATOM     35  O   UNL     1       2.052   5.603  -2.277  0.00  0.00    -0.274 OA
ATOM     36  H   UNL     1       0.618   7.951  -3.674  0.00  0.00    +0.149 HD
BRANCH  33  37
ATOM     37  C   UNL     1       2.395   7.115  -4.481  0.00  0.00    +0.107 C 
BRANCH  37  38
ATOM     38  C   UNL     1       2.251   8.150  -5.600  0.00  0.00    +0.003 C 
ATOM     39  C   UNL     1       2.409   9.556  -5.017  0.00  0.00    +0.009 C 
BRANCH  38  41
ATOM     40  C   UNL     1       3.111   8.864  -7.834  0.00  0.00    +0.004 C 
ATOM     41  C   UNL     1       3.331   7.911  -6.657  0.00  0.00    +0.001 C 
ENDBRANCH  38  41
ENDBRANCH  37  38
ENDBRANCH  33  37
ENDBRANCH  32  34
ENDBRANCH   1  32
TORSDOF 7
