REMARK  Name = ZINC30831785
REMARK  5 active torsions:
REMARK  status: ('A' for Active; 'I' for Inactive)
REMARK    1  A    between atoms: C_1  and  C_2
REMARK    2  A    between atoms: C_3  and  C_17
REMARK    3  A    between atoms: C_7  and  C_16
REMARK    4  A    between atoms: C_17  and  O_19
REMARK    5  A    between atoms: O_19  and  C_20
REMARK                            x       y       z     vdW  Elec       q    Type
REMARK                         _______ _______ _______ _____ _____    ______ ____
ROOT
ATOM      1  C   UNL     1       6.237   2.647   2.737  0.00  0.00    +0.061 C 
ATOM      2  C   UNL     1       6.733   2.045   1.448  0.00  0.00    +0.014 C 
ATOM      3  C   UNL     1       5.908   1.258   0.738  0.00  0.00    +0.061 C 
ATOM      4  C   UNL     1       6.384   0.589  -0.534  0.00  0.00    +0.066 C 
ATOM      5  C   UNL     1       7.436   1.505  -1.187  0.00  0.00    +0.081 C 
ATOM      6  C   UNL     1       8.559   1.692  -0.158  0.00  0.00    +0.174 C 
ATOM      7  N   UNL     1       8.006   2.317   1.040  0.00  0.00    -0.310 N 
ATOM      8  O   UNL     1       9.176   0.445   0.114  0.00  0.00    -0.468 OA
ATOM      9  C   UNL     1       8.424  -0.682   0.189  0.00  0.00    +0.127 A 
ATOM     10  C   UNL     1       7.076  -0.687  -0.122  0.00  0.00    +0.002 A 
ATOM     11  C   UNL     1       6.346  -1.858  -0.051  0.00  0.00    +0.008 A 
ATOM     12  C   UNL     1       6.959  -3.033   0.343  0.00  0.00    +0.001 A 
ATOM     13  C   UNL     1       8.304  -3.034   0.664  0.00  0.00    +0.004 A 
ATOM     14  C   UNL     1       9.036  -1.867   0.589  0.00  0.00    +0.046 A 
ATOM     15  C   UNL     1       9.602   2.632  -0.765  0.00  0.00    +0.078 C 
ATOM     16  H   UNL     1       8.617   3.018   1.627  0.00  0.00    +0.149 HD
ENDROOT
BRANCH   3  17
ATOM     17  C   UNL     1       4.585   1.048   1.185  0.00  0.00    +0.337 C 
ATOM     18  O   UNL     1       3.657   1.592   0.616  0.00  0.00    -0.245 OA
BRANCH  17  19
ATOM     19  O   UNL     1       4.350   0.245   2.244  0.00  0.00    -0.458 OA
BRANCH  19  20
ATOM     20  C   UNL     1       2.988   0.078   2.642  0.00  0.00    +0.177 C 
ATOM     21  C   UNL     1       2.390  -1.216   2.037  0.00  0.00    +0.044 C 
ATOM     22  C   UNL     1       1.227  -1.574   2.985  0.00  0.00    +0.004 C 
ATOM     23  C   UNL     1       1.544  -0.916   4.339  0.00  0.00    +0.004 C 
ATOM     24  C   UNL     1       2.889  -0.180   4.166  0.00  0.00    +0.044 C 
ENDBRANCH  19  20
ENDBRANCH  17  19
ENDBRANCH   3  17
TORSDOF 3
