REMARK  Name = ZINC39982930
REMARK  7 active torsions:
REMARK  status: ('A' for Active; 'I' for Inactive)
REMARK    1  A    between atoms: C_1  and  C_2
REMARK    2  A    between atoms: C_3  and  O_26
REMARK    3  A    between atoms: C_6  and  C_9
REMARK    4  A    between atoms: C_7  and  O_8
REMARK    5  A    between atoms: C_10  and  C_19
REMARK    6  A    between atoms: C_11  and  C_15
REMARK    7  A    between atoms: C_23  and  C_25
REMARK                            x       y       z     vdW  Elec       q    Type
REMARK                         _______ _______ _______ _____ _____    ______ ____
ROOT
ATOM      1  C   UNL     1      -0.002  -2.765   2.512  0.00  0.00    +0.100 C 
ATOM      2  C   UNL     1       0.071  -2.163   3.715  0.00  0.00    +0.018 C 
ATOM      3  C   UNL     1       0.060  -3.318   4.701  0.00  0.00    +0.262 C 
ATOM      4  N   UNL     1      -0.026  -4.502   3.830  0.00  0.00    -0.170 NA
ATOM      5  N   UNL     1      -0.061  -4.115   2.660  0.00  0.00    -0.153 NA
ENDROOT
BRANCH   1  11
ATOM      6  C   UNL     1      -2.220  -1.823  -1.870  0.00  0.00    +0.051 C 
ATOM      7  C   UNL     1      -1.087  -1.600  -0.901  0.00  0.00    +0.033 A 
ATOM      8  C   UNL     1      -0.058  -0.728  -1.225  0.00  0.00    +0.123 A 
ATOM      9  C   UNL     1       0.987  -0.520  -0.335  0.00  0.00    +0.046 A 
ATOM     10  C   UNL     1       1.008  -1.179   0.877  0.00  0.00    +0.017 A 
ATOM     11  C   UNL     1      -0.022  -2.056   1.210  0.00  0.00    +0.044 A 
ATOM     12  C   UNL     1      -1.077  -2.261   0.315  0.00  0.00    +0.132 A 
BRANCH  12  13
ATOM     13  O   UNL     1      -2.087  -3.111   0.636  0.00  0.00    -0.506 OA
ATOM     14  H   UNL     1      -1.917  -4.032   0.398  0.00  0.00    +0.292 HD
ENDBRANCH  12  13
BRANCH   8  15
ATOM     15  O   UNL     1      -0.073  -0.076  -2.417  0.00  0.00    -0.506 OA
ATOM     16  H   UNL     1      -0.525   0.779  -2.392  0.00  0.00    +0.292 HD
ENDBRANCH   8  15
ENDBRANCH   1  11
BRANCH   2  17
ATOM     17  C   UNL     1       0.148  -0.688   4.012  0.00  0.00    +0.147 C 
ATOM     18  C   UNL     1      -1.104  -0.267   4.831  0.00  0.00    +0.107 C 
ATOM     19  S   UNL     1      -0.297   0.976   5.928  0.00  0.00    -0.108 S 
ATOM     20  C   UNL     1       1.386   0.405   5.749  0.00  0.00    +0.066 C 
ATOM     21  N   UNL     1       1.368  -0.413   4.750  0.00  0.00    -0.273 NA
ATOM     22  C   UNL     1       2.575   0.794   6.588  0.00  0.00    +0.073 C 
ENDBRANCH   2  17
BRANCH   3  23
ATOM     23  C   UNL     1       1.350  -3.339   5.523  0.00  0.00    +0.417 C 
ATOM     24  F   UNL     1       1.471  -2.139   6.232  0.00  0.00    -0.168 F 
ATOM     25  F   UNL     1       1.312  -4.411   6.421  0.00  0.00    -0.168 F 
ATOM     26  F   UNL     1       2.446  -3.487   4.666  0.00  0.00    -0.168 F 
ENDBRANCH   3  23
TORSDOF 5
