REMARK  Name = ZINC33123981
REMARK  3 active torsions:
REMARK  status: ('A' for Active; 'I' for Inactive)
REMARK    1  A    between atoms: C_3  and  N_18
REMARK    2  A    between atoms: C_6  and  C_7
REMARK    3  A    between atoms: N_21  and  C_22
REMARK                            x       y       z     vdW  Elec       q    Type
REMARK                         _______ _______ _______ _____ _____    ______ ____
ROOT
ATOM      1  C   UNL     1       5.976  -6.113   0.079  0.00  0.00    +0.012 A 
ATOM      2  C   UNL     1       5.950  -4.735   0.082  0.00  0.00    +0.024 A 
ATOM      3  C   UNL     1       4.734  -4.061   0.100  0.00  0.00    +0.035 A 
ATOM      4  C   UNL     1       3.541  -4.774   0.119  0.00  0.00    +0.024 A 
ATOM      5  C   UNL     1       3.560  -6.152   0.110  0.00  0.00    +0.012 A 
ATOM      6  C   UNL     1       4.779  -6.832   0.093  0.00  0.00    -0.002 A 
ENDROOT
BRANCH   6   7
ATOM      7  C   UNL     1       4.803  -8.310   0.088  0.00  0.00    +0.047 A 
ATOM      8  C   UNL     1       5.923  -9.075   0.065  0.00  0.00    +0.036 A 
ATOM      9  C   UNL     1       5.488 -10.470   0.073  0.00  0.00    +0.003 A 
ATOM     10  C   UNL     1       6.163 -11.694   0.060  0.00  0.00    +0.048 A 
ATOM     11  C   UNL     1       5.444 -12.869   0.067  0.00  0.00    +0.124 A 
ATOM     12  C   UNL     1       4.054 -12.842   0.085  0.00  0.00    +0.040 A 
ATOM     13  C   UNL     1       3.375 -11.643   0.098  0.00  0.00    +0.029 A 
ATOM     14  C   UNL     1       4.081 -10.445   0.092  0.00  0.00    +0.047 A 
ATOM     15  N   UNL     1       3.692  -9.121   0.101  0.00  0.00    -0.354 N 
ATOM     16  H   UNL     1       2.686  -8.677   0.116  0.00  0.00    +0.166 HD
ATOM     17  F   UNL     1       6.093 -14.054   0.054  0.00  0.00    -0.205 F 
ENDBRANCH   6   7
BRANCH   3  18
ATOM     18  N   UNL     1       4.712  -2.663   0.104  0.00  0.00    -0.269 N 
ATOM     19  C   UNL     1       3.738  -2.003  -0.553  0.00  0.00    +0.308 C 
ATOM     20  O   UNL     1       2.832  -2.621  -1.078  0.00  0.00    -0.252 OA
ATOM     21  N   UNL     1       3.768  -0.657  -0.627  0.00  0.00    -0.269 N 
ATOM     22  H   UNL     1       5.489  -2.102   0.643  0.00  0.00    +0.156 HD
ATOM     23  H   UNL     1       4.625  -0.103  -0.219  0.00  0.00    +0.156 HD
BRANCH  21  24
ATOM     24  C   UNL     1       2.706   0.035  -1.226  0.00  0.00    +0.038 A 
ATOM     25  C   UNL     1       2.317   1.272  -0.730  0.00  0.00    +0.027 A 
ATOM     26  C   UNL     1       1.270   1.954  -1.319  0.00  0.00    +0.051 A 
ATOM     27  C   UNL     1       0.604   1.406  -2.405  0.00  0.00    +0.162 A 
ATOM     28  C   UNL     1       0.994   0.169  -2.905  0.00  0.00    +0.164 A 
ATOM     29  C   UNL     1       2.044  -0.516  -2.313  0.00  0.00    +0.072 A 
ATOM     30  O   UNL     1       0.358  -0.381  -3.976  0.00  0.00    -0.485 OA
ATOM     31  C   UNL     1      -0.926   0.157  -4.309  0.00  0.00    +0.270 C 
ATOM     32  C   UNL     1      -0.828   1.688  -4.284  0.00  0.00    +0.270 C 
ATOM     33  O   UNL     1      -0.431   2.090  -2.967  0.00  0.00    -0.485 OA
ENDBRANCH  21  24
ENDBRANCH   3  18
TORSDOF 3
