REMARK  Name = ZINC04575379
REMARK  7 active torsions:
REMARK  status: ('A' for Active; 'I' for Inactive)
REMARK    1  A    between atoms: C_1  and  C_2
REMARK    2  A    between atoms: C_5  and  C_10
REMARK    3  A    between atoms: C_7  and  C_8
REMARK    4  A    between atoms: C_7  and  C_9
REMARK    5  A    between atoms: C_10  and  C_11
REMARK    6  A    between atoms: C_20  and  C_22
REMARK    7  A    between atoms: C_20  and  C_28
REMARK                            x       y       z     vdW  Elec       q    Type
REMARK                         _______ _______ _______ _____ _____    ______ ____
ROOT
ATOM      1  C   UNL     1       2.303   0.102   0.029  0.00  0.00    +0.206 C 
ATOM      2  N   UNL     1       0.953  -0.415   0.305  0.00  0.00    -0.319 N 
ATOM      3  C   UNL     1      -0.118   0.486   0.248  0.00  0.00    +0.036 A 
ATOM      4  C   UNL     1      -1.424   0.017   0.230  0.00  0.00    +0.023 A 
ATOM      5  C   UNL     1      -2.474   0.913   0.176  0.00  0.00    +0.002 A 
ATOM      6  C   UNL     1      -2.223   2.272   0.142  0.00  0.00    +0.000 A 
ATOM      7  C   UNL     1      -0.922   2.741   0.154  0.00  0.00    +0.009 A 
ATOM      8  C   UNL     1       0.135   1.851   0.210  0.00  0.00    +0.014 A 
ATOM      9  C   UNL     1       1.549   2.368   0.224  0.00  0.00    +0.148 C 
ATOM     10  O   UNL     1       2.439   1.359   0.704  0.00  0.00    -0.339 OA
ATOM     11  H   UNL     1       0.809  -1.350   0.520  0.00  0.00    +0.148 HD
ENDROOT
BRANCH   9  12
ATOM     12  C   UNL     1       1.950   2.761  -1.175  0.00  0.00    -0.007 A 
ATOM     13  C   UNL     1       1.024   3.340  -2.022  0.00  0.00    +0.007 A 
ATOM     14  C   UNL     1       1.393   3.706  -3.303  0.00  0.00    +0.000 A 
ATOM     15  C   UNL     1       2.685   3.483  -3.740  0.00  0.00    +0.000 A 
ATOM     16  C   UNL     1       3.610   2.899  -2.895  0.00  0.00    +0.000 A 
ATOM     17  C   UNL     1       3.242   2.539  -1.612  0.00  0.00    +0.007 A 
ENDBRANCH   9  12
BRANCH   9  18
ATOM     18  C   UNL     1       1.631   3.575   1.122  0.00  0.00    -0.007 A 
ATOM     19  C   UNL     1       1.262   4.818   0.644  0.00  0.00    +0.007 A 
ATOM     20  C   UNL     1       1.333   5.925   1.469  0.00  0.00    +0.000 A 
ATOM     21  C   UNL     1       1.782   5.790   2.769  0.00  0.00    +0.000 A 
ATOM     22  C   UNL     1       2.157   4.547   3.246  0.00  0.00    +0.000 A 
ATOM     23  C   UNL     1       2.082   3.440   2.422  0.00  0.00    +0.007 A 
ENDBRANCH   9  18
BRANCH   1  24
ATOM     24  C   UNL     1       3.351  -0.883   0.552  0.00  0.00    +0.056 C 
BRANCH  24  29
ATOM     25  C   UNL     1       8.341  -0.840   1.608  0.00  0.00    +0.039 C 
ATOM     26  C   UNL     1       6.931  -0.395   1.317  0.00  0.00    -0.071 C 
ATOM     27  C   UNL     1       6.492   0.823   1.485  0.00  0.00    -0.027 C 
ATOM     28  C   UNL     1       5.034   0.933   1.101  0.00  0.00    +0.031 C 
ATOM     29  C   UNL     1       4.751  -0.338   0.265  0.00  0.00    +0.006 C 
ATOM     30  C   UNL     1       5.840  -1.300   0.792  0.00  0.00    -0.011 C 
ATOM     31  C   UNL     1       5.282  -2.171   1.919  0.00  0.00    +0.016 C 
ATOM     32  C   UNL     1       6.374  -2.175  -0.345  0.00  0.00    +0.016 C 
ENDBRANCH  24  29
ENDBRANCH   1  24
TORSDOF 4
