REMARK  Name = ZINC12158724
REMARK  5 active torsions:
REMARK  status: ('A' for Active; 'I' for Inactive)
REMARK    1  A    between atoms: C_6  and  C_11
REMARK    2  A    between atoms: C_11  and  N_54
REMARK    3  A    between atoms: C_18  and  C_22
REMARK    4  A    between atoms: C_22  and  C_24
REMARK    5  A    between atoms: C_22  and  O_30
REMARK                            x       y       z     vdW  Elec       q    Type
REMARK                         _______ _______ _______ _____ _____    ______ ____
ROOT
ATOM      1  C   UNL     1       3.137   2.905  -2.091  0.00  0.00    -0.036 C 
ATOM      2  C   UNL     1       3.240   3.061  -3.593  0.00  0.00    +0.210 C 
ATOM      3  O   UNL     1       4.381   3.854  -3.944  0.00  0.00    -0.494 OA
ATOM      4  C   UNL     1       4.179   5.200  -3.936  0.00  0.00    +0.122 A 
ATOM      5  C   UNL     1       4.155   5.908  -5.130  0.00  0.00    +0.046 A 
ATOM      6  C   UNL     1       3.899   7.266  -5.114  0.00  0.00    +0.010 A 
ATOM      7  C   UNL     1       3.666   7.917  -3.916  0.00  0.00    -0.014 A 
ATOM      8  C   UNL     1       3.699   7.212  -2.725  0.00  0.00    +0.011 A 
ATOM      9  C   UNL     1       3.963   5.858  -2.741  0.00  0.00    -0.022 A 
ATOM     10  C   UNL     1       4.022   5.079  -1.441  0.00  0.00    -0.039 C 
ATOM     11  N   UNL     1       2.846   4.178  -1.398  0.00  0.00    +0.387 N 
ATOM     12  H   UNL     1       2.060   4.639  -1.872  0.00  0.00    -0.081 HD
ENDROOT
BRANCH  11  13
ATOM     13  C   UNL     1       2.467   3.911  -0.001  0.00  0.00    -0.042 C 
BRANCH  13  19
ATOM     14  C   UNL     1      -3.628   1.779   0.047  0.00  0.00    +0.001 A 
ATOM     15  C   UNL     1      -3.627   3.172   0.055  0.00  0.00    +0.001 A 
ATOM     16  C   UNL     1      -2.460   3.873   0.047  0.00  0.00    +0.008 A 
ATOM     17  C   UNL     1      -1.236   3.183   0.031  0.00  0.00    -0.018 A 
ATOM     18  C   UNL     1      -0.011   3.871   0.023  0.00  0.00    +0.010 A 
ATOM     19  C   UNL     1       1.155   3.170   0.008  0.00  0.00    -0.063 A 
ATOM     20  C   UNL     1       1.155   1.776   0.001  0.00  0.00    +0.002 A 
ATOM     21  C   UNL     1      -0.013   1.076   0.008  0.00  0.00    +0.009 A 
ATOM     22  C   UNL     1      -1.237   1.766   0.018  0.00  0.00    -0.018 A 
ATOM     23  C   UNL     1      -2.462   1.077   0.031  0.00  0.00    +0.008 A 
ENDBRANCH  13  19
ENDBRANCH  11  13
BRANCH   7  24
ATOM     24  C   UNL     1       3.375   9.396  -3.907  0.00  0.00    +0.176 C 
BRANCH  24  25
ATOM     25  C   UNL     1       4.667  10.162  -4.030  0.00  0.00    +0.003 A 
ATOM     26  C   UNL     1       5.321  10.622  -2.897  0.00  0.00    +0.009 A 
ATOM     27  C   UNL     1       6.506  11.323  -3.058  0.00  0.00    +0.020 A 
ATOM     28  C   UNL     1       6.994  11.538  -4.333  0.00  0.00    +0.111 A 
ATOM     29  N   UNL     1       6.345  11.085  -5.388  0.00  0.00    -0.263 NA
ATOM     30  C   UNL     1       5.218  10.410  -5.273  0.00  0.00    +0.117 A 
ENDBRANCH  24  25
BRANCH  24  31
ATOM     31  O   UNL     1       2.523   9.720  -5.007  0.00  0.00    -0.382 OA
ATOM     32  H   UNL     1       2.899   9.508  -5.872  0.00  0.00    +0.211 HD
ENDBRANCH  24  31
ENDBRANCH   7  24
TORSDOF 5
