REMARK  Name = ZINC16266005
REMARK  11 active torsions:
REMARK  status: ('A' for Active; 'I' for Inactive)
REMARK    1  A    between atoms: C_1  and  C_2
REMARK    2  A    between atoms: C_2  and  C_3
REMARK    3  A    between atoms: C_2  and  C_4
REMARK    4  A    between atoms: C_4  and  O_5
REMARK    5  A    between atoms: O_5  and  C_6
REMARK    6  A    between atoms: C_9  and  C_14
REMARK    7  A    between atoms: C_11  and  O_12
REMARK    8  A    between atoms: O_12  and  C_13
REMARK    9  A    between atoms: C_16  and  C_30
REMARK   10  A    between atoms: N_18  and  C_21
REMARK   11  A    between atoms: C_25  and  C_27
REMARK                            x       y       z     vdW  Elec       q    Type
REMARK                         _______ _______ _______ _____ _____    ______ ____
ROOT
ATOM      1  C   UNL     1       7.214  -1.015  -0.072  0.00  0.00    +0.023 C 
ATOM      2  C   UNL     1       6.127  -1.246   0.753  0.00  0.00    +0.071 C 
ATOM      3  C   UNL     1       5.319  -2.470   0.850  0.00  0.00    +0.174 C 
ATOM      4  N   UNL     1       4.404  -2.266   1.748  0.00  0.00    -0.167 NA
ATOM      5  N   UNL     1       4.498  -0.984   2.288  0.00  0.00    -0.156 N 
ATOM      6  C   UNL     1       5.527  -0.318   1.727  0.00  0.00    +0.272 C 
ATOM      7  O   UNL     1       5.887   0.820   1.974  0.00  0.00    -0.268 OA
ENDROOT
BRANCH   5   8
ATOM      8  C   UNL     1       3.649  -0.466   3.275  0.00  0.00    +0.061 A 
ATOM      9  C   UNL     1       3.840   0.829   3.745  0.00  0.00    +0.027 A 
ATOM     10  C   UNL     1       3.007   1.346   4.719  0.00  0.00    +0.023 A 
ATOM     11  C   UNL     1       1.978   0.580   5.231  0.00  0.00    +0.055 A 
ATOM     12  C   UNL     1       1.777  -0.722   4.765  0.00  0.00    +0.083 A 
ATOM     13  C   UNL     1       2.620  -1.243   3.781  0.00  0.00    +0.042 A 
ATOM     14 CL   UNL     1       0.929   1.237   6.449  0.00  0.00    -0.083 Cl
BRANCH  12  15
ATOM     15  C   UNL     1       0.679  -1.544   5.310  0.00  0.00    +0.388 C 
ATOM     16  O   UNL     1      -0.053  -1.089   6.166  0.00  0.00    -0.241 OA
ATOM     17  O   UNL     1       0.488  -2.799   4.859  0.00  0.00    -0.241 OA
ENDBRANCH  12  15
ENDBRANCH   5   8
BRANCH   1  21
ATOM     18  C   UNL     1       8.873   2.875  -0.348  0.00  0.00    +0.162 A 
ATOM     19  C   UNL     1       7.497   2.713  -0.236  0.00  0.00    +0.050 A 
ATOM     20  C   UNL     1       6.953   1.453  -0.147  0.00  0.00    +0.012 A 
ATOM     21  C   UNL     1       7.788   0.326  -0.168  0.00  0.00    -0.021 A 
ATOM     22  C   UNL     1       9.178   0.491  -0.275  0.00  0.00    +0.057 A 
ATOM     23  C   UNL     1       9.712   1.760  -0.369  0.00  0.00    +0.162 A 
BRANCH  23  24
ATOM     24  O   UNL     1      11.058   1.924  -0.478  0.00  0.00    -0.491 OA
ATOM     25  C   UNL     1      11.857   0.739  -0.493  0.00  0.00    +0.277 C 
ENDBRANCH  23  24
BRANCH  18  26
ATOM     26  O   UNL     1       9.403   4.121  -0.435  0.00  0.00    -0.488 OA
BRANCH  26  27
ATOM     27  C   UNL     1       8.488   5.218  -0.407  0.00  0.00    +0.232 C 
BRANCH  27  29
ATOM     28  C   UNL     1       8.279   7.700  -0.611  0.00  0.00    +0.010 C 
ATOM     29  C   UNL     1       9.264   6.533  -0.516  0.00  0.00    +0.020 C 
ATOM     30  C   UNL     1      10.145   6.709   0.722  0.00  0.00    +0.010 C 
ENDBRANCH  27  29
ENDBRANCH  26  27
ENDBRANCH  18  26
ENDBRANCH   1  21
BRANCH   3  31
ATOM     31  C   UNL     1       5.520  -3.735   0.055  0.00  0.00    +0.436 C 
ATOM     32  F   UNL     1       4.554  -4.677   0.426  0.00  0.00    -0.164 F 
ATOM     33  F   UNL     1       5.396  -3.453  -1.310  0.00  0.00    -0.164 F 
ATOM     34  F   UNL     1       6.795  -4.249   0.311  0.00  0.00    -0.164 F 
ENDBRANCH   3  31
TORSDOF 8
