REMARK  Name = ZINC39911598
REMARK  11 active torsions:
REMARK  status: ('A' for Active; 'I' for Inactive)
REMARK    1  A    between atoms: C_1  and  C_2
REMARK    2  A    between atoms: C_4  and  C_37
REMARK    3  A    between atoms: C_5  and  O_36
REMARK    4  A    between atoms: C_6  and  C_8
REMARK    5  A    between atoms: N_16  and  C_32
REMARK    6  A    between atoms: C_17  and  C_19
REMARK    7  A    between atoms: C_23  and  O_25
REMARK    8  A    between atoms: O_25  and  C_26
REMARK    9  A    between atoms: C_32  and  C_33
REMARK   10  A    between atoms: C_33  and  O_34
REMARK   11  A    between atoms: O_34  and  C_35
REMARK                            x       y       z     vdW  Elec       q    Type
REMARK                         _______ _______ _______ _____ _____    ______ ____
ROOT
ATOM      1  C   UNL     1      -1.067  -1.987   2.590  0.00  0.00    +0.102 A 
ATOM      2  C   UNL     1      -0.752  -1.558   3.884  0.00  0.00    +0.035 A 
ATOM      3  C   UNL     1      -0.518  -2.707   4.614  0.00  0.00    +0.126 A 
ATOM      4  N   UNL     1      -0.697  -3.750   3.750  0.00  0.00    -0.272 N 
ATOM      5  H   UNL     1      -0.600  -4.687   3.980  0.00  0.00    +0.189 HD
ATOM      6  N   UNL     1      -1.018  -3.304   2.588  0.00  0.00    -0.173 NA
ATOM      7  C   UNL     1      -0.181  -2.325   5.990  0.00  0.00    +0.266 C 
ATOM      8  O   UNL     1       0.081  -3.107   6.884  0.00  0.00    -0.268 OA
ATOM      9  N   UNL     1      -0.202  -0.986   6.123  0.00  0.00    -0.283 N 
ATOM     10  C   UNL     1      -0.559  -0.400   4.824  0.00  0.00    +0.141 C 
ENDROOT
BRANCH   1  16
ATOM     11  C   UNL     1      -1.977   2.550   0.716  0.00  0.00    +0.044 C 
ATOM     12  C   UNL     1      -1.838   1.061   0.528  0.00  0.00    -0.049 A 
ATOM     13  C   UNL     1      -2.023   0.505  -0.726  0.00  0.00    +0.010 A 
ATOM     14  C   UNL     1      -1.897  -0.859  -0.908  0.00  0.00    -0.008 A 
ATOM     15  C   UNL     1      -1.586  -1.678   0.166  0.00  0.00    +0.129 A 
ATOM     16  C   UNL     1      -1.400  -1.118   1.433  0.00  0.00    +0.044 A 
ATOM     17  C   UNL     1      -1.522   0.258   1.605  0.00  0.00    +0.017 A 
ATOM     18  C   UNL     1      -2.100  -1.458  -2.276  0.00  0.00    +0.047 C 
BRANCH  15  19
ATOM     19  O   UNL     1      -1.464  -3.019  -0.011  0.00  0.00    -0.506 OA
ATOM     20  H   UNL     1      -0.568  -3.306  -0.235  0.00  0.00    +0.292 HD
ENDBRANCH  15  19
ENDBRANCH   1  16
BRANCH  10  21
ATOM     21  C   UNL     1       0.555   0.487   4.332  0.00  0.00    -0.019 A 
ATOM     22  C   UNL     1       1.815  -0.041   4.117  0.00  0.00    +0.006 A 
ATOM     23  C   UNL     1       2.839   0.771   3.666  0.00  0.00    +0.004 A 
ATOM     24  C   UNL     1       2.606   2.112   3.428  0.00  0.00    +0.046 A 
ATOM     25  C   UNL     1       1.343   2.644   3.643  0.00  0.00    +0.129 A 
ATOM     26  C   UNL     1       0.315   1.826   4.091  0.00  0.00    +0.052 A 
BRANCH  25  27
ATOM     27  O   UNL     1       1.111   3.962   3.410  0.00  0.00    -0.456 OA
BRANCH  27  28
ATOM     28  C   UNL     1       2.162   4.739   3.037  0.00  0.00    +0.128 A 
ATOM     29  C   UNL     1       2.618   4.708   1.727  0.00  0.00    +0.046 A 
ATOM     30  C   UNL     1       3.686   5.498   1.350  0.00  0.00    +0.004 A 
ATOM     31  C   UNL     1       4.302   6.319   2.277  0.00  0.00    +0.000 A 
ATOM     32  C   UNL     1       3.850   6.351   3.584  0.00  0.00    +0.004 A 
ATOM     33  C   UNL     1       2.777   5.567   3.964  0.00  0.00    +0.046 A 
ENDBRANCH  27  28
ENDBRANCH  25  27
ENDBRANCH  10  21
BRANCH   9  34
ATOM     34  C   UNL     1       0.083  -0.241   7.352  0.00  0.00    +0.137 C 
BRANCH  34  35
ATOM     35  C   UNL     1       1.597  -0.104   7.526  0.00  0.00    +0.178 C 
BRANCH  35  36
ATOM     36  O   UNL     1       2.114   0.773   6.524  0.00  0.00    -0.381 OA
ATOM     37  C   UNL     1       3.502   1.078   6.678  0.00  0.00    +0.194 C 
ENDBRANCH  35  36
ENDBRANCH  34  35
ENDBRANCH   9  34
TORSDOF 8
