REMARK  Name = ZINC63279976
REMARK  9 active torsions:
REMARK  status: ('A' for Active; 'I' for Inactive)
REMARK    1  A    between atoms: C_1  and  C_2
REMARK    2  A    between atoms: C_2  and  C_3
REMARK    3  A    between atoms: C_3  and  C_4
REMARK    4  A    between atoms: C_6  and  C_10
REMARK    5  A    between atoms: C_12  and  C_29
REMARK    6  A    between atoms: C_13  and  C_15
REMARK    7  A    between atoms: N_17  and  C_18
REMARK    8  A    between atoms: C_18  and  C_19
REMARK    9  A    between atoms: C_19  and  C_20
REMARK                            x       y       z     vdW  Elec       q    Type
REMARK                         _______ _______ _______ _____ _____    ______ ____
ROOT
ATOM      1  C   UNL     1       6.166  -7.657   1.635  0.00  0.00    +0.253 C 
ATOM      2  O   UNL     1       7.362  -7.462   1.740  0.00  0.00    -0.270 OA
ATOM      3  N   UNL     1       5.691  -8.917   1.581  0.00  0.00    -0.311 N 
ATOM      4  H   UNL     1       4.737  -9.073   1.498  0.00  0.00    +0.149 HD
ENDROOT
BRANCH   1   8
ATOM      5  C   UNL     1       3.241  -4.838   1.419  0.00  0.00    +0.109 A 
ATOM      6  N   UNL     1       4.470  -4.363   1.529  0.00  0.00    -0.243 NA
ATOM      7  C   UNL     1       5.505  -5.157   1.608  0.00  0.00    +0.058 A 
ATOM      8  C   UNL     1       5.240  -6.521   1.570  0.00  0.00    +0.097 A 
ATOM      9  S   UNL     1       3.460  -6.506   1.426  0.00  0.00    -0.062 S 
ATOM     10  C   UNL     1       6.908  -4.623   1.733  0.00  0.00    +0.067 C 
BRANCH   5  13
ATOM     11  C   UNL     1       0.762  -2.018   1.233  0.00  0.00    +0.042 A 
ATOM     12  C   UNL     1       1.968  -2.683   1.329  0.00  0.00    +0.034 A 
ATOM     13  C   UNL     1       1.974  -4.082   1.320  0.00  0.00    +0.010 A 
ATOM     14  C   UNL     1       0.746  -4.746   1.214  0.00  0.00    +0.030 A 
ATOM     15  C   UNL     1      -0.412  -4.002   1.123  0.00  0.00    +0.111 A 
ATOM     16  N   UNL     1      -0.372  -2.683   1.141  0.00  0.00    -0.260 NA
BRANCH  11  17
ATOM     17  C   UNL     1       0.742  -0.511   1.242  0.00  0.00    +0.055 C 
BRANCH  17  19
ATOM     18  C   UNL     1      -0.019   1.526   0.010  0.00  0.00    +0.004 C 
ATOM     19  C   UNL     1       0.002  -0.004   0.002  0.00  0.00    +0.003 C 
ENDBRANCH  17  19
ENDBRANCH  11  17
ENDBRANCH   5  13
ENDBRANCH   1   8
BRANCH   3  20
ATOM     20  C   UNL     1       6.615 -10.052   1.646  0.00  0.00    +0.109 C 
BRANCH  20  21
ATOM     21  C   UNL     1       5.825 -11.359   1.564  0.00  0.00    +0.052 C 
BRANCH  21  22
ATOM     22  C   UNL     1       6.776 -12.526   1.632  0.00  0.00    -0.040 C 
ATOM     23  C   UNL     1       7.121 -13.231   2.733  0.00  0.00    -0.001 A 
ATOM     24  C   UNL     1       6.730 -13.126   4.144  0.00  0.00    +0.010 A 
ATOM     25  C   UNL     1       7.256 -13.995   5.037  0.00  0.00    +0.001 A 
ATOM     26  C   UNL     1       8.164 -14.991   4.650  0.00  0.00    +0.002 A 
ATOM     27  C   UNL     1       8.570 -15.150   3.373  0.00  0.00    +0.026 A 
ATOM     28  C   UNL     1       8.080 -14.292   2.350  0.00  0.00    +0.043 A 
ATOM     29  N   UNL     1       8.319 -14.244   1.062  0.00  0.00    -0.380 N 
ATOM     30  C   UNL     1       7.532 -13.150   0.480  0.00  0.00    +0.144 C 
ATOM     31  H   UNL     1       8.913 -14.835   0.574  0.00  0.00    +0.160 HD
ENDBRANCH  21  22
ENDBRANCH  20  21
ENDBRANCH   3  20
TORSDOF 7
