REMARK  Name = ZINC40950777
REMARK  10 active torsions:
REMARK  status: ('A' for Active; 'I' for Inactive)
REMARK    1  A    between atoms: C_1  and  C_2
REMARK    2  A    between atoms: C_2  and  O_3
REMARK    3  A    between atoms: O_3  and  C_4
REMARK    4  A    between atoms: C_9  and  C_10
REMARK    5  A    between atoms: N_11  and  N_12
REMARK    6  A    between atoms: C_13  and  C_15
REMARK    7  A    between atoms: C_15  and  O_16
REMARK    8  A    between atoms: O_16  and  C_17
REMARK    9  A    between atoms: C_19  and  C_26
REMARK   10  A    between atoms: C_21  and  C_24
REMARK                            x       y       z     vdW  Elec       q    Type
REMARK                         _______ _______ _______ _____ _____    ______ ____
ROOT
ATOM      1  N   UNL     1      -4.952   0.594   0.054  0.00  0.00    -0.204 N 
ATOM      2  C   UNL     1      -4.800   1.933   0.060  0.00  0.00    +0.270 C 
ATOM      3  O   UNL     1      -3.688   2.418   0.052  0.00  0.00    -0.270 OA
ATOM      4  H   UNL     1      -5.841   0.206   0.060  0.00  0.00    +0.177 HD
ENDROOT
BRANCH   1   6
ATOM      5  C   UNL     1      -3.970  -1.528   0.032  0.00  0.00    +0.142 C 
ATOM      6  N   UNL     1      -3.825  -0.238   0.038  0.00  0.00    -0.188 NA
BRANCH   5  12
ATOM      7  C   UNL     1      -1.498  -1.847   0.006  0.00  0.00    +0.129 A 
ATOM      8  C   UNL     1      -0.390  -2.679  -0.003  0.00  0.00    +0.047 A 
ATOM      9  C   UNL     1      -0.553  -4.051  -0.009  0.00  0.00    +0.019 A 
ATOM     10  C   UNL     1      -1.823  -4.606  -0.005  0.00  0.00    +0.019 A 
ATOM     11  C   UNL     1      -2.937  -3.792   0.004  0.00  0.00    +0.028 A 
ATOM     12  C   UNL     1      -2.785  -2.404   0.016  0.00  0.00    +0.037 A 
ATOM     13 BR   UNL     1      -2.029  -6.485  -0.014  0.00  0.00    -0.050 Br
BRANCH   7  14
ATOM     14  O   UNL     1      -1.339  -0.499   0.012  0.00  0.00    -0.492 OA
BRANCH  14  16
ATOM     15  C   UNL     1      -0.019   1.526   0.010  0.00  0.00    +0.048 C 
ATOM     16  C   UNL     1       0.002  -0.004   0.002  0.00  0.00    +0.226 C 
ENDBRANCH  14  16
ENDBRANCH   7  14
ENDBRANCH   5  12
ENDBRANCH   1   6
BRANCH   2  17
ATOM     17  C   UNL     1      -6.013   2.828   0.077  0.00  0.00    +0.326 C 
BRANCH  17  18
ATOM     18  O   UNL     1      -5.596   4.195   0.081  0.00  0.00    -0.482 OA
BRANCH  18  19
ATOM     19  C   UNL     1      -6.574   5.138   0.096  0.00  0.00    +0.136 A 
ATOM     20  C   UNL     1      -7.907   4.756   0.112  0.00  0.00    +0.051 A 
ATOM     21  C   UNL     1      -8.900   5.717   0.128  0.00  0.00    -0.028 A 
ATOM     22  C   UNL     1      -8.566   7.059   0.127  0.00  0.00    +0.048 A 
ATOM     23  C   UNL     1      -7.237   7.443   0.110  0.00  0.00    -0.014 A 
ATOM     24  C   UNL     1      -6.240   6.485   0.100  0.00  0.00    +0.064 A 
ATOM     25 BR   UNL     1      -4.423   7.010   0.085  0.00  0.00    -0.046 Br
ATOM     26  C   UNL     1      -6.875   8.906   0.109  0.00  0.00    +0.046 C 
ATOM     27 CL   UNL     1      -9.816   8.264   0.145  0.00  0.00    -0.083 Cl
ATOM     28  C   UNL     1     -10.349   5.301   0.146  0.00  0.00    +0.045 C 
ENDBRANCH  18  19
ENDBRANCH  17  18
ENDBRANCH   2  17
TORSDOF 7
