REMARK  Name = ZINC06565205
REMARK  4 active torsions:
REMARK  status: ('A' for Active; 'I' for Inactive)
REMARK    1  A    between atoms: C_1  and  C_2
REMARK    2  A    between atoms: C_9  and  N_21
REMARK    3  A    between atoms: C_10  and  C_19
REMARK    4  A    between atoms: C_11  and  C_13
REMARK                            x       y       z     vdW  Elec       q    Type
REMARK                         _______ _______ _______ _____ _____    ______ ____
ROOT
ATOM      1  C   UNL     1       2.212   0.533   3.030  0.00  0.00    +0.065 C 
ATOM      2  C   UNL     1       3.102   1.621   2.488  0.00  0.00    +0.041 A 
ATOM      3  C   UNL     1       3.207   1.992   1.203  0.00  0.00    +0.052 A 
ATOM      4  C   UNL     1       4.148   3.042   1.124  0.00  0.00    +0.245 A 
ATOM      5  N   UNL     1       4.583   3.284   2.327  0.00  0.00    -0.135 NA
ATOM      6  N   UNL     1       3.940   2.401   3.209  0.00  0.00    -0.278 N 
ATOM      7  H   UNL     1       4.078   2.357   4.199  0.00  0.00    +0.189 HD
ATOM      8  O   UNL     1       4.474   3.631  -0.057  0.00  0.00    -0.421 OA
ATOM      9  C   UNL     1       4.082   3.012  -1.189  0.00  0.00    +0.201 C 
ATOM     10  C   UNL     1       3.184   2.006  -1.239  0.00  0.00    +0.101 C 
ATOM     11  C   UNL     1       2.499   1.455  -0.014  0.00  0.00    +0.137 C 
ENDROOT
BRANCH  11  12
ATOM     12  C   UNL     1       1.057   1.892   0.002  0.00  0.00    +0.119 A 
ATOM     13  C   UNL     1      -0.013   1.076   0.008  0.00  0.00    +0.047 A 
ATOM     14  C   UNL     1      -1.159   1.903   0.017  0.00  0.00    +0.057 A 
ATOM     15  C   UNL     1      -0.722   3.176   0.026  0.00  0.00    +0.170 A 
ATOM     16  O   UNL     1       0.621   3.163   0.013  0.00  0.00    -0.452 OA
ATOM     17 BR   UNL     1      -1.813   4.720   0.044  0.00  0.00    -0.008 Br
ENDBRANCH  11  12
BRANCH   9  18
ATOM     18  N   UNL     1       4.637   3.433  -2.372  0.00  0.00    -0.328 N 
ATOM     19  H   UNL     1       5.287   4.153  -2.374  0.00  0.00    +0.145 HD
ATOM     20  H   UNL     1       4.378   3.011  -3.206  0.00  0.00    +0.145 HD
ENDBRANCH   9  18
BRANCH  10  21
ATOM     21  C   UNL     1       2.865   1.437  -2.514  0.00  0.00    +0.101 C 
ATOM     22  N   UNL     1       2.613   0.985  -3.525  0.00  0.00    -0.191 NA
ENDBRANCH  10  21
TORSDOF 3
