REMARK  Name = ZINC63386173
REMARK  13 active torsions:
REMARK  status: ('A' for Active; 'I' for Inactive)
REMARK    1  A    between atoms: C_1  and  C_2
REMARK    2  A    between atoms: C_2  and  C_3
REMARK    3  A    between atoms: C_3  and  C_4
REMARK    4  A    between atoms: C_4  and  C_5
REMARK    5  A    between atoms: C_5  and  C_6
REMARK    6  A    between atoms: C_6  and  C_7
REMARK    7  A    between atoms: C_8  and  C_41
REMARK    8  A    between atoms: C_12  and  O_18
REMARK    9  A    between atoms: O_18  and  C_19
REMARK   10  A    between atoms: C_19  and  C_20
REMARK   11  A    between atoms: C_35  and  C_37
REMARK   12  A    between atoms: C_37  and  O_39
REMARK   13  A    between atoms: O_39  and  C_40
REMARK                            x       y       z     vdW  Elec       q    Type
REMARK                         _______ _______ _______ _____ _____    ______ ____
ROOT
ATOM      1  C   UNL     1       7.440 -10.134  -8.525  0.00  0.00    +0.324 C 
ENDROOT
BRANCH   1   2
ATOM      2  C   UNL     1       7.833  -9.419  -9.791  0.00  0.00    +0.254 C 
ATOM      3  O   UNL     1       7.027  -9.284 -10.687  0.00  0.00    -0.272 OA
ATOM      4  N   UNL     1       9.081  -8.928  -9.928  0.00  0.00    -0.283 N 
ATOM      5  C   UNL     1      10.024  -9.010  -8.802  0.00  0.00    +0.137 C 
ATOM      6  C   UNL     1      10.446  -7.582  -8.438  0.00  0.00    +0.124 C 
ATOM      7  C   UNL     1      10.846  -6.901  -9.741  0.00  0.00    -0.035 C 
ATOM      8  C   UNL     1      12.087  -6.463  -9.569  0.00  0.00    -0.001 A 
ATOM      9  C   UNL     1      12.977  -5.676 -10.439  0.00  0.00    +0.010 A 
ATOM     10  C   UNL     1      14.214  -5.408  -9.944  0.00  0.00    +0.001 A 
ATOM     11  C   UNL     1      14.651  -5.839  -8.687  0.00  0.00    +0.002 A 
ATOM     12  C   UNL     1      13.898  -6.562  -7.821  0.00  0.00    +0.026 A 
ATOM     13  C   UNL     1      12.575  -6.903  -8.226  0.00  0.00    +0.043 A 
ATOM     14  N   UNL     1      11.633  -7.567  -7.581  0.00  0.00    -0.376 N 
ATOM     15  C   UNL     1       9.942  -6.869 -10.949  0.00  0.00    +0.067 C 
ATOM     16  C   UNL     1       9.488  -8.324 -11.201  0.00  0.00    +0.189 C 
ATOM     17  H   UNL     1      11.705  -7.977  -6.704  0.00  0.00    +0.160 HD
BRANCH  16  18
ATOM     18  C   UNL     1       8.323  -8.331 -12.156  0.00  0.00    +0.328 C 
ATOM     19  O   UNL     1       7.412  -7.552 -12.004  0.00  0.00    -0.249 OA
BRANCH  18  20
ATOM     20  O   UNL     1       8.297  -9.202 -13.177  0.00  0.00    -0.467 OA
ATOM     21  C   UNL     1       7.162  -9.152 -14.044  0.00  0.00    +0.280 C 
ENDBRANCH  18  20
ENDBRANCH  16  18
ENDBRANCH   1   2
BRANCH   1  22
ATOM     22  O   UNL     1       6.079 -10.557  -8.620  0.00  0.00    -0.483 OA
BRANCH  22  28
ATOM     23  C   UNL     1       2.674 -13.703  -4.305  0.00  0.00    +0.041 A 
ATOM     24  C   UNL     1       3.967 -13.294  -4.230  0.00  0.00    -0.030 A 
ATOM     25  C   UNL     1       4.533 -12.575  -5.373  0.00  0.00    +0.021 A 
ATOM     26  C   UNL     1       5.860 -12.128  -5.358  0.00  0.00    +0.015 A 
ATOM     27  C   UNL     1       6.362 -11.461  -6.438  0.00  0.00    +0.046 A 
ATOM     28  C   UNL     1       5.564 -11.223  -7.554  0.00  0.00    +0.125 A 
ATOM     29  C   UNL     1       4.249 -11.658  -7.586  0.00  0.00    +0.092 A 
ATOM     30  C   UNL     1       3.722 -12.337  -6.498  0.00  0.00    +0.143 A 
ATOM     31  O   UNL     1       2.443 -12.771  -6.509  0.00  0.00    -0.422 OA
ATOM     32  C   UNL     1       1.920 -13.434  -5.466  0.00  0.00    +0.341 A 
ATOM     33  O   UNL     1       0.763 -13.811  -5.522  0.00  0.00    -0.245 OA
ATOM     34  C   UNL     1       4.797 -13.572  -3.002  0.00  0.00    +0.045 C 
BRANCH  23  35
ATOM     35  C   UNL     1       2.048 -14.446  -3.153  0.00  0.00    +0.042 C 
BRANCH  35  36
ATOM     36  C   UNL     1       1.295 -13.460  -2.258  0.00  0.00    +0.005 C 
BRANCH  36  37
ATOM     37  C   UNL     1       0.660 -14.214  -1.089  0.00  0.00    +0.000 C 
BRANCH  37  38
ATOM     38  C   UNL     1      -0.093 -13.228  -0.194  0.00  0.00    -0.000 C 
BRANCH  38  40
ATOM     39  C   UNL     1      -1.481 -12.996   1.871  0.00  0.00    +0.004 C 
ATOM     40  C   UNL     1      -0.728 -13.983   0.976  0.00  0.00    -0.003 C 
ENDBRANCH  38  40
ENDBRANCH  37  38
ENDBRANCH  36  37
ENDBRANCH  35  36
ENDBRANCH  23  35
ENDBRANCH  22  28
ENDBRANCH   1  22
TORSDOF 10
