REMARK  Name = ZINC09937247
REMARK  8 active torsions:
REMARK  status: ('A' for Active; 'I' for Inactive)
REMARK    1  A    between atoms: C_1  and  C_2
REMARK    2  A    between atoms: C_5  and  N_9
REMARK    3  A    between atoms: C_6  and  C_8
REMARK    4  A    between atoms: C_10  and  C_12
REMARK    5  A    between atoms: C_13  and  C_34
REMARK    6  A    between atoms: C_17  and  C_18
REMARK    7  A    between atoms: C_23  and  N_33
REMARK    8  A    between atoms: C_24  and  C_26
REMARK                            x       y       z     vdW  Elec       q    Type
REMARK                         _______ _______ _______ _____ _____    ______ ____
ROOT
ATOM      1  C   UNL     1      -0.003   1.468   0.009  0.00  0.00    +0.069 A 
ATOM      2  C   UNL     1      -1.217   2.162   0.017  0.00  0.00    +0.052 A 
ATOM      3  N   UNL     1      -1.232   3.478   0.029  0.00  0.00    -0.244 NA
ATOM      4  C   UNL     1      -0.123   4.192   0.025  0.00  0.00    +0.112 A 
ATOM      5  C   UNL     1       1.163   3.609   0.012  0.00  0.00    +0.040 A 
ATOM      6  C   UNL     1       1.210   2.181   0.004  0.00  0.00    +0.043 A 
ATOM      7  C   UNL     1       2.270   4.549   0.008  0.00  0.00    +0.054 A 
ATOM      8  C   UNL     1       1.982   5.898   0.017  0.00  0.00    +0.097 A 
ATOM      9  S   UNL     1       0.201   5.939   0.031  0.00  0.00    -0.062 S 
ATOM     10  C   UNL     1      -2.517   1.399   0.016  0.00  0.00    +0.066 C 
ENDROOT
BRANCH   8  11
ATOM     11  C   UNL     1       2.886   6.988   0.015  0.00  0.00    +0.255 C 
ATOM     12  O   UNL     1       4.087   6.784   0.005  0.00  0.00    -0.269 OA
ATOM     13  N   UNL     1       2.417   8.252   0.025  0.00  0.00    -0.297 N 
ATOM     14  C   UNL     1       0.999   8.640   0.031  0.00  0.00    +0.108 C 
ATOM     15  C   UNL     1       0.946  10.182   0.017  0.00  0.00    +0.020 C 
ATOM     16  C   UNL     1       2.326  10.570  -0.576  0.00  0.00    +0.020 C 
ATOM     17  C   UNL     1       3.241   9.474   0.025  0.00  0.00    +0.108 C 
ENDBRANCH   8  11
BRANCH   6  18
ATOM     18  C   UNL     1       2.497   1.472  -0.009  0.00  0.00    +0.136 A 
ATOM     19  C   UNL     1       2.964   0.677  -1.015  0.00  0.00    +0.050 A 
ATOM     20  C   UNL     1       4.226   0.209  -0.608  0.00  0.00    +0.042 A 
ATOM     21  C   UNL     1       4.465   0.728   0.615  0.00  0.00    +0.196 A 
ATOM     22  O   UNL     1       3.420   1.488   0.973  0.00  0.00    -0.463 OA
ENDBRANCH   6  18
BRANCH   1  24
ATOM     23  N   UNL     1       0.000  -0.672  -1.169  0.00  0.00    -0.281 N 
ATOM     24  C   UNL     1       0.005  -0.004   0.002  0.00  0.00    +0.251 C 
ATOM     25  O   UNL     1       0.017  -0.618   1.052  0.00  0.00    -0.270 OA
ATOM     26  H   UNL     1      -0.090  -0.186  -2.004  0.00  0.00    +0.155 HD
BRANCH  23  31
ATOM     27  C   UNL     1       0.504  -6.321  -1.213  0.00  0.00    +0.044 C 
ATOM     28  C   UNL     1       0.370  -4.820  -1.201  0.00  0.00    -0.050 A 
ATOM     29  C   UNL     1       0.871  -4.091  -0.138  0.00  0.00    +0.005 A 
ATOM     30  C   UNL     1       0.750  -2.716  -0.124  0.00  0.00    +0.024 A 
ATOM     31  C   UNL     1       0.124  -2.064  -1.180  0.00  0.00    +0.037 A 
ATOM     32  C   UNL     1      -0.382  -2.800  -2.244  0.00  0.00    -0.029 A 
ATOM     33  C   UNL     1      -0.253  -4.175  -2.253  0.00  0.00    +0.008 A 
ATOM     34  C   UNL     1      -1.066  -2.098  -3.388  0.00  0.00    +0.045 C 
ENDBRANCH  23  31
ENDBRANCH   1  24
BRANCH   7  35
ATOM     35  N   UNL     1       3.584   4.101  -0.004  0.00  0.00    -0.356 N 
ATOM     36  H   UNL     1       3.772   3.150  -0.010  0.00  0.00    +0.142 HD
ATOM     37  H   UNL     1       4.314   4.740  -0.007  0.00  0.00    +0.142 HD
ENDBRANCH   7  35
TORSDOF 5
