REMARK  Name = ZINC63141039
REMARK  7 active torsions:
REMARK  status: ('A' for Active; 'I' for Inactive)
REMARK    1  A    between atoms: C_1  and  C_2
REMARK    2  A    between atoms: C_2  and  O_3
REMARK    3  A    between atoms: O_3  and  C_4
REMARK    4  A    between atoms: C_4  and  C_5
REMARK    5  A    between atoms: C_5  and  C_6
REMARK    6  A    between atoms: C_6  and  N_7
REMARK    7  A    between atoms: C_27  and  C_29
REMARK                            x       y       z     vdW  Elec       q    Type
REMARK                         _______ _______ _______ _____ _____    ______ ____
ROOT
ATOM      1  N   UNL     1       2.256  -4.179  -3.910  0.00  0.00    -0.291 N 
ATOM      2  C   UNL     1       1.470  -4.353  -5.121  0.00  0.00    +0.203 C 
ATOM      3  C   UNL     1       2.315  -4.721  -6.294  0.00  0.00    +0.234 C 
ATOM      4  O   UNL     1       1.758  -4.893  -7.358  0.00  0.00    -0.274 OA
ATOM      5  N   UNL     1       3.644  -4.876  -6.257  0.00  0.00    -0.279 N 
ATOM      6  C   UNL     1       4.426  -4.679  -5.041  0.00  0.00    +0.167 C 
ATOM      7  C   UNL     1       3.580  -4.317  -3.865  0.00  0.00    +0.237 C 
ATOM      8  O   UNL     1       4.133  -4.141  -2.800  0.00  0.00    -0.274 OA
ATOM      9  C   UNL     1       5.484  -3.584  -5.269  0.00  0.00    +0.065 C 
ATOM     10  C   UNL     1       6.138  -3.887  -6.595  0.00  0.00    -0.034 C 
ATOM     11  C   UNL     1       7.413  -4.003  -6.941  0.00  0.00    -0.001 A 
ATOM     12  C   UNL     1       8.658  -3.770  -6.191  0.00  0.00    +0.010 A 
ATOM     13  C   UNL     1       9.816  -4.011  -6.861  0.00  0.00    +0.001 A 
ATOM     14  C   UNL     1       9.860  -4.455  -8.186  0.00  0.00    +0.002 A 
ATOM     15  C   UNL     1       8.765  -4.686  -8.954  0.00  0.00    +0.026 A 
ATOM     16  C   UNL     1       7.489  -4.460  -8.362  0.00  0.00    +0.043 A 
ATOM     17  N   UNL     1       6.295  -4.576  -8.867  0.00  0.00    -0.375 N 
ATOM     18  C   UNL     1       5.325  -4.152  -7.857  0.00  0.00    +0.131 C 
ATOM     19  C   UNL     1       4.330  -5.263  -7.510  0.00  0.00    +0.133 C 
ATOM     20  H   UNL     1       6.085  -4.889  -9.760  0.00  0.00    +0.160 HD
ENDROOT
BRANCH  19  21
ATOM     21  C   UNL     1       3.322  -5.412  -8.620  0.00  0.00    -0.025 A 
ATOM     22  C   UNL     1       2.933  -4.306  -9.352  0.00  0.00    +0.006 A 
ATOM     23  C   UNL     1       2.008  -4.441 -10.371  0.00  0.00    +0.015 A 
ATOM     24  C   UNL     1       1.473  -5.684 -10.657  0.00  0.00    +0.018 A 
ATOM     25  C   UNL     1       1.863  -6.791  -9.925  0.00  0.00    +0.015 A 
ATOM     26  C   UNL     1       2.792  -6.655  -8.910  0.00  0.00    +0.006 A 
ATOM     27 BR   UNL     1       0.208  -5.871 -12.050  0.00  0.00    -0.050 Br
ENDBRANCH  19  21
BRANCH   1  28
ATOM     28  C   UNL     1       1.554  -3.827  -2.674  0.00  0.00    +0.110 C 
BRANCH  28  29
ATOM     29  C   UNL     1       1.466  -2.304  -2.553  0.00  0.00    +0.047 C 
BRANCH  29  30
ATOM     30  C   UNL     1       0.733  -1.937  -1.261  0.00  0.00    +0.161 C 
BRANCH  30  31
ATOM     31  O   UNL     1       0.650  -0.515  -1.148  0.00  0.00    -0.380 OA
BRANCH  31  33
ATOM     32  C   UNL     1      -0.049   1.467   0.046  0.00  0.00    +0.034 C 
ATOM     33  C   UNL     1      -0.020  -0.063   0.030  0.00  0.00    +0.156 C 
ENDBRANCH  31  33
ENDBRANCH  30  31
ENDBRANCH  29  30
ENDBRANCH  28  29
ENDBRANCH   1  28
TORSDOF 6
