REMARK  Name = ZINC29829370
REMARK  11 active torsions:
REMARK  status: ('A' for Active; 'I' for Inactive)
REMARK    1  A    between atoms: C_1  and  C_2
REMARK    2  A    between atoms: C_2  and  C_3
REMARK    3  A    between atoms: C_8  and  N_9
REMARK    4  A    between atoms: C_10  and  C_12
REMARK    5  A    between atoms: C_12  and  N_13
REMARK    6  A    between atoms: C_14  and  C_16
REMARK    7  A    between atoms: C_16  and  S_17
REMARK    8  A    between atoms: S_17  and  C_18
REMARK    9  A    between atoms: C_21  and  C_30
REMARK   10  A    between atoms: N_22  and  C_23
REMARK   11  A    between atoms: C_26  and  C_29
REMARK                            x       y       z     vdW  Elec       q    Type
REMARK                         _______ _______ _______ _____ _____    ______ ____
ROOT
ATOM      1  S   UNL     1      -1.449   2.338  -0.021  0.00  0.00    -0.076 S 
ENDROOT
BRANCH   1   2
ATOM      2  C   UNL     1      -0.016   1.312  -0.033  0.00  0.00    +0.197 A 
ATOM      3  N   UNL     1       0.002  -0.002  -0.032  0.00  0.00    -0.122 NA
ATOM      4  N   UNL     1       1.214  -0.428  -0.048  0.00  0.00    -0.128 NA
ATOM      5  C   UNL     1       2.047   0.587  -0.061  0.00  0.00    +0.169 A 
ATOM      6  N   UNL     1       1.285   1.735  -0.052  0.00  0.00    -0.270 N 
BRANCH   6   7
ATOM      7  C   UNL     1       1.746   3.059  -0.060  0.00  0.00    +0.051 A 
ATOM      8  C   UNL     1       2.443   3.546  -1.158  0.00  0.00    +0.026 A 
ATOM      9  C   UNL     1       2.892   4.852  -1.165  0.00  0.00    +0.005 A 
ATOM     10  C   UNL     1       2.656   5.672  -0.077  0.00  0.00    -0.050 A 
ATOM     11  C   UNL     1       1.967   5.188   1.020  0.00  0.00    +0.005 A 
ATOM     12  C   UNL     1       1.511   3.884   1.031  0.00  0.00    +0.026 A 
ATOM     13  C   UNL     1       3.152   7.095  -0.086  0.00  0.00    +0.044 C 
ENDBRANCH   6   7
BRANCH   5  14
ATOM     14  C   UNL     1       3.523   0.513  -0.083  0.00  0.00    +0.020 A 
ATOM     15  C   UNL     1       4.286   1.644   0.211  0.00  0.00    +0.011 A 
ATOM     16  C   UNL     1       5.664   1.566   0.195  0.00  0.00    +0.001 A 
ATOM     17  C   UNL     1       6.288   0.373  -0.123  0.00  0.00    +0.000 A 
ATOM     18  C   UNL     1       5.538  -0.750  -0.421  0.00  0.00    +0.001 A 
ATOM     19  C   UNL     1       4.160  -0.688  -0.403  0.00  0.00    +0.011 A 
ENDBRANCH   5  14
ENDBRANCH   1   2
BRANCH   1  20
ATOM     20  C   UNL     1      -2.742   1.072  -0.007  0.00  0.00    +0.173 C 
BRANCH  20  22
ATOM     21  N   UNL     1      -5.214   0.985   0.018  0.00  0.00    -0.306 N 
ATOM     22  C   UNL     1      -4.095   1.736   0.005  0.00  0.00    +0.224 C 
ATOM     23  O   UNL     1      -4.177   2.946   0.004  0.00  0.00    -0.275 OA
ATOM     24  H   UNL     1      -5.140  -0.113   0.018  0.00  0.00    +0.149 HD
BRANCH  21  25
ATOM     25  C   UNL     1      -6.529   1.630   0.029  0.00  0.00    +0.200 C 
BRANCH  25  27
ATOM     26  N   UNL     1      -8.904   0.938   0.053  0.00  0.00    -0.284 N 
ATOM     27  C   UNL     1      -7.606   0.576   0.041  0.00  0.00    +0.234 C 
ATOM     28  O   UNL     1      -7.304  -0.599   0.040  0.00  0.00    -0.274 OA
ATOM     29  H   UNL     1      -9.178   2.000   0.146  0.00  0.00    +0.155 HD
BRANCH  26  35
ATOM     30  C   UNL     1     -11.173   0.213   0.452  0.00  0.00    -0.026 A 
ATOM     31  C   UNL     1     -12.157  -0.750   0.346  0.00  0.00    +0.005 A 
ATOM     32  C   UNL     1     -11.879  -1.961  -0.261  0.00  0.00    +0.000 A 
ATOM     33  C   UNL     1     -10.616  -2.212  -0.764  0.00  0.00    +0.002 A 
ATOM     34  C   UNL     1      -9.629  -1.251  -0.666  0.00  0.00    +0.023 A 
ATOM     35  C   UNL     1      -9.903  -0.035  -0.052  0.00  0.00    +0.037 A 
BRANCH  30  37
ATOM     36  C   UNL     1     -11.859   2.562   0.045  0.00  0.00    +0.009 C 
ATOM     37  C   UNL     1     -11.477   1.533   1.112  0.00  0.00    +0.033 C 
ENDBRANCH  30  37
ENDBRANCH  26  35
ENDBRANCH  25  27
ENDBRANCH  21  25
ENDBRANCH  20  22
ENDBRANCH   1  20
TORSDOF 9
