REMARK  Name = ZINC01925154
REMARK  9 active torsions:
REMARK  status: ('A' for Active; 'I' for Inactive)
REMARK    1  A    between atoms: C_1  and  C_2
REMARK    2  A    between atoms: C_5  and  C_8
REMARK    3  A    between atoms: C_9  and  O_20
REMARK    4  A    between atoms: O_20  and  C_21
REMARK    5  A    between atoms: C_21  and  C_23
REMARK    6  A    between atoms: C_23  and  C_25
REMARK    7  A    between atoms: C_23  and  N_26
REMARK    8  A    between atoms: N_26  and  S_27
REMARK    9  A    between atoms: S_27  and  C_30
REMARK                            x       y       z     vdW  Elec       q    Type
REMARK                         _______ _______ _______ _____ _____    ______ ____
ROOT
ATOM      1  C   UNL     1       6.828  -0.417  -6.361  0.00  0.00    +0.182 A 
ATOM      2  C   UNL     1       7.141   0.260  -5.219  0.00  0.00    +0.221 A 
ATOM      3  C   UNL     1       8.502   0.530  -4.920  0.00  0.00    +0.235 A 
ATOM      4  O   UNL     1       8.821   1.137  -3.912  0.00  0.00    -0.283 OA
ATOM      5  C   UNL     1       9.515   0.043  -5.876  0.00  0.00    +0.069 A 
ATOM      6  C   UNL     1      10.876   0.258  -5.661  0.00  0.00    +0.035 A 
ATOM      7  C   UNL     1      11.792  -0.208  -6.580  0.00  0.00    +0.042 A 
ATOM      8  C   UNL     1      11.363  -0.888  -7.712  0.00  0.00    +0.023 A 
ATOM      9  C   UNL     1      10.021  -1.107  -7.935  0.00  0.00    +0.048 A 
ATOM     10  C   UNL     1       9.081  -0.645  -7.021  0.00  0.00    +0.140 A 
ATOM     11  O   UNL     1       7.763  -0.849  -7.222  0.00  0.00    -0.451 OA
ATOM     12 CL   UNL     1      13.488   0.056  -6.320  0.00  0.00    -0.084 Cl
ENDROOT
BRANCH   1  17
ATOM     13  C   UNL     1       1.293  -1.461  -7.528  0.00  0.00    +0.044 C 
ATOM     14  C   UNL     1       2.743  -1.187  -7.223  0.00  0.00    -0.050 A 
ATOM     15  C   UNL     1       3.142   0.088  -6.863  0.00  0.00    +0.004 A 
ATOM     16  C   UNL     1       4.468   0.346  -6.582  0.00  0.00    +0.012 A 
ATOM     17  C   UNL     1       5.408  -0.685  -6.661  0.00  0.00    +0.021 A 
ATOM     18  C   UNL     1       4.999  -1.968  -7.030  0.00  0.00    +0.012 A 
ATOM     19  C   UNL     1       3.669  -2.212  -7.303  0.00  0.00    +0.004 A 
ENDBRANCH   1  17
BRANCH   2  20
ATOM     20  O   UNL     1       6.158   0.678  -4.378  0.00  0.00    -0.417 OA
BRANCH  20  21
ATOM     21  C   UNL     1       5.863  -0.121  -3.341  0.00  0.00    +0.331 C 
ATOM     22  O   UNL     1       6.463  -1.163  -3.189  0.00  0.00    -0.249 OA
BRANCH  21  23
ATOM     23  C   UNL     1       4.784   0.276  -2.366  0.00  0.00    +0.182 C 
ATOM     24  C   UNL     1       3.455   0.424  -3.109  0.00  0.00    +0.037 C 
BRANCH  23  25
ATOM     25  N   UNL     1       4.655  -0.755  -1.334  0.00  0.00    -0.176 NA
ATOM     26  H   UNL     1       4.785  -1.689  -1.563  0.00  0.00    +0.149 HD
BRANCH  25  27
ATOM     27  S   UNL     1       4.286  -0.328   0.223  0.00  0.00    +0.059 S 
ATOM     28  O   UNL     1       5.171   0.727   0.575  0.00  0.00    -0.153 OA
ATOM     29  O   UNL     1       4.205  -1.535   0.967  0.00  0.00    -0.153 OA
BRANCH  27  30
ATOM     30  C   UNL     1       2.665   0.362   0.203  0.00  0.00    +0.105 A 
ATOM     31  C   UNL     1       1.564  -0.455   0.385  0.00  0.00    +0.028 A 
ATOM     32  C   UNL     1       0.292   0.086   0.369  0.00  0.00    +0.002 A 
ATOM     33  C   UNL     1       0.121   1.444   0.173  0.00  0.00    +0.000 A 
ATOM     34  C   UNL     1       1.221   2.260  -0.008  0.00  0.00    +0.002 A 
ATOM     35  C   UNL     1       2.493   1.720   0.007  0.00  0.00    +0.028 A 
ENDBRANCH  27  30
ENDBRANCH  25  27
ENDBRANCH  23  25
ENDBRANCH  21  23
ENDBRANCH  20  21
ENDBRANCH   2  20
TORSDOF 7
