REMARK  Name = ZINC40879015
REMARK  4 active torsions:
REMARK  status: ('A' for Active; 'I' for Inactive)
REMARK    1  A    between atoms: C_5  and  C_7
REMARK    2  A    between atoms: C_9  and  C_12
REMARK    3  A    between atoms: C_15  and  N_19
REMARK    4  A    between atoms: C_23  and  C_26
REMARK                            x       y       z     vdW  Elec       q    Type
REMARK                         _______ _______ _______ _____ _____    ______ ____
ROOT
ATOM      1  N   UNL     1       5.648  -8.486  -0.034  0.00  0.00    -0.327 N 
ATOM      2  C   UNL     1       6.098  -9.044  -1.317  0.00  0.00    +0.105 C 
ATOM      3  C   UNL     1       5.818 -10.550  -1.325  0.00  0.00    +0.020 C 
ATOM      4  C   UNL     1       6.469 -11.192  -0.098  0.00  0.00    +0.016 C 
ATOM      5  C   UNL     1       5.863 -10.595   1.174  0.00  0.00    +0.092 C 
ATOM      6  C   UNL     1       6.148  -9.086   1.210  0.00  0.00    +0.118 C 
ENDROOT
BRANCH   5   7
ATOM      7  C   UNL     1       6.481 -11.252   2.382  0.00  0.00    +0.220 C 
ATOM      8  O   UNL     1       7.526 -10.832   2.832  0.00  0.00    -0.275 OA
ATOM      9  N   UNL     1       5.872 -12.305   2.962  0.00  0.00    -0.298 N 
ATOM     10  C   UNL     1       4.676 -12.905   2.354  0.00  0.00    +0.126 C 
ATOM     11  C   UNL     1       4.933 -14.402   2.142  0.00  0.00    +0.125 C 
ATOM     12  N   UNL     1       5.453 -14.971   3.392  0.00  0.00    -0.314 N 
ATOM     13  C   UNL     1       6.650 -14.371   4.000  0.00  0.00    +0.125 C 
ATOM     14  C   UNL     1       6.396 -12.878   4.210  0.00  0.00    +0.126 C 
ATOM     15  C   UNL     1       4.825 -16.058   3.990  0.00  0.00    +0.099 A 
ATOM     16  C   UNL     1       3.770 -16.688   3.339  0.00  0.00    +0.042 A 
ATOM     17  C   UNL     1       3.154 -17.768   3.946  0.00  0.00    +0.005 A 
ATOM     18  C   UNL     1       3.616 -18.183   5.188  0.00  0.00    +0.018 A 
ATOM     19  C   UNL     1       4.668 -17.511   5.777  0.00  0.00    +0.084 A 
ATOM     20  N   UNL     1       5.241 -16.487   5.172  0.00  0.00    -0.350 N 
ATOM     21  H   UNL     1       5.981 -16.035   5.606  0.00  0.00    +0.166 HD
ENDBRANCH   5   7
BRANCH   1  25
ATOM     22  C   UNL     1       3.020  -5.253   0.070  0.00  0.00    +0.025 A 
ATOM     23  C   UNL     1       4.397  -5.034   0.044  0.00  0.00    +0.013 A 
ATOM     24  C   UNL     1       5.264  -6.105   0.010  0.00  0.00    +0.027 A 
ATOM     25  C   UNL     1       4.768  -7.403   0.001  0.00  0.00    +0.065 A 
ATOM     26  C   UNL     1       3.394  -7.625   0.027  0.00  0.00    +0.145 A 
ATOM     27  C   UNL     1       2.523  -6.556   0.067  0.00  0.00    +0.052 A 
ATOM     28  F   UNL     1       2.913  -8.888   0.018  0.00  0.00    -0.204 F 
BRANCH  22  31
ATOM     29  C   UNL     1       1.371  -2.049   0.149  0.00  0.00    +0.277 A 
ATOM     30  N   UNL     1       2.441  -2.807   0.114  0.00  0.00    -0.186 NA
ATOM     31  C   UNL     1       2.086  -4.102   0.107  0.00  0.00    +0.203 A 
ATOM     32  N   UNL     1       0.777  -4.181   0.138  0.00  0.00    -0.056 NA
ATOM     33  O   UNL     1       0.290  -2.848   0.171  0.00  0.00    -0.331 OA
BRANCH  29  38
ATOM     34  C   UNL     1       0.143   1.494   0.228  0.00  0.00    +0.004 A 
ATOM     35  C   UNL     1       1.363   2.154   0.200  0.00  0.00    +0.020 A 
ATOM     36  C   UNL     1       2.533   1.416   0.157  0.00  0.00    +0.111 A 
ATOM     37  N   UNL     1       2.503   0.100   0.142  0.00  0.00    -0.250 NA
ATOM     38  C   UNL     1       1.357  -0.570   0.167  0.00  0.00    +0.128 A 
ATOM     39  C   UNL     1       0.140   0.109   0.211  0.00  0.00    +0.033 A 
ENDBRANCH  29  38
ENDBRANCH  22  31
ENDBRANCH   1  25
TORSDOF 4
