REMARK  Name = ZINC15018613
REMARK  13 active torsions:
REMARK  status: ('A' for Active; 'I' for Inactive)
REMARK    1  A    between atoms: C_1  and  C_2
REMARK    2  A    between atoms: C_4  and  C_32
REMARK    3  A    between atoms: C_5  and  C_30
REMARK    4  A    between atoms: C_6  and  S_8
REMARK    5  A    between atoms: S_8  and  C_9
REMARK    6  A    between atoms: C_9  and  C_10
REMARK    7  A    between atoms: N_12  and  N_13
REMARK    8  A    between atoms: C_14  and  C_15
REMARK    9  A    between atoms: C_17  and  C_29
REMARK   10  A    between atoms: N_18  and  C_21
REMARK   11  A    between atoms: C_19  and  C_20
REMARK   12  A    between atoms: C_32  and  O_33
REMARK   13  A    between atoms: O_33  and  C_34
REMARK                            x       y       z     vdW  Elec       q    Type
REMARK                         _______ _______ _______ _____ _____    ______ ____
ROOT
ATOM      1  C   UNL     1       6.071   6.035   4.561  0.00  0.00    +0.242 C 
ATOM      2  O   UNL     1       5.014   5.641   5.009  0.00  0.00    -0.273 OA
ATOM      3  N   UNL     1       6.478   5.631   3.341  0.00  0.00    -0.206 N 
ATOM      4  H   UNL     1       7.323   5.945   2.983  0.00  0.00    +0.177 HD
ENDROOT
BRANCH   3   5
ATOM      5  N   UNL     1       5.681   4.758   2.590  0.00  0.00    -0.188 NA
ATOM      6  C   UNL     1       6.072   4.369   1.415  0.00  0.00    +0.140 C 
BRANCH   6   7
ATOM      7  C   UNL     1       5.233   3.450   0.625  0.00  0.00    +0.016 A 
ATOM      8  C   UNL     1       5.526   2.919  -0.709  0.00  0.00    +0.032 A 
ATOM      9  C   UNL     1       4.492   2.125  -1.043  0.00  0.00    +0.022 A 
ATOM     10  N   UNL     1       3.587   2.126  -0.020  0.00  0.00    -0.317 N 
ATOM     11  C   UNL     1       4.024   2.928   0.988  0.00  0.00    +0.030 A 
ATOM     12  C   UNL     1       3.301   3.192   2.283  0.00  0.00    +0.064 C 
ATOM     13  C   UNL     1       4.356   1.359  -2.334  0.00  0.00    +0.064 C 
BRANCH  10  14
ATOM     14  C   UNL     1       2.381   1.410  -0.013  0.00  0.00    +0.048 A 
ATOM     15  C   UNL     1       2.397   0.022  -0.021  0.00  0.00    +0.027 A 
ATOM     16  C   UNL     1       1.209  -0.682  -0.013  0.00  0.00    +0.023 A 
ATOM     17  C   UNL     1       0.002  -0.004   0.002  0.00  0.00    +0.059 A 
ATOM     18  C   UNL     1      -0.017   1.381   0.010  0.00  0.00    +0.061 A 
ATOM     19  C   UNL     1       1.171   2.089   0.002  0.00  0.00    +0.047 A 
ATOM     20 CL   UNL     1      -1.532   2.228   0.021  0.00  0.00    -0.082 Cl
ATOM     21 CL   UNL     1      -1.490  -0.891   0.011  0.00  0.00    -0.082 Cl
ENDBRANCH  10  14
ENDBRANCH   6   7
ENDBRANCH   3   5
BRANCH   1  22
ATOM     22  C   UNL     1       6.929   6.974   5.369  0.00  0.00    +0.173 C 
BRANCH  22  23
ATOM     23  S   UNL     1       6.117   7.326   6.948  0.00  0.00    -0.095 S 
BRANCH  23  29
ATOM     24  C   UNL     1      10.554   9.838   6.695  0.00  0.00    +0.065 C 
ATOM     25  C   UNL     1       9.319   9.528   7.500  0.00  0.00    +0.040 A 
ATOM     26  C   UNL     1       9.163  10.098   8.751  0.00  0.00    +0.030 A 
ATOM     27  C   UNL     1       8.030   9.815   9.493  0.00  0.00    -0.000 A 
ATOM     28  C   UNL     1       7.073   8.954   8.944  0.00  0.00    +0.089 A 
ATOM     29  C   UNL     1       7.303   8.414   7.666  0.00  0.00    +0.115 A 
ATOM     30  N   UNL     1       8.409   8.714   7.001  0.00  0.00    -0.244 NA
BRANCH  28  31
ATOM     31  C   UNL     1       5.883   8.628   9.670  0.00  0.00    +0.102 C 
ATOM     32  N   UNL     1       4.938   8.369  10.246  0.00  0.00    -0.191 NA
ENDBRANCH  28  31
BRANCH  27  33
ATOM     33  C   UNL     1       7.830  10.420  10.859  0.00  0.00    +0.196 C 
BRANCH  33  34
ATOM     34  O   UNL     1       8.946  11.254  11.178  0.00  0.00    -0.378 OA
ATOM     35  C   UNL     1       8.856  11.880  12.459  0.00  0.00    +0.194 C 
ENDBRANCH  33  34
ENDBRANCH  27  33
ENDBRANCH  23  29
ENDBRANCH  22  23
ENDBRANCH   1  22
TORSDOF 9
