REMARK  Name = ZINC12071912
REMARK  8 active torsions:
REMARK  status: ('A' for Active; 'I' for Inactive)
REMARK    1  A    between atoms: C_3  and  C_10
REMARK    2  A    between atoms: C_5  and  N_7
REMARK    3  A    between atoms: C_10  and  N_11
REMARK    4  A    between atoms: N_20  and  C_21
REMARK    5  A    between atoms: C_21  and  C_22
REMARK    6  A    between atoms: C_22  and  N_23
REMARK    7  A    between atoms: C_24  and  C_26
REMARK    8  A    between atoms: C_26  and  C_31
REMARK                            x       y       z     vdW  Elec       q    Type
REMARK                         _______ _______ _______ _____ _____    ______ ____
ROOT
ATOM      1  N   UNL     1       0.060   5.797  -1.300  0.00  0.00    -0.294 N 
ATOM      2  C   UNL     1       1.221   6.076  -1.944  0.00  0.00    +0.204 A 
ATOM      3  N   UNL     1       1.266   6.499  -3.174  0.00  0.00    -0.218 NA
ATOM      4  C   UNL     1       0.152   6.702  -3.895  0.00  0.00    +0.165 A 
ATOM      5  C   UNL     1      -1.098   6.445  -3.310  0.00  0.00    +0.103 A 
ATOM      6  C   UNL     1      -1.127   5.964  -1.929  0.00  0.00    +0.265 A 
ATOM      7  O   UNL     1      -2.180   5.723  -1.365  0.00  0.00    -0.267 OA
ATOM      8  C   UNL     1      -2.079   6.737  -4.275  0.00  0.00    +0.150 A 
ATOM      9  N   UNL     1      -1.479   7.140  -5.361  0.00  0.00    -0.177 NA
ATOM     10  N   UNL     1      -0.093   7.130  -5.160  0.00  0.00    -0.245 N 
ENDROOT
BRANCH   1  11
ATOM     11  C   UNL     1       0.091   5.317   0.084  0.00  0.00    +0.161 C 
BRANCH  11  14
ATOM     12  C   UNL     1       1.448   1.795   0.097  0.00  0.00    +0.003 A 
ATOM     13  C   UNL     1       1.386   3.176   0.089  0.00  0.00    +0.005 A 
ATOM     14  C   UNL     1       0.159   3.812   0.093  0.00  0.00    -0.025 A 
ATOM     15  C   UNL     1      -1.006   3.067   0.105  0.00  0.00    +0.038 A 
ATOM     16  C   UNL     1      -0.943   1.687   0.109  0.00  0.00    +0.127 A 
ATOM     17  C   UNL     1       0.284   1.050   0.110  0.00  0.00    +0.033 A 
BRANCH  16  18
ATOM     18  N   UNL     1      -2.191   0.889   0.116  0.00  0.00    +0.056 N 
ATOM     19  O   UNL     1      -2.135  -0.327   0.123  0.00  0.00    -0.126 OA
ATOM     20  O   UNL     1      -3.272   1.450   0.116  0.00  0.00    -0.126 OA
ENDBRANCH  16  18
ENDBRANCH  11  14
ENDBRANCH   1  11
BRANCH  10  21
ATOM     21  C   UNL     1       0.920   7.516  -6.146  0.00  0.00    +0.164 C 
BRANCH  21  22
ATOM     22  C   UNL     1       1.214   9.011  -6.016  0.00  0.00    +0.127 C 
BRANCH  22  23
ATOM     23  N   UNL     1       2.227   9.397  -7.002  0.00  0.00    -0.313 N 
ATOM     24  C   UNL     1       2.645  10.676  -7.073  0.00  0.00    +0.224 C 
ATOM     25  O   UNL     1       2.120  11.525  -6.385  0.00  0.00    -0.275 OA
ATOM     26  H   UNL     1       2.596   8.732  -7.604  0.00  0.00    +0.149 HD
BRANCH  24  27
ATOM     27  C   UNL     1       3.766  11.052  -8.008  0.00  0.00    +0.072 C 
ATOM     28  C   UNL     1       5.016  10.211  -7.696  0.00  0.00    +0.021 C 
ATOM     29  C   UNL     1       6.129  11.204  -7.302  0.00  0.00    +0.001 C 
ATOM     30  C   UNL     1       5.362  12.459  -6.815  0.00  0.00    +0.001 C 
ATOM     31  C   UNL     1       4.162  12.527  -7.792  0.00  0.00    +0.021 C 
BRANCH  27  32
ATOM     32  C   UNL     1       3.340  10.835  -9.437  0.00  0.00    -0.032 A 
ATOM     33  C   UNL     1       2.038  10.471  -9.722  0.00  0.00    +0.006 A 
ATOM     34  C   UNL     1       1.645  10.278 -11.033  0.00  0.00    +0.020 A 
ATOM     35  C   UNL     1       2.559  10.438 -12.060  0.00  0.00    +0.041 A 
ATOM     36  C   UNL     1       3.864  10.796 -11.773  0.00  0.00    +0.020 A 
ATOM     37  C   UNL     1       4.254  10.995 -10.462  0.00  0.00    +0.006 A 
ATOM     38 CL   UNL     1       2.068  10.189 -13.706  0.00  0.00    -0.084 Cl
ENDBRANCH  27  32
ENDBRANCH  24  27
ENDBRANCH  22  23
ENDBRANCH  21  22
ENDBRANCH  10  21
TORSDOF 8
