REMARK  Name = ZINC13499104
REMARK  17 active torsions:
REMARK  status: ('A' for Active; 'I' for Inactive)
REMARK    1  A    between atoms: C_1  and  C_2
REMARK    2  A    between atoms: C_4  and  C_39
REMARK    3  A    between atoms: C_7  and  C_14
REMARK    4  A    between atoms: C_14  and  N_15
REMARK    5  A    between atoms: N_15  and  C_16
REMARK    6  A    between atoms: N_15  and  C_25
REMARK    7  A    between atoms: C_16  and  C_17
REMARK    8  A    between atoms: C_20  and  O_23
REMARK    9  A    between atoms: O_23  and  C_24
REMARK   10  A    between atoms: C_25  and  C_27
REMARK   11  A    between atoms: C_25  and  C_36
REMARK   12  A    between atoms: N_31  and  C_32
REMARK   13  A    between atoms: C_32  and  C_33
REMARK   14  A    between atoms: C_33  and  O_34
REMARK   15  A    between atoms: O_34  and  C_35
REMARK   16  A    between atoms: C_36  and  C_37
REMARK   17  A    between atoms: C_36  and  C_38
REMARK                            x       y       z     vdW  Elec       q    Type
REMARK                         _______ _______ _______ _____ _____    ______ ____
ROOT
ATOM      1  N   UNL     1       0.841  -8.459   2.168  0.00  0.00    -0.284 NA
ENDROOT
BRANCH   1   2
ATOM      2  C   UNL     1      -0.569  -8.711   2.493  0.00  0.00    +0.126 C 
BRANCH   2   9
ATOM      3  C   UNL     1      -3.772  -2.483   6.309  0.00  0.00    +0.044 C 
ATOM      4  C   UNL     1      -3.275  -3.576   5.399  0.00  0.00    -0.048 A 
ATOM      5  C   UNL     1      -3.638  -3.572   4.059  0.00  0.00    +0.007 A 
ATOM      6  C   UNL     1      -3.198  -4.553   3.216  0.00  0.00    -0.041 A 
ATOM      7  C   UNL     1      -2.375  -5.571   3.708  0.00  0.00    +0.002 A 
ATOM      8  C   UNL     1      -1.885  -6.638   2.833  0.00  0.00    +0.020 A 
ATOM      9  C   UNL     1      -1.090  -7.599   3.366  0.00  0.00    +0.032 A 
ATOM     10  C   UNL     1      -0.748  -7.560   4.734  0.00  0.00    +0.254 A 
ATOM     11  O   UNL     1      -0.031  -8.433   5.192  0.00  0.00    -0.268 OA
ATOM     12  N   UNL     1      -1.193  -6.585   5.546  0.00  0.00    -0.322 N 
ATOM     13  H   UNL     1      -0.938  -6.588   6.482  0.00  0.00    +0.169 HD
ATOM     14  C   UNL     1      -2.005  -5.579   5.066  0.00  0.00    +0.050 A 
ATOM     15  C   UNL     1      -2.460  -4.566   5.904  0.00  0.00    +0.029 A 
ATOM     16  C   UNL     1      -3.599  -4.539   1.764  0.00  0.00    +0.044 C 
ENDBRANCH   2   9
ENDBRANCH   1   2
BRANCH   1  17
ATOM     17  C   UNL     1       1.445  -9.624   1.506  0.00  0.00    +0.120 C 
BRANCH  17  18
ATOM     18  C   UNL     1       2.947  -9.523   1.583  0.00  0.00    -0.033 A 
ATOM     19  C   UNL     1       3.686  -9.327   0.431  0.00  0.00    +0.008 A 
ATOM     20  C   UNL     1       5.062  -9.234   0.500  0.00  0.00    +0.046 A 
ATOM     21  C   UNL     1       5.703  -9.339   1.726  0.00  0.00    +0.120 A 
ATOM     22  C   UNL     1       4.959  -9.535   2.880  0.00  0.00    +0.046 A 
ATOM     23  C   UNL     1       3.583  -9.622   2.807  0.00  0.00    +0.008 A 
BRANCH  21  24
ATOM     24  O   UNL     1       7.057  -9.249   1.796  0.00  0.00    -0.495 OA
ATOM     25  C   UNL     1       7.649  -9.365   3.091  0.00  0.00    +0.277 C 
ENDBRANCH  21  24
ENDBRANCH  17  18
ENDBRANCH   1  17
BRANCH   1  26
ATOM     26  C   UNL     1       0.984  -7.252   1.343  0.00  0.00    +0.130 C 
BRANCH  26  27
ATOM     27  C   UNL     1       2.290  -6.574   1.667  0.00  0.00    +0.169 A 
ATOM     28  N   UNL     1       3.425  -7.160   1.959  0.00  0.00    -0.112 NA
ATOM     29  N   UNL     1       4.303  -6.242   2.173  0.00  0.00    -0.023 NA
ATOM     30  N   UNL     1       3.758  -5.085   2.025  0.00  0.00    -0.044 NA
ATOM     31  N   UNL     1       2.518  -5.248   1.708  0.00  0.00    -0.226 N 
BRANCH  31  32
ATOM     32  C   UNL     1       1.541  -4.188   1.444  0.00  0.00    +0.175 C 
BRANCH  32  33
ATOM     33  C   UNL     1       0.886  -3.760   2.759  0.00  0.00    +0.183 C 
BRANCH  33  34
ATOM     34  O   UNL     1      -0.090  -2.750   2.498  0.00  0.00    -0.381 OA
ATOM     35  C   UNL     1      -0.764  -2.278   3.667  0.00  0.00    +0.194 C 
ENDBRANCH  33  34
ENDBRANCH  32  33
ENDBRANCH  31  32
ENDBRANCH  26  27
BRANCH  26  36
ATOM     36  C   UNL     1       0.965  -7.641  -0.137  0.00  0.00    +0.008 C 
ATOM     37  C   UNL     1      -0.371  -8.307  -0.472  0.00  0.00    +0.009 C 
ATOM     38  C   UNL     1       1.139  -6.387  -0.996  0.00  0.00    +0.009 C 
ENDBRANCH  26  36
ENDBRANCH   1  26
TORSDOF 11
