REMARK  Name = ZINC09409996
REMARK  10 active torsions:
REMARK  status: ('A' for Active; 'I' for Inactive)
REMARK    1  A    between atoms: C_1  and  C_2
REMARK    2  A    between atoms: C_2  and  C_3
REMARK    3  A    between atoms: C_5  and  C_20
REMARK    4  A    between atoms: C_6  and  O_19
REMARK    5  A    between atoms: C_8  and  O_9
REMARK    6  A    between atoms: O_9  and  C_10
REMARK    7  A    between atoms: C_10  and  C_11
REMARK    8  A    between atoms: C_14  and  O_17
REMARK    9  A    between atoms: O_17  and  C_18
REMARK   10  A    between atoms: C_21  and  C_26
REMARK                            x       y       z     vdW  Elec       q    Type
REMARK                         _______ _______ _______ _____ _____    ______ ____
ROOT
ATOM      1  C   UNL     1      -1.125  -0.070   0.536  0.00  0.00    -0.005 A 
ATOM      2  C   UNL     1      -1.820  -0.587   1.610  0.00  0.00    +0.021 A 
ATOM      3  C   UNL     1      -3.141  -1.000   1.451  0.00  0.00    +0.045 A 
ATOM      4  C   UNL     1      -3.759  -0.888   0.201  0.00  0.00    +0.130 A 
ATOM      5  C   UNL     1      -3.055  -0.368  -0.871  0.00  0.00    +0.092 A 
ATOM      6  C   UNL     1      -1.741   0.045  -0.704  0.00  0.00    +0.128 A 
ENDROOT
BRANCH   3   7
ATOM      7  C   UNL     1      -3.890  -1.556   2.603  0.00  0.00    +0.104 A 
ATOM      8  C   UNL     1      -3.420  -2.542   3.507  0.00  0.00    +0.027 A 
ATOM      9  C   UNL     1      -4.410  -2.771   4.415  0.00  0.00    +0.114 A 
ATOM     10  N   UNL     1      -5.451  -1.971   4.102  0.00  0.00    -0.284 N 
ATOM     11  H   UNL     1      -6.293  -1.923   4.580  0.00  0.00    +0.188 HD
ATOM     12  N   UNL     1      -5.106  -1.218   2.973  0.00  0.00    -0.173 NA
BRANCH   8  13
ATOM     13  C   UNL     1      -2.093  -3.205   3.470  0.00  0.00    -0.011 A 
ATOM     14  C   UNL     1      -1.670  -3.853   2.312  0.00  0.00    +0.012 A 
ATOM     15  C   UNL     1      -0.434  -4.471   2.275  0.00  0.00    +0.050 A 
ATOM     16  C   UNL     1       0.383  -4.444   3.394  0.00  0.00    +0.162 A 
ATOM     17  C   UNL     1      -0.034  -3.800   4.551  0.00  0.00    +0.162 A 
ATOM     18  C   UNL     1      -1.267  -3.175   4.593  0.00  0.00    +0.058 A 
ATOM     19  O   UNL     1       0.783  -3.781   5.644  0.00  0.00    -0.488 OA
ATOM     20  C   UNL     1       0.989  -5.037   6.293  0.00  0.00    +0.232 C 
ATOM     21  C   UNL     1       2.103  -5.819   5.614  0.00  0.00    +0.082 C 
ATOM     22  C   UNL     1       1.748  -6.210   4.187  0.00  0.00    +0.232 C 
ATOM     23  O   UNL     1       1.606  -5.051   3.364  0.00  0.00    -0.488 OA
ENDBRANCH   8  13
ENDBRANCH   3   7
BRANCH   1  25
ATOM     24  C   UNL     1       0.337   1.879   0.995  0.00  0.00    +0.009 C 
ATOM     25  C   UNL     1       0.303   0.376   0.709  0.00  0.00    +0.035 C 
ENDBRANCH   1  25
BRANCH   4  26
ATOM     26  O   UNL     1      -5.047  -1.289   0.040  0.00  0.00    -0.506 OA
ATOM     27  H   UNL     1      -5.695  -0.576   0.128  0.00  0.00    +0.292 HD
ENDBRANCH   4  26
BRANCH   6  28
ATOM     28  O   UNL     1      -1.054   0.560  -1.756  0.00  0.00    -0.487 OA
BRANCH  28  29
ATOM     29  C   UNL     1      -1.747   0.650  -3.003  0.00  0.00    +0.264 C 
BRANCH  29  30
ATOM     30  C   UNL     1      -0.832   1.240  -4.045  0.00  0.00    -0.010 A 
ATOM     31  C   UNL     1      -0.787   2.610  -4.228  0.00  0.00    +0.010 A 
ATOM     32  C   UNL     1       0.050   3.153  -5.183  0.00  0.00    +0.046 A 
ATOM     33  C   UNL     1       0.847   2.323  -5.959  0.00  0.00    +0.120 A 
ATOM     34  C   UNL     1       0.800   0.949  -5.772  0.00  0.00    +0.046 A 
ATOM     35  C   UNL     1      -0.035   0.411  -4.812  0.00  0.00    +0.010 A 
BRANCH  33  36
ATOM     36  O   UNL     1       1.671   2.854  -6.899  0.00  0.00    -0.495 OA
ATOM     37  C   UNL     1       2.462   1.940  -7.660  0.00  0.00    +0.277 C 
ENDBRANCH  33  36
ENDBRANCH  29  30
ENDBRANCH  28  29
ENDBRANCH   6  28
TORSDOF 8
