REMARK  Name = ZINC64173481
REMARK  10 active torsions:
REMARK  status: ('A' for Active; 'I' for Inactive)
REMARK    1  A    between atoms: C_1  and  C_2
REMARK    2  A    between atoms: C_2  and  N_3
REMARK    3  A    between atoms: N_3  and  C_4
REMARK    4  A    between atoms: N_3  and  S_6
REMARK    5  A    between atoms: C_4  and  C_5
REMARK    6  A    between atoms: S_6  and  N_9
REMARK    7  A    between atoms: N_17  and  C_18
REMARK    8  A    between atoms: C_18  and  C_19
REMARK    9  A    between atoms: C_19  and  C_21
REMARK   10  A    between atoms: C_19  and  C_27
REMARK                            x       y       z     vdW  Elec       q    Type
REMARK                         _______ _______ _______ _____ _____    ______ ____
ROOT
ATOM      1  N   UNL     1       3.790   0.411   1.380  0.00  0.00    -0.163 NA
ATOM      2  C   UNL     1       3.786   1.546   0.447  0.00  0.00    +0.129 C 
ATOM      3  C   UNL     1       3.012   2.704   1.088  0.00  0.00    +0.126 C 
ATOM      4  N   UNL     1       3.520   2.911   2.451  0.00  0.00    -0.283 N 
ATOM      5  C   UNL     1       3.525   1.776   3.385  0.00  0.00    +0.126 C 
ATOM      6  C   UNL     1       4.293   0.619   2.745  0.00  0.00    +0.129 C 
ATOM      7  C   UNL     1       3.974   4.119   2.838  0.00  0.00    +0.302 C 
ATOM      8  O   UNL     1       3.882   5.072   2.089  0.00  0.00    -0.253 OA
ATOM      9  N   UNL     1       4.531   4.272   4.056  0.00  0.00    -0.299 N 
ATOM     10  H   UNL     1       4.669   3.499   4.626  0.00  0.00    +0.150 HD
ENDROOT
BRANCH   1  11
ATOM     11  S   UNL     1       3.232  -1.074   0.904  0.00  0.00    +0.100 S 
ATOM     12  O   UNL     1       3.923  -2.038   1.688  0.00  0.00    -0.141 OA
ATOM     13  O   UNL     1       3.263  -1.084  -0.516  0.00  0.00    -0.141 OA
BRANCH  11  14
ATOM     14  N   UNL     1       1.638  -1.162   1.344  0.00  0.00    -0.167 NA
BRANCH  14  16
ATOM     15  C   UNL     1       0.105   0.554   0.515  0.00  0.00    +0.022 C 
ATOM     16  C   UNL     1       0.590  -0.888   0.357  0.00  0.00    +0.107 C 
ENDBRANCH  14  16
BRANCH  14  17
ATOM     17  C   UNL     1       1.275  -1.513   2.719  0.00  0.00    +0.107 C 
ATOM     18  C   UNL     1       1.004  -3.016   2.807  0.00  0.00    +0.022 C 
ENDBRANCH  14  17
ENDBRANCH  11  14
ENDBRANCH   1  11
BRANCH   9  19
ATOM     19  C   UNL     1       4.928   5.604   4.519  0.00  0.00    +0.114 C 
BRANCH  19  20
ATOM     20  C   UNL     1       5.371   5.525   5.981  0.00  0.00    +0.048 C 
BRANCH  20  21
ATOM     21  C   UNL     1       5.919   6.861   6.413  0.00  0.00    -0.036 C 
ATOM     22  C   UNL     1       7.168   7.120   6.861  0.00  0.00    -0.001 A 
ATOM     23  C   UNL     1       8.346   6.270   7.072  0.00  0.00    +0.010 A 
ATOM     24  C   UNL     1       9.483   6.830   7.543  0.00  0.00    +0.001 A 
ATOM     25  C   UNL     1       9.566   8.199   7.833  0.00  0.00    +0.002 A 
ATOM     26  C   UNL     1       8.527   9.044   7.664  0.00  0.00    +0.026 A 
ATOM     27  C   UNL     1       7.282   8.563   7.174  0.00  0.00    +0.043 A 
ATOM     28  N   UNL     1       6.146   9.171   6.930  0.00  0.00    -0.380 N 
ATOM     29  C   UNL     1       5.185   8.183   6.427  0.00  0.00    +0.145 C 
ATOM     30  H   UNL     1       5.972  10.117   7.056  0.00  0.00    +0.160 HD
ENDBRANCH  20  21
BRANCH  20  31
ATOM     31  C   UNL     1       4.172   5.158   6.858  0.00  0.00    +0.063 C 
ATOM     32  C   UNL     1       4.589   4.964   8.340  0.00  0.00    +0.042 C 
ATOM     33  C   UNL     1       3.845   3.822   8.954  0.00  0.00    -0.019 C 
ATOM     34  C   UNL     1       3.259   2.929   8.182  0.00  0.00    +0.036 C 
ATOM     35  S   UNL     1       3.573   3.452   6.504  0.00  0.00    -0.129 S 
ENDBRANCH  20  31
ENDBRANCH  19  20
ENDBRANCH   9  19
TORSDOF 8
