REMARK  Name = ZINC06500716
REMARK  9 active torsions:
REMARK  status: ('A' for Active; 'I' for Inactive)
REMARK    1  A    between atoms: C_1  and  C_2
REMARK    2  A    between atoms: C_2  and  C_3
REMARK    3  A    between atoms: C_3  and  O_4
REMARK    4  A    between atoms: O_4  and  C_5
REMARK    5  A    between atoms: C_8  and  C_11
REMARK    6  A    between atoms: C_14  and  C_23
REMARK    7  A    between atoms: C_26  and  O_29
REMARK    8  A    between atoms: O_29  and  C_30
REMARK    9  A    between atoms: C_30  and  C_31
REMARK                            x       y       z     vdW  Elec       q    Type
REMARK                         _______ _______ _______ _____ _____    ______ ____
ROOT
ATOM      1  C   UNL     1      -2.503   1.004   0.019  0.00  0.00    +0.100 C 
ATOM      2  N   UNL     1      -2.455  -0.283  -0.087  0.00  0.00    -0.172 NA
ATOM      3  N   UNL     1      -3.621  -1.054   0.010  0.00  0.00    -0.263 N 
ATOM      4  C   UNL     1      -4.347  -0.979   1.187  0.00  0.00    +0.124 C 
ATOM      5  N   UNL     1      -4.862   0.138   1.600  0.00  0.00    -0.299 N 
ATOM      6  C   UNL     1      -4.860   1.310   0.896  0.00  0.00    +0.042 A 
ATOM      7  C   UNL     1      -3.770   1.761   0.149  0.00  0.00    +0.026 A 
ATOM      8  C   UNL     1      -3.862   2.979  -0.532  0.00  0.00    +0.050 A 
ATOM      9  C   UNL     1      -5.019   3.736  -0.468  0.00  0.00    +0.124 A 
ATOM     10  C   UNL     1      -6.099   3.287   0.271  0.00  0.00    +0.040 A 
ATOM     11  C   UNL     1      -6.023   2.086   0.948  0.00  0.00    +0.027 A 
ATOM     12  F   UNL     1      -5.094   4.913  -1.127  0.00  0.00    -0.205 F 
ATOM     13  H   UNL     1      -3.966  -1.703  -0.808  0.00  0.00    +0.190 HD
ATOM     14  H   UNL     1      -5.348   0.189   2.585  0.00  0.00    +0.154 HD
ENDROOT
BRANCH   1  18
ATOM     15  C   UNL     1       1.152   3.173   0.008  0.00  0.00    +0.121 A 
ATOM     16  C   UNL     1       1.093   1.913  -0.571  0.00  0.00    +0.046 A 
ATOM     17  C   UNL     1      -0.090   1.204  -0.567  0.00  0.00    +0.013 A 
ATOM     18  C   UNL     1      -1.230   1.758   0.017  0.00  0.00    +0.003 A 
ATOM     19  C   UNL     1      -1.165   3.023   0.605  0.00  0.00    +0.013 A 
ATOM     20  C   UNL     1       0.021   3.725   0.596  0.00  0.00    +0.046 A 
BRANCH  15  21
ATOM     21  O   UNL     1       2.319   3.869   0.001  0.00  0.00    -0.492 OA
BRANCH  21  22
ATOM     22  C   UNL     1       2.309   5.159   0.615  0.00  0.00    +0.229 C 
BRANCH  22  24
ATOM     23  C   UNL     1       3.691   7.166   1.166  0.00  0.00    +0.007 C 
ATOM     24  C   UNL     1       3.702   5.785   0.509  0.00  0.00    +0.038 C 
ENDBRANCH  22  24
ENDBRANCH  21  22
ENDBRANCH  15  21
ENDBRANCH   1  18
BRANCH   4  25
ATOM     25  C   UNL     1      -4.540  -2.199   1.992  0.00  0.00    +0.015 A 
ATOM     26  C   UNL     1      -5.264  -2.144   3.187  0.00  0.00    +0.015 A 
ATOM     27  C   UNL     1      -5.445  -3.288   3.932  0.00  0.00    +0.046 A 
ATOM     28  C   UNL     1      -4.901  -4.493   3.504  0.00  0.00    +0.121 A 
ATOM     29  C   UNL     1      -4.175  -4.551   2.320  0.00  0.00    +0.046 A 
ATOM     30  C   UNL     1      -3.993  -3.413   1.565  0.00  0.00    +0.015 A 
BRANCH  28  31
ATOM     31  O   UNL     1      -5.077  -5.616   4.245  0.00  0.00    -0.492 OA
BRANCH  31  32
ATOM     32  C   UNL     1      -5.833  -5.486   5.451  0.00  0.00    +0.225 C 
ATOM     33  C   UNL     1      -5.926  -6.847   6.145  0.00  0.00    +0.048 C 
ENDBRANCH  31  32
ENDBRANCH  28  31
ENDBRANCH   4  25
TORSDOF 7
