REMARK  Name = ZINC39663665
REMARK  13 active torsions:
REMARK  status: ('A' for Active; 'I' for Inactive)
REMARK    1  A    between atoms: C_1  and  C_2
REMARK    2  A    between atoms: C_2  and  C_3
REMARK    3  A    between atoms: C_3  and  C_4
REMARK    4  A    between atoms: C_4  and  C_5
REMARK    5  A    between atoms: C_9  and  C_18
REMARK    6  A    between atoms: N_20  and  C_21
REMARK    7  A    between atoms: C_21  and  C_22
REMARK    8  A    between atoms: C_22  and  C_24
REMARK    9  A    between atoms: C_22  and  N_32
REMARK   10  A    between atoms: C_27  and  O_30
REMARK   11  A    between atoms: O_30  and  C_31
REMARK   12  A    between atoms: N_32  and  C_33
REMARK   13  A    between atoms: N_32  and  C_34
REMARK                            x       y       z     vdW  Elec       q    Type
REMARK                         _______ _______ _______ _____ _____    ______ ____
ROOT
ATOM      1  C   UNL     1      -3.900  -2.765   0.284  0.00  0.00    +0.216 C 
ATOM      2  O   UNL     1      -4.922  -2.117   0.366  0.00  0.00    -0.276 OA
ATOM      3  N   UNL     1      -3.956  -4.112   0.267  0.00  0.00    -0.300 N 
ATOM      4  C   UNL     1      -2.826  -5.067   0.178  0.00  0.00    +0.121 C 
ATOM      5  C   UNL     1      -3.211  -6.217   1.135  0.00  0.00    +0.100 C 
ATOM      6  C   UNL     1      -4.745  -6.151   1.230  0.00  0.00    -0.004 C 
ATOM      7  C   UNL     1      -5.161  -4.973   0.338  0.00  0.00    +0.115 C 
ATOM      8  C   UNL     1      -5.362  -7.448   0.716  0.00  0.00    -0.010 C 
ATOM      9  C   UNL     1      -6.884  -7.382   0.875  0.00  0.00    -0.082 C 
ATOM     10  N   UNL     1      -7.222  -7.183   2.289  0.00  0.00    +0.379 N 
ATOM     11  C   UNL     1      -6.703  -5.889   2.751  0.00  0.00    -0.082 C 
ATOM     12  C   UNL     1      -5.174  -5.893   2.671  0.00  0.00    -0.010 C 
ATOM     13  H   UNL     1      -8.225  -7.200   2.400  0.00  0.00    -0.086 HD
ATOM     14  H   UNL     1      -6.813  -7.923   2.839  0.00  0.00    -0.086 HD
ENDROOT
BRANCH   5  15
ATOM     15  C   UNL     1      -2.775  -7.542   0.565  0.00  0.00    +0.218 C 
ATOM     16  O   UNL     1      -2.761  -7.710  -0.636  0.00  0.00    -0.275 OA
ATOM     17  N   UNL     1      -2.400  -8.540   1.389  0.00  0.00    -0.316 N 
ATOM     18  H   UNL     1      -2.411  -8.405   2.350  0.00  0.00    +0.149 HD
BRANCH  17  19
ATOM     19  C   UNL     1      -1.976  -9.828   0.835  0.00  0.00    +0.093 C 
BRANCH  19  20
ATOM     20  C   UNL     1      -1.711 -10.812   1.976  0.00  0.00    -0.021 C 
BRANCH  20  21
ATOM     21  C   UNL     1      -0.542 -10.328   2.795  0.00  0.00    -0.059 A 
ATOM     22  C   UNL     1       0.749 -10.542   2.349  0.00  0.00    +0.005 A 
ATOM     23  C   UNL     1       1.823 -10.100   3.098  0.00  0.00    +0.046 A 
ATOM     24  C   UNL     1       1.604  -9.441   4.299  0.00  0.00    +0.120 A 
ATOM     25  C   UNL     1       0.308  -9.226   4.744  0.00  0.00    +0.046 A 
ATOM     26  C   UNL     1      -0.762  -9.666   3.989  0.00  0.00    +0.005 A 
BRANCH  24  27
ATOM     27  O   UNL     1       2.659  -9.005   5.037  0.00  0.00    -0.495 OA
ATOM     28  C   UNL     1       2.359  -8.334   6.263  0.00  0.00    +0.277 C 
ENDBRANCH  24  27
ENDBRANCH  20  21
BRANCH  20  29
ATOM     29  N   UNL     1      -1.404 -12.136   1.420  0.00  0.00    +0.382 N 
ATOM     30  C   UNL     1      -1.137 -13.078   2.515  0.00  0.00    -0.096 C 
ATOM     31  C   UNL     1      -2.548 -12.613   0.632  0.00  0.00    -0.096 C 
ATOM     32  H   UNL     1      -0.591 -12.072   0.826  0.00  0.00    -0.082 HD
ENDBRANCH  20  29
ENDBRANCH  19  20
ENDBRANCH  17  19
ENDBRANCH   5  15
BRANCH   1  33
ATOM     33  C   UNL     1      -2.568  -2.065   0.201  0.00  0.00    +0.096 C 
BRANCH  33  34
ATOM     34  C   UNL     1      -2.785  -0.551   0.240  0.00  0.00    +0.009 C 
BRANCH  34  36
ATOM     35  C   UNL     1      -1.649   1.674   0.195  0.00  0.00    +0.004 C 
ATOM     36  C   UNL     1      -1.433   0.160   0.155  0.00  0.00    -0.003 C 
ENDBRANCH  34  36
ENDBRANCH  33  34
ENDBRANCH   1  33
TORSDOF 9
