REMARK  Name = ZINC04631471
REMARK  8 active torsions:
REMARK  status: ('A' for Active; 'I' for Inactive)
REMARK    1  A    between atoms: C_1  and  C_2
REMARK    2  A    between atoms: C_9  and  N_25
REMARK    3  A    between atoms: C_10  and  C_23
REMARK    4  A    between atoms: C_11  and  C_13
REMARK    5  A    between atoms: C_16  and  O_19
REMARK    6  A    between atoms: O_19  and  C_20
REMARK    7  A    between atoms: C_20  and  C_21
REMARK    8  A    between atoms: C_20  and  C_22
REMARK                            x       y       z     vdW  Elec       q    Type
REMARK                         _______ _______ _______ _____ _____    ______ ____
ROOT
ATOM      1  C   UNL     1      -0.372   0.793  -0.586  0.00  0.00    +0.068 C 
ATOM      2  C   UNL     1      -0.295  -0.695  -0.812  0.00  0.00    +0.068 A 
ATOM      3  C   UNL     1      -0.150  -1.327  -2.039  0.00  0.00    +0.049 A 
ATOM      4  C   UNL     1      -0.123  -2.676  -1.820  0.00  0.00    +0.222 A 
ATOM      5  N   UNL     1      -0.245  -2.875  -0.498  0.00  0.00    -0.246 N 
ATOM      6  H   UNL     1      -0.257  -3.735  -0.048  0.00  0.00    +0.192 HD
ATOM      7  N   UNL     1      -0.347  -1.619   0.119  0.00  0.00    -0.176 NA
ATOM      8  O   UNL     1       0.006  -3.579  -2.824  0.00  0.00    -0.423 OA
ATOM      9  C   UNL     1      -0.166  -3.137  -4.087  0.00  0.00    +0.200 C 
ATOM     10  C   UNL     1      -0.198  -1.830  -4.429  0.00  0.00    +0.098 C 
ATOM     11  C   UNL     1      -0.035  -0.724  -3.415  0.00  0.00    +0.101 C 
ENDROOT
BRANCH  11  12
ATOM     12  C   UNL     1       1.317  -0.080  -3.577  0.00  0.00    -0.034 A 
ATOM     13  C   UNL     1       2.464  -0.843  -3.458  0.00  0.00    +0.008 A 
ATOM     14  C   UNL     1       3.705  -0.255  -3.605  0.00  0.00    +0.046 A 
ATOM     15  C   UNL     1       3.801   1.103  -3.872  0.00  0.00    +0.121 A 
ATOM     16  C   UNL     1       2.648   1.867  -3.992  0.00  0.00    +0.046 A 
ATOM     17  C   UNL     1       1.410   1.272  -3.849  0.00  0.00    +0.008 A 
BRANCH  15  18
ATOM     18  O   UNL     1       5.021   1.685  -4.017  0.00  0.00    -0.489 OA
BRANCH  18  19
ATOM     19  C   UNL     1       6.164   0.865  -3.764  0.00  0.00    +0.167 C 
ATOM     20  C   UNL     1       6.518   0.080  -5.029  0.00  0.00    +0.051 C 
ATOM     21  C   UNL     1       7.347   1.749  -3.365  0.00  0.00    +0.051 C 
ENDBRANCH  18  19
ENDBRANCH  15  18
ENDBRANCH  11  12
BRANCH   9  22
ATOM     22  N   UNL     1      -0.318  -4.070  -5.082  0.00  0.00    -0.328 N 
ATOM     23  H   UNL     1      -0.300  -5.015  -4.868  0.00  0.00    +0.145 HD
ATOM     24  H   UNL     1      -0.444  -3.783  -6.000  0.00  0.00    +0.145 HD
ENDBRANCH   9  22
BRANCH  10  25
ATOM     25  C   UNL     1      -0.392  -1.482  -5.804  0.00  0.00    +0.101 C 
ATOM     26  N   UNL     1      -0.547  -1.206  -6.895  0.00  0.00    -0.191 NA
ENDBRANCH  10  25
TORSDOF 5
