REMARK  Name = ZINC13893670
REMARK  5 active torsions:
REMARK  status: ('A' for Active; 'I' for Inactive)
REMARK    1  A    between atoms: C_1  and  C_2
REMARK    2  A    between atoms: C_5  and  N_8
REMARK    3  A    between atoms: C_10  and  C_21
REMARK    4  A    between atoms: C_16  and  O_19
REMARK    5  A    between atoms: O_19  and  C_20
REMARK                            x       y       z     vdW  Elec       q    Type
REMARK                         _______ _______ _______ _____ _____    ______ ____
ROOT
ATOM      1  N   UNL     1       4.267   3.970   1.266  0.00  0.00    -0.213 NA
ATOM      2  C   UNL     1       3.412   3.293   0.530  0.00  0.00    +0.233 A 
ATOM      3  C   UNL     1       3.613   1.856   0.260  0.00  0.00    +0.099 A 
ATOM      4  C   UNL     1       2.480   1.097  -0.001  0.00  0.00    +0.030 A 
ATOM      5  C   UNL     1       1.188   1.787   0.016  0.00  0.00    +0.022 A 
ATOM      6  C   UNL     1      -0.011   1.065   0.031  0.00  0.00    +0.012 A 
ATOM      7  C   UNL     1      -1.205   1.729   0.051  0.00  0.00    +0.004 A 
ATOM      8  C   UNL     1      -1.241   3.116   0.066  0.00  0.00    +0.049 A 
ATOM      9  C   UNL     1      -0.069   3.851   0.049  0.00  0.00    +0.163 A 
ATOM     10  C   UNL     1       1.158   3.193   0.022  0.00  0.00    +0.179 A 
ATOM     11  O   UNL     1       2.318   3.894  -0.003  0.00  0.00    -0.433 OA
ENDROOT
BRANCH   1  16
ATOM     12  C   UNL     1       3.663   9.549   1.879  0.00  0.00    +0.044 C 
ATOM     13  C   UNL     1       3.824   8.059   1.715  0.00  0.00    -0.050 A 
ATOM     14  C   UNL     1       3.292   7.201   2.662  0.00  0.00    +0.005 A 
ATOM     15  C   UNL     1       3.436   5.837   2.518  0.00  0.00    +0.028 A 
ATOM     16  C   UNL     1       4.121   5.322   1.415  0.00  0.00    +0.068 A 
ATOM     17  C   UNL     1       4.660   6.195   0.466  0.00  0.00    +0.028 A 
ATOM     18  C   UNL     1       4.503   7.556   0.619  0.00  0.00    +0.005 A 
ENDBRANCH   1  16
BRANCH   3  19
ATOM     19  C   UNL     1       4.957   1.253   0.267  0.00  0.00    +0.247 C 
ATOM     20  O   UNL     1       5.931   1.943   0.498  0.00  0.00    -0.270 OA
ATOM     21  N   UNL     1       5.106  -0.063   0.015  0.00  0.00    -0.325 N 
ATOM     22  H   UNL     1       4.329  -0.613  -0.170  0.00  0.00    +0.145 HD
ATOM     23  H   UNL     1       5.992  -0.460   0.020  0.00  0.00    +0.145 HD
ENDBRANCH   3  19
BRANCH   9  24
ATOM     24  O   UNL     1      -0.115   5.210   0.058  0.00  0.00    -0.491 OA
ATOM     25  C   UNL     1      -1.409   5.815   0.086  0.00  0.00    +0.277 C 
ENDBRANCH   9  24
TORSDOF 3
