REMARK  Name = ZINC10682551
REMARK  6 active torsions:
REMARK  status: ('A' for Active; 'I' for Inactive)
REMARK    1  A    between atoms: C_1  and  C_2
REMARK    2  A    between atoms: C_2  and  C_4
REMARK    3  A    between atoms: C_2  and  S_10
REMARK    4  A    between atoms: S_10  and  C_11
REMARK    5  A    between atoms: N_24  and  C_25
REMARK    6  A    between atoms: C_25  and  C_26
REMARK                            x       y       z     vdW  Elec       q    Type
REMARK                         _______ _______ _______ _____ _____    ______ ____
ROOT
ATOM      1  C   UNL     1      -0.135   6.327   0.032  0.00  0.00    +0.174 A 
ATOM      2  N   UNL     1      -1.047   5.363   0.038  0.00  0.00    -0.216 NA
ATOM      3  C   UNL     1      -0.609   4.111   0.029  0.00  0.00    +0.117 A 
ATOM      4  C   UNL     1       0.759   3.752   0.014  0.00  0.00    +0.076 A 
ATOM      5  C   UNL     1       1.046   2.328   0.005  0.00  0.00    -0.023 A 
ATOM      6  C   UNL     1      -0.018   1.493   0.010  0.00  0.00    -0.004 A 
ATOM      7  S   UNL     1      -1.441   2.555   0.022  0.00  0.00    -0.073 S 
ATOM      8  C   UNL     1       0.002  -0.004   0.002  0.00  0.00    +0.043 C 
ATOM      9  C   UNL     1       1.412  -0.469  -0.389  0.00  0.00    +0.005 C 
ATOM     10  C   UNL     1       2.433   0.311   0.444  0.00  0.00    +0.005 C 
ATOM     11  C   UNL     1       2.467   1.770  -0.011  0.00  0.00    +0.037 C 
ATOM     12  C   UNL     1       1.715   4.820   0.009  0.00  0.00    +0.264 A 
ATOM     13  O   UNL     1       2.916   4.612  -0.004  0.00  0.00    -0.267 OA
ATOM     14  N   UNL     1       1.202   6.073   0.018  0.00  0.00    -0.280 N 
ENDROOT
BRANCH   1  15
ATOM     15  S   UNL     1      -0.677   8.003   0.043  0.00  0.00    -0.075 S 
BRANCH  15  17
ATOM     16  C   UNL     1      -2.904   7.085  -1.246  0.00  0.00    +0.029 C 
ATOM     17  C   UNL     1      -2.470   7.754   0.060  0.00  0.00    +0.137 C 
BRANCH  17  18
ATOM     18  C   UNL     1      -3.161   9.086   0.195  0.00  0.00    +0.233 C 
ATOM     19  O   UNL     1      -2.603  10.098  -0.172  0.00  0.00    -0.274 OA
ATOM     20  N   UNL     1      -4.399   9.153   0.723  0.00  0.00    -0.239 N 
ATOM     21  C   UNL     1      -5.017  10.344   0.844  0.00  0.00    +0.303 C 
ATOM     22  O   UNL     1      -4.458  11.359   0.476  0.00  0.00    -0.253 OA
ATOM     23  N   UNL     1      -6.255  10.411   1.372  0.00  0.00    -0.313 N 
ATOM     24  H   UNL     1      -4.846   8.343   1.016  0.00  0.00    +0.159 HD
ATOM     25  H   UNL     1      -6.702   9.601   1.665  0.00  0.00    +0.146 HD
ATOM     26  H   UNL     1      -6.700  11.268   1.459  0.00  0.00    +0.146 HD
ENDBRANCH  17  18
ENDBRANCH  15  17
ENDBRANCH   1  15
BRANCH  14  27
ATOM     27  C   UNL     1       2.129   7.207   0.013  0.00  0.00    +0.201 C 
BRANCH  27  28
ATOM     28  C   UNL     1       2.461   7.591   1.433  0.00  0.00    +0.125 A 
ATOM     29  C   UNL     1       3.476   7.097   2.164  0.00  0.00    +0.046 A 
ATOM     30  C   UNL     1       3.418   7.731   3.426  0.00  0.00    +0.041 A 
ATOM     31  C   UNL     1       2.366   8.569   3.393  0.00  0.00    +0.195 A 
ATOM     32  O   UNL     1       1.790   8.480   2.183  0.00  0.00    -0.466 OA
ENDBRANCH  27  28
ENDBRANCH  14  27
TORSDOF 5
