REMARK  Name = ZINC18045510
REMARK  13 active torsions:
REMARK  status: ('A' for Active; 'I' for Inactive)
REMARK    1  A    between atoms: C_1  and  C_2
REMARK    2  A    between atoms: C_3  and  C_34
REMARK    3  A    between atoms: C_4  and  C_33
REMARK    4  A    between atoms: C_7  and  C_8
REMARK    5  A    between atoms: C_8  and  C_10
REMARK    6  A    between atoms: C_10  and  O_11
REMARK    7  A    between atoms: O_11  and  C_12
REMARK    8  A    between atoms: C_12  and  C_14
REMARK    9  A    between atoms: C_17  and  S_20
REMARK   10  A    between atoms: S_20  and  N_23
REMARK   11  A    between atoms: C_25  and  C_32
REMARK   12  A    between atoms: C_28  and  C_31
REMARK   13  A    between atoms: C_34  and  C_36
REMARK                            x       y       z     vdW  Elec       q    Type
REMARK                         _______ _______ _______ _____ _____    ______ ____
ROOT
ATOM      1  C   UNL     1      -1.097  -1.835   5.769  0.00  0.00    +0.340 C 
ATOM      2  O   UNL     1      -1.033  -3.038   5.616  0.00  0.00    -0.245 OA
ENDROOT
BRANCH   1   3
ATOM      3  C   UNL     1      -1.367  -1.274   7.108  0.00  0.00    +0.059 A 
ATOM      4  C   UNL     1      -1.447   0.108   7.287  0.00  0.00    +0.017 A 
ATOM      5  C   UNL     1      -1.699   0.625   8.540  0.00  0.00    +0.029 A 
ATOM      6  C   UNL     1      -1.873  -0.223   9.620  0.00  0.00    +0.106 A 
ATOM      7  C   UNL     1      -1.795  -1.594   9.450  0.00  0.00    +0.029 A 
ATOM      8  C   UNL     1      -1.549  -2.124   8.201  0.00  0.00    +0.017 A 
BRANCH   6   9
ATOM      9  S   UNL     1      -2.195   0.446  11.218  0.00  0.00    +0.061 S 
ATOM     10  O   UNL     1      -1.778  -0.533  12.159  0.00  0.00    -0.153 OA
ATOM     11  O   UNL     1      -1.679   1.770  11.216  0.00  0.00    -0.153 OA
BRANCH   9  12
ATOM     12  N   UNL     1      -3.839   0.580  11.370  0.00  0.00    -0.176 NA
ATOM     13  C   UNL     1      -4.532   1.807  10.954  0.00  0.00    +0.112 C 
ATOM     14  C   UNL     1      -5.652   1.434   9.978  0.00  0.00    +0.002 C 
ATOM     15  C   UNL     1      -6.561   0.388  10.627  0.00  0.00    +0.009 C 
ATOM     16  C   UNL     1      -5.751  -0.873  10.937  0.00  0.00    +0.002 C 
ATOM     17  C   UNL     1      -4.633  -0.528  11.918  0.00  0.00    +0.112 C 
ATOM     18  C   UNL     1      -6.668  -1.930  11.555  0.00  0.00    +0.009 C 
ATOM     19  C   UNL     1      -6.470   2.682   9.639  0.00  0.00    +0.009 C 
ENDBRANCH   9  12
ENDBRANCH   6   9
ENDBRANCH   1   3
BRANCH   1  20
ATOM     20  O   UNL     1      -0.921  -1.012   4.717  0.00  0.00    -0.453 OA
BRANCH  20  21
ATOM     21  C   UNL     1      -0.664  -1.623   3.451  0.00  0.00    +0.313 C 
BRANCH  21  22
ATOM     22  C   UNL     1      -0.496  -0.554   2.402  0.00  0.00    +0.217 C 
ATOM     23  O   UNL     1      -0.588   0.617   2.709  0.00  0.00    -0.287 OA
BRANCH  22  30
ATOM     24  C   UNL     1      -0.113   1.461   0.067  0.00  0.00    +0.047 C 
ATOM     25  C   UNL     1      -0.057  -0.044   0.007  0.00  0.00    -0.012 A 
ATOM     26  C   UNL     1       0.190  -0.833  -1.140  0.00  0.00    +0.041 A 
ATOM     27  C   UNL     1       0.150  -2.160  -0.739  0.00  0.00    +0.024 A 
ATOM     28  N   UNL     1      -0.105  -2.203   0.576  0.00  0.00    -0.355 N 
ATOM     29  H   UNL     1      -0.185  -3.011   1.106  0.00  0.00    +0.166 HD
ATOM     30  C   UNL     1      -0.231  -0.915   1.059  0.00  0.00    +0.090 A 
ATOM     31  C   UNL     1       0.360  -3.355  -1.633  0.00  0.00    +0.064 C 
BRANCH  26  32
ATOM     32  C   UNL     1       0.441  -0.340  -2.499  0.00  0.00    +0.162 C 
ATOM     33  O   UNL     1      -0.487  -0.160  -3.259  0.00  0.00    -0.292 OA
ATOM     34  C   UNL     1       1.851  -0.058  -2.950  0.00  0.00    +0.091 C 
ENDBRANCH  26  32
ENDBRANCH  22  30
ENDBRANCH  21  22
ENDBRANCH  20  21
ENDBRANCH   1  20
TORSDOF 8
