REMARK  Name = ZINC35938560
REMARK  8 active torsions:
REMARK  status: ('A' for Active; 'I' for Inactive)
REMARK    1  A    between atoms: C_1  and  C_2
REMARK    2  A    between atoms: C_2  and  C_3
REMARK    3  A    between atoms: C_2  and  C_4
REMARK    4  A    between atoms: C_2  and  C_6
REMARK    5  A    between atoms: C_15  and  C_17
REMARK    6  A    between atoms: C_17  and  C_18
REMARK    7  A    between atoms: C_18  and  N_19
REMARK    8  A    between atoms: C_27  and  C_29
REMARK                            x       y       z     vdW  Elec       q    Type
REMARK                         _______ _______ _______ _____ _____    ______ ____
ROOT
ATOM      1  C   UNL     1       6.067  -1.102  -0.891  0.00  0.00    +0.077 C 
ENDROOT
BRANCH   1  11
ATOM      2  C   UNL     1       0.276  -0.643  -1.238  0.00  0.00    +0.222 C 
ATOM      3  O   UNL     1      -0.581  -1.173  -1.913  0.00  0.00    -0.275 OA
ATOM      4  N   UNL     1       1.565  -0.685  -1.630  0.00  0.00    -0.299 N 
ATOM      5  C   UNL     1       1.961  -1.379  -2.805  0.00  0.00    +0.109 C 
ATOM      6  C   UNL     1       2.191  -2.913  -2.610  0.00  0.00    +0.038 C 
ATOM      7  C   UNL     1       2.859  -3.108  -1.210  0.00  0.00    +0.109 C 
ATOM      8  N   UNL     1       3.808  -2.110  -0.862  0.00  0.00    -0.300 N 
ATOM      9  C   UNL     1       3.328  -0.985  -0.019  0.00  0.00    +0.126 C 
ATOM     10  C   UNL     1       2.634  -0.004  -0.855  0.00  0.00    +0.126 C 
ATOM     11  C   UNL     1       5.088  -2.180  -1.279  0.00  0.00    +0.214 C 
ATOM     12  O   UNL     1       5.452  -3.110  -1.966  0.00  0.00    -0.276 OA
BRANCH   2  14
ATOM     13  C   UNL     1       0.098   1.570  -0.135  0.00  0.00    +0.022 C 
ATOM     14  C   UNL     1      -0.101   0.063   0.039  0.00  0.00    +0.055 C 
ATOM     15  C   UNL     1       0.785  -0.440   1.180  0.00  0.00    +0.022 C 
BRANCH  14  16
ATOM     16  C   UNL     1      -1.567  -0.224   0.366  0.00  0.00    +0.124 C 
ATOM     17 CL   UNL     1      -2.018   0.621   1.894  0.00  0.00    -0.124 Cl
ENDBRANCH  14  16
ENDBRANCH   2  14
ENDBRANCH   1  11
BRANCH   1  18
ATOM     18  C   UNL     1       7.439  -1.419  -1.489  0.00  0.00    -0.068 C 
BRANCH  18  19
ATOM     19  N   UNL     1       8.393  -0.369  -1.111  0.00  0.00    +0.388 N 
ATOM     20  C   UNL     1       8.562  -0.371   0.349  0.00  0.00    -0.072 C 
ATOM     21  C   UNL     1       9.287   0.919   0.768  0.00  0.00    +0.024 C 
ATOM     22  C   UNL     1      10.460   1.092  -0.141  0.00  0.00    -0.010 A 
ATOM     23  C   UNL     1      10.686   0.422  -1.306  0.00  0.00    -0.047 A 
ATOM     24  C   UNL     1      11.855   0.744  -1.991  0.00  0.00    +0.010 A 
ATOM     25  C   UNL     1      12.695   1.682  -1.494  0.00  0.00    +0.045 A 
ATOM     26  S   UNL     1      11.854   2.171   0.006  0.00  0.00    -0.101 S 
ATOM     27  C   UNL     1       9.674  -0.614  -1.784  0.00  0.00    -0.006 C 
ATOM     28  H   UNL     1       8.032   0.528  -1.401  0.00  0.00    -0.080 HD
BRANCH  27  29
ATOM     29  C   UNL     1       9.493  -0.492  -3.275  0.00  0.00    -0.057 A 
ATOM     30  C   UNL     1       8.691   0.507  -3.795  0.00  0.00    +0.002 A 
ATOM     31  C   UNL     1       8.524   0.618  -5.162  0.00  0.00    +0.000 A 
ATOM     32  C   UNL     1       9.160  -0.269  -6.011  0.00  0.00    +0.000 A 
ATOM     33  C   UNL     1       9.963  -1.267  -5.492  0.00  0.00    +0.000 A 
ATOM     34  C   UNL     1      10.133  -1.376  -4.124  0.00  0.00    +0.002 A 
ENDBRANCH  27  29
ENDBRANCH  18  19
ENDBRANCH   1  18
TORSDOF 6
