REMARK  Name = ZINC58773081
REMARK  8 active torsions:
REMARK  status: ('A' for Active; 'I' for Inactive)
REMARK    1  A    between atoms: C_1  and  C_2
REMARK    2  A    between atoms: C_4  and  C_25
REMARK    3  A    between atoms: C_5  and  C_24
REMARK    4  A    between atoms: C_6  and  S_9
REMARK    5  A    between atoms: C_7  and  C_8
REMARK    6  A    between atoms: S_9  and  N_12
REMARK    7  A    between atoms: N_12  and  C_13
REMARK    8  A    between atoms: C_18  and  N_19
REMARK                            x       y       z     vdW  Elec       q    Type
REMARK                         _______ _______ _______ _____ _____    ______ ____
ROOT
ATOM      1  S   UNL     1       0.585  -3.056   2.435  0.00  0.00    +0.073 S 
ATOM      2  O   UNL     1       0.139  -2.312   3.560  0.00  0.00    -0.150 OA
ATOM      3  O   UNL     1      -0.074  -4.234   1.991  0.00  0.00    -0.150 OA
ENDROOT
BRANCH   1   9
ATOM      4  C   UNL     1       2.290   1.282   0.070  0.00  0.00    +0.044 C 
ATOM      5  C   UNL     1       1.414   0.056   0.033  0.00  0.00    -0.045 A 
ATOM      6  C   UNL     1       0.623  -0.195  -1.073  0.00  0.00    +0.007 A 
ATOM      7  C   UNL     1      -0.180  -1.319  -1.107  0.00  0.00    -0.045 A 
ATOM      8  C   UNL     1      -0.192  -2.193  -0.036  0.00  0.00    -0.021 A 
ATOM      9  C   UNL     1       0.600  -1.942   1.069  0.00  0.00    +0.115 A 
ATOM     10  C   UNL     1       1.407  -0.820   1.102  0.00  0.00    -0.021 A 
ATOM     11  C   UNL     1       2.274  -0.550   2.304  0.00  0.00    +0.046 C 
ATOM     12  C   UNL     1      -1.068  -3.418  -0.072  0.00  0.00    +0.046 C 
ATOM     13  C   UNL     1      -1.043  -1.592  -2.312  0.00  0.00    +0.044 C 
ENDBRANCH   1   9
BRANCH   1  14
ATOM     14  N   UNL     1       2.157  -3.478   2.740  0.00  0.00    -0.214 N 
ATOM     15  H   UNL     1       2.585  -3.194   3.562  0.00  0.00    +0.174 HD
BRANCH  14  16
ATOM     16  C   UNL     1       2.867  -4.246   1.812  0.00  0.00    +0.073 A 
ATOM     17  C   UNL     1       2.583  -4.138   0.457  0.00  0.00    +0.026 A 
ATOM     18  C   UNL     1       3.287  -4.897  -0.458  0.00  0.00    +0.002 A 
ATOM     19  C   UNL     1       4.274  -5.765  -0.029  0.00  0.00    +0.002 A 
ATOM     20  C   UNL     1       4.563  -5.879   1.317  0.00  0.00    +0.030 A 
ATOM     21  C   UNL     1       3.866  -5.117   2.243  0.00  0.00    +0.088 A 
BRANCH  21  22
ATOM     22  N   UNL     1       4.162  -5.227   3.610  0.00  0.00    -0.238 N 
ATOM     23  C   UNL     1       5.104  -6.026   4.159  0.00  0.00    +0.114 A 
ATOM     24  C   UNL     1       5.074  -5.839   5.499  0.00  0.00    +0.041 A 
ATOM     25  C   UNL     1       4.079  -4.896   5.780  0.00  0.00    +0.135 A 
ATOM     26  N   UNL     1       3.536  -4.524   4.648  0.00  0.00    -0.175 NA
ENDBRANCH  21  22
ENDBRANCH  14  16
ENDBRANCH   1  14
TORSDOF 4
