REMARK  Name = ZINC22060477
REMARK  12 active torsions:
REMARK  status: ('A' for Active; 'I' for Inactive)
REMARK    1  A    between atoms: C_1  and  C_2
REMARK    2  A    between atoms: C_2  and  O_3
REMARK    3  A    between atoms: O_3  and  C_4
REMARK    4  A    between atoms: C_4  and  C_6
REMARK    5  A    between atoms: C_7  and  C_20
REMARK    6  A    between atoms: C_12  and  C_14
REMARK    7  A    between atoms: C_20  and  N_21
REMARK    8  A    between atoms: N_21  and  C_22
REMARK    9  A    between atoms: N_21  and  C_23
REMARK   10  A    between atoms: C_23  and  C_24
REMARK   11  A    between atoms: N_26  and  C_27
REMARK   12  A    between atoms: C_32  and  C_33
REMARK                            x       y       z     vdW  Elec       q    Type
REMARK                         _______ _______ _______ _____ _____    ______ ____
ROOT
ATOM      1  C   UNL     1      -0.955   1.477   3.894  0.00  0.00    +0.076 C 
ATOM      2  C   UNL     1      -0.484   0.949   5.045  0.00  0.00    +0.008 C 
ATOM      3  N   UNL     1      -1.105   1.191   6.237  0.00  0.00    -0.274 N 
ATOM      4  C   UNL     1      -2.201   1.949   6.364  0.00  0.00    +0.304 C 
ATOM      5  O   UNL     1      -2.683   2.107   7.468  0.00  0.00    -0.252 OA
ATOM      6  N   UNL     1      -2.787   2.545   5.306  0.00  0.00    -0.288 N 
ATOM      7  C   UNL     1      -2.191   2.352   3.973  0.00  0.00    +0.143 C 
ATOM      8  H   UNL     1      -0.706   0.752   7.163  0.00  0.00    +0.156 HD
ATOM      9  H   UNL     1      -3.689   3.163   5.420  0.00  0.00    +0.151 HD
ENDROOT
BRANCH   7  10
ATOM     10  C   UNL     1      -3.244   1.748   3.081  0.00  0.00    -0.023 A 
ATOM     11  C   UNL     1      -3.990   0.672   3.523  0.00  0.00    +0.006 A 
ATOM     12  C   UNL     1      -4.960   0.121   2.706  0.00  0.00    +0.000 A 
ATOM     13  C   UNL     1      -5.178   0.642   1.444  0.00  0.00    +0.000 A 
ATOM     14  C   UNL     1      -4.428   1.715   1.000  0.00  0.00    +0.000 A 
ATOM     15  C   UNL     1      -3.462   2.268   1.819  0.00  0.00    +0.006 A 
ENDBRANCH   7  10
BRANCH   1  16
ATOM     16  C   UNL     1      -0.314   1.228   2.658  0.00  0.00    +0.339 C 
ATOM     17  O   UNL     1       0.381   2.087   2.149  0.00  0.00    -0.245 OA
BRANCH  16  18
ATOM     18  O   UNL     1      -0.473   0.037   2.044  0.00  0.00    -0.462 OA
BRANCH  18  20
ATOM     19  C   UNL     1      -0.093  -1.546   0.258  0.00  0.00    +0.048 C 
ATOM     20  C   UNL     1       0.204  -0.146   0.799  0.00  0.00    +0.229 C 
ENDBRANCH  18  20
ENDBRANCH  16  18
ENDBRANCH   1  16
BRANCH   2  21
ATOM     21  C   UNL     1       0.746   0.079   5.012  0.00  0.00    -0.026 C 
BRANCH  21  22
ATOM     22  N   UNL     1       1.826   0.730   5.764  0.00  0.00    +0.387 N 
ATOM     23  C   UNL     1       2.256   1.969   5.102  0.00  0.00    -0.095 C 
ATOM     24  H   UNL     1       1.434   0.996   6.757  0.00  0.00    -0.081 HD
BRANCH  22  25
ATOM     25  C   UNL     1       2.959  -0.184   5.957  0.00  0.00    +0.019 C 
BRANCH  25  26
ATOM     26  C   UNL     1       3.935   0.423   6.931  0.00  0.00    +0.201 C 
ATOM     27  O   UNL     1       3.709   1.511   7.418  0.00  0.00    -0.278 OA
ATOM     28  N   UNL     1       5.059  -0.243   7.262  0.00  0.00    -0.287 N 
ATOM     29  H   UNL     1       5.310  -1.186   6.754  0.00  0.00    +0.155 HD
BRANCH  28  30
ATOM     30  C   UNL     1       5.907   0.265   8.252  0.00  0.00    +0.045 A 
ATOM     31  C   UNL     1       5.430   1.193   9.169  0.00  0.00    +0.024 A 
ATOM     32  C   UNL     1       6.268   1.689  10.148  0.00  0.00    +0.002 A 
ATOM     33  C   UNL     1       7.585   1.270  10.210  0.00  0.00    +0.001 A 
ATOM     34  C   UNL     1       8.065   0.350   9.296  0.00  0.00    +0.014 A 
ATOM     35  C   UNL     1       7.230  -0.153   8.318  0.00  0.00    +0.076 A 
BRANCH  35  36
ATOM     36  C   UNL     1       7.754  -1.156   7.322  0.00  0.00    +0.419 C 
ATOM     37  F   UNL     1       9.102  -1.417   7.589  0.00  0.00    -0.166 F 
ATOM     38  F   UNL     1       7.019  -2.342   7.424  0.00  0.00    -0.166 F 
ATOM     39  F   UNL     1       7.627  -0.638   6.028  0.00  0.00    -0.166 F 
ENDBRANCH  35  36
ENDBRANCH  28  30
ENDBRANCH  25  26
ENDBRANCH  22  25
ENDBRANCH  21  22
ENDBRANCH   2  21
TORSDOF 10
