REMARK  Name = ZINC25575467
REMARK  15 active torsions:
REMARK  status: ('A' for Active; 'I' for Inactive)
REMARK    1  A    between atoms: C_1  and  C_2
REMARK    2  A    between atoms: C_2  and  N_3
REMARK    3  A    between atoms: N_3  and  C_4
REMARK    4  A    between atoms: C_4  and  C_5
REMARK    5  A    between atoms: C_12  and  O_19
REMARK    6  A    between atoms: C_13  and  O_17
REMARK    7  A    between atoms: O_17  and  C_18
REMARK    8  A    between atoms: O_19  and  C_20
REMARK    9  A    between atoms: C_21  and  C_23
REMARK   10  A    between atoms: C_23  and  S_24
REMARK   11  A    between atoms: S_24  and  C_25
REMARK   12  A    between atoms: C_26  and  C_34
REMARK   13  A    between atoms: C_27  and  C_33
REMARK   14  A    between atoms: C_28  and  C_32
REMARK   15  A    between atoms: C_29  and  C_31
REMARK                            x       y       z     vdW  Elec       q    Type
REMARK                         _______ _______ _______ _____ _____    ______ ____
ROOT
ATOM      1  N   UNL     1       4.344   1.923   5.095  0.00  0.00    -0.294 N 
ATOM      2  C   UNL     1       3.050   2.205   5.345  0.00  0.00    +0.226 C 
ATOM      3  O   UNL     1       2.715   2.591   6.445  0.00  0.00    -0.275 OA
ENDROOT
BRANCH   1   5
ATOM      4  C   UNL     1       5.108   2.661   2.892  0.00  0.00    +0.024 C 
ATOM      5  C   UNL     1       4.749   1.458   3.766  0.00  0.00    +0.105 C 
ENDBRANCH   1   5
BRANCH   1   6
ATOM      6  C   UNL     1       5.346   2.082   6.152  0.00  0.00    +0.182 C 
BRANCH   6   7
ATOM      7  C   UNL     1       5.475   0.792   6.920  0.00  0.00    +0.128 A 
ATOM      8  N   UNL     1       6.361   0.740   7.949  0.00  0.00    -0.309 N 
ATOM      9  H   UNL     1       6.963   1.625   8.203  0.00  0.00    +0.170 HD
ATOM     10  C   UNL     1       6.514  -0.395   8.670  0.00  0.00    +0.259 A 
ATOM     11  O   UNL     1       7.304  -0.455   9.595  0.00  0.00    -0.267 OA
ATOM     12  C   UNL     1       5.690  -1.552   8.296  0.00  0.00    +0.068 A 
ATOM     13  C   UNL     1       5.773  -2.766   8.977  0.00  0.00    +0.064 A 
ATOM     14  C   UNL     1       4.976  -3.822   8.586  0.00  0.00    +0.162 A 
ATOM     15  C   UNL     1       4.089  -3.680   7.513  0.00  0.00    +0.164 A 
ATOM     16  C   UNL     1       3.997  -2.483   6.830  0.00  0.00    +0.078 A 
ATOM     17  C   UNL     1       4.795  -1.405   7.212  0.00  0.00    +0.082 A 
ATOM     18  N   UNL     1       4.730  -0.211   6.569  0.00  0.00    -0.232 NA
BRANCH  15  19
ATOM     19  O   UNL     1       3.312  -4.729   7.141  0.00  0.00    -0.491 OA
ATOM     20  C   UNL     1       2.427  -4.521   6.038  0.00  0.00    +0.277 C 
ENDBRANCH  15  19
BRANCH  14  21
ATOM     21  O   UNL     1       5.053  -5.008   9.248  0.00  0.00    -0.491 OA
ATOM     22  C   UNL     1       5.978  -5.086  10.334  0.00  0.00    +0.277 C 
ENDBRANCH  14  21
ENDBRANCH   6   7
ENDBRANCH   1   6
BRANCH   2  23
ATOM     23  C   UNL     1       2.020   2.042   4.257  0.00  0.00    +0.171 C 
BRANCH  23  24
ATOM     24  S   UNL     1       0.389   2.495   4.898  0.00  0.00    -0.096 S 
BRANCH  24  25
ATOM     25  C   UNL     1      -0.592   2.219   3.461  0.00  0.00    +0.110 A 
ATOM     26  C   UNL     1      -1.978   2.454   3.504  0.00  0.00    +0.071 A 
ATOM     27  C   UNL     1      -2.736   2.227   2.350  0.00  0.00    -0.031 A 
ATOM     28  C   UNL     1      -2.085   1.785   1.212  0.00  0.00    -0.026 A 
ATOM     29  C   UNL     1      -0.718   1.572   1.248  0.00  0.00    +0.043 A 
ATOM     30  N   UNL     1      -0.021   1.791   2.345  0.00  0.00    -0.245 NA
ATOM     31  C   UNL     1      -0.013   1.086   0.008  0.00  0.00    +0.066 C 
ATOM     32  C   UNL     1      -2.859   1.534  -0.056  0.00  0.00    +0.046 C 
ATOM     33  C   UNL     1      -4.224   2.463   2.345  0.00  0.00    +0.045 C 
BRANCH  26  34
ATOM     34  C   UNL     1      -2.620   2.930   4.742  0.00  0.00    +0.244 C 
ATOM     35  O   UNL     1      -2.726   4.123   4.952  0.00  0.00    -0.270 OA
ATOM     36  N   UNL     1      -3.091   2.043   5.642  0.00  0.00    -0.325 N 
ATOM     37  H   UNL     1      -3.570   2.399   6.566  0.00  0.00    +0.145 HD
ATOM     38  H   UNL     1      -2.995   0.964   5.452  0.00  0.00    +0.145 HD
ENDBRANCH  26  34
ENDBRANCH  24  25
ENDBRANCH  23  24
ENDBRANCH   2  23
TORSDOF 9
