REMARK  Name = ZINC08872265
REMARK  7 active torsions:
REMARK  status: ('A' for Active; 'I' for Inactive)
REMARK    1  A    between atoms: C_4  and  C_7
REMARK    2  A    between atoms: C_7  and  C_8
REMARK    3  A    between atoms: C_8  and  N_9
REMARK    4  A    between atoms: C_13  and  C_14
REMARK    5  A    between atoms: N_16  and  C_28
REMARK    6  A    between atoms: C_18  and  C_19
REMARK    7  A    between atoms: C_23  and  N_25
REMARK                            x       y       z     vdW  Elec       q    Type
REMARK                         _______ _______ _______ _____ _____    ______ ____
ROOT
ATOM      1  C   UNL     1       0.002  -0.004   0.002  0.00  0.00    +0.022 A 
ATOM      2  C   UNL     1      -0.017   1.378   0.010  0.00  0.00    +0.123 A 
ATOM      3  N   UNL     1       1.260   1.807  -0.000  0.00  0.00    -0.239 N 
ATOM      4  N   UNL     1       2.124   0.709  -0.014  0.00  0.00    -0.166 NA
ATOM      5  C   UNL     1       1.416  -0.398  -0.014  0.00  0.00    +0.100 A 
ENDROOT
BRANCH   1  10
ATOM      6  N   UNL     1      -4.797  -0.310   0.048  0.00  0.00    -0.255 N 
ATOM      7  C   UNL     1      -3.717  -1.074   0.027  0.00  0.00    +0.258 C 
ATOM      8  O   UNL     1      -3.795  -2.289   0.016  0.00  0.00    -0.269 OA
ATOM      9  C   UNL     1      -2.416  -0.382   0.024  0.00  0.00    +0.077 C 
ATOM     10  C   UNL     1      -1.160  -0.899   0.009  0.00  0.00    +0.032 C 
ATOM     11  S   UNL     1      -2.945   1.326   0.037  0.00  0.00    -0.061 S 
ATOM     12  C   UNL     1      -4.707   1.036   0.054  0.00  0.00    +0.121 C 
ATOM     13  S   UNL     1      -5.974   2.187   0.072  0.00  0.00    -0.027 S 
BRANCH   6  14
ATOM     14  C   UNL     1      -6.120  -0.939   0.059  0.00  0.00    +0.119 C 
BRANCH  14  15
ATOM     15  C   UNL     1      -6.595  -1.151  -1.380  0.00  0.00    +0.054 C 
BRANCH  15  19
ATOM     16  C   UNL     1     -10.452  -2.986  -1.350  0.00  0.00    +0.000 A 
ATOM     17  C   UNL     1     -10.342  -1.608  -1.344  0.00  0.00    +0.000 A 
ATOM     18  C   UNL     1      -9.094  -1.014  -1.354  0.00  0.00    +0.004 A 
ATOM     19  C   UNL     1      -7.956  -1.798  -1.369  0.00  0.00    -0.046 A 
ATOM     20  C   UNL     1      -8.066  -3.176  -1.381  0.00  0.00    +0.004 A 
ATOM     21  C   UNL     1      -9.314  -3.770  -1.367  0.00  0.00    +0.000 A 
ENDBRANCH  15  19
ENDBRANCH  14  15
ENDBRANCH   6  14
ENDBRANCH   1  10
BRANCH   5  22
ATOM     22  C   UNL     1       1.945  -1.782  -0.026  0.00  0.00    +0.005 A 
ATOM     23  C   UNL     1       1.282  -2.791   0.672  0.00  0.00    +0.010 A 
ATOM     24  C   UNL     1       1.776  -4.079   0.653  0.00  0.00    +0.003 A 
ATOM     25  C   UNL     1       2.933  -4.369  -0.048  0.00  0.00    +0.033 A 
ATOM     26  C   UNL     1       3.598  -3.371  -0.738  0.00  0.00    +0.127 A 
ATOM     27  C   UNL     1       3.111  -2.080  -0.730  0.00  0.00    +0.042 A 
BRANCH  26  28
ATOM     28  N   UNL     1       4.836  -3.689  -1.485  0.00  0.00    +0.056 N 
ATOM     29  O   UNL     1       5.423  -2.811  -2.092  0.00  0.00    -0.126 OA
ATOM     30  O   UNL     1       5.267  -4.828  -1.492  0.00  0.00    -0.126 OA
ENDBRANCH  26  28
ENDBRANCH   5  22
BRANCH   3  31
ATOM     31  C   UNL     1       1.660   3.149   0.003  0.00  0.00    +0.065 A 
ATOM     32  C   UNL     1       0.707   4.160   0.012  0.00  0.00    +0.028 A 
ATOM     33  C   UNL     1       1.105   5.482   0.021  0.00  0.00    +0.002 A 
ATOM     34  C   UNL     1       2.451   5.801   0.009  0.00  0.00    +0.000 A 
ATOM     35  C   UNL     1       3.402   4.797  -0.005  0.00  0.00    +0.002 A 
ATOM     36  C   UNL     1       3.011   3.473  -0.008  0.00  0.00    +0.028 A 
ENDBRANCH   3  31
TORSDOF 7
