REMARK  Name = ZINC39836457
REMARK  10 active torsions:
REMARK  status: ('A' for Active; 'I' for Inactive)
REMARK    1  A    between atoms: C_1  and  C_2
REMARK    2  A    between atoms: C_2  and  C_3
REMARK    3  A    between atoms: C_2  and  C_4
REMARK    4  A    between atoms: C_2  and  C_5
REMARK    5  A    between atoms: C_12  and  N_25
REMARK    6  A    between atoms: C_13  and  C_14
REMARK    7  A    between atoms: N_16  and  C_17
REMARK    8  A    between atoms: C_26  and  C_28
REMARK    9  A    between atoms: C_28  and  O_29
REMARK   10  A    between atoms: O_29  and  C_30
REMARK                            x       y       z     vdW  Elec       q    Type
REMARK                         _______ _______ _______ _____ _____    ______ ____
ROOT
ATOM      1  C   UNL     1       0.718  -0.497  -1.257  0.00  0.00    -0.000 C 
ATOM      2  C   UNL     1       0.746  -2.029  -1.264  0.00  0.00    +0.009 C 
ATOM      3  C   UNL     1       1.234  -2.534  -2.624  0.00  0.00    +0.037 C 
ATOM      4  C   UNL     1       2.546  -1.840  -2.959  0.00  0.00    -0.023 A 
ATOM      5  C   UNL     1       2.920  -0.705  -2.330  0.00  0.00    -0.004 A 
ATOM      6  S   UNL     1       4.484  -0.290  -3.046  0.00  0.00    -0.077 S 
ATOM      7  C   UNL     1       4.646  -1.558  -4.135  0.00  0.00    +0.084 A 
ATOM      8  C   UNL     1       3.496  -2.310  -3.953  0.00  0.00    +0.069 A 
ATOM      9  C   UNL     1       2.161   0.028  -1.267  0.00  0.00    +0.046 C 
ENDROOT
BRANCH   1  11
ATOM     10  C   UNL     1      -0.019   1.526   0.010  0.00  0.00    +0.011 C 
ATOM     11  C   UNL     1       0.002  -0.004   0.002  0.00  0.00    -0.035 C 
ATOM     12  C   UNL     1       0.742  -0.511   1.242  0.00  0.00    +0.011 C 
ATOM     13  C   UNL     1      -1.433  -0.534   0.013  0.00  0.00    +0.011 C 
ENDBRANCH   1  11
BRANCH   8  14
ATOM     14  C   UNL     1       3.248  -3.528  -4.730  0.00  0.00    +0.247 C 
ATOM     15  O   UNL     1       2.655  -3.463  -5.791  0.00  0.00    -0.270 OA
ATOM     16  N   UNL     1       3.677  -4.720  -4.270  0.00  0.00    -0.307 N 
ATOM     17  H   UNL     1       4.149  -4.772  -3.424  0.00  0.00    +0.149 HD
BRANCH  16  18
ATOM     18  C   UNL     1       3.429  -5.937  -5.046  0.00  0.00    +0.096 C 
ATOM     19  C   UNL     1       4.547  -6.114  -6.088  0.00  0.00    +0.046 C 
ATOM     20  C   UNL     1       4.439  -7.551  -6.675  0.00  0.00    +0.168 C 
ATOM     21  S   UNL     1       4.057  -8.511  -5.149  0.00  0.00    -0.029 S 
ATOM     22  O   UNL     1       5.272  -8.986  -4.586  0.00  0.00    -0.174 OA
ATOM     23  O   UNL     1       3.011  -9.430  -5.431  0.00  0.00    -0.174 OA
ATOM     24  C   UNL     1       3.399  -7.157  -4.094  0.00  0.00    +0.188 C 
ENDBRANCH  16  18
ENDBRANCH   8  14
BRANCH   7  25
ATOM     25  N   UNL     1       5.691  -1.799  -5.014  0.00  0.00    -0.277 N 
ATOM     26  C   UNL     1       6.741  -0.955  -5.059  0.00  0.00    +0.255 C 
ATOM     27  O   UNL     1       6.773   0.014  -4.330  0.00  0.00    -0.272 OA
ATOM     28  H   UNL     1       5.666  -2.574  -5.597  0.00  0.00    +0.155 HD
BRANCH  26  29
ATOM     29  C   UNL     1       7.877  -1.216  -6.015  0.00  0.00    +0.324 C 
BRANCH  29  30
ATOM     30  O   UNL     1       8.862  -0.191  -5.876  0.00  0.00    -0.483 OA
BRANCH  30  31
ATOM     31  C   UNL     1       9.960  -0.278  -6.672  0.00  0.00    +0.121 A 
ATOM     32  C   UNL     1      10.084  -1.325  -7.573  0.00  0.00    +0.045 A 
ATOM     33  C   UNL     1      11.200  -1.411  -8.382  0.00  0.00    +0.004 A 
ATOM     34  C   UNL     1      12.194  -0.454  -8.293  0.00  0.00    +0.000 A 
ATOM     35  C   UNL     1      12.074   0.591  -7.396  0.00  0.00    +0.004 A 
ATOM     36  C   UNL     1      10.956   0.684  -6.589  0.00  0.00    +0.045 A 
ENDBRANCH  30  31
ENDBRANCH  29  30
ENDBRANCH  26  29
ENDBRANCH   7  25
TORSDOF 7
