REMARK  Name = ZINC22320951
REMARK  14 active torsions:
REMARK  status: ('A' for Active; 'I' for Inactive)
REMARK    1  A    between atoms: C_1  and  C_2
REMARK    2  A    between atoms: C_2  and  C_3
REMARK    3  A    between atoms: C_3  and  C_5
REMARK    4  A    between atoms: C_3  and  N_15
REMARK    5  A    between atoms: C_8  and  O_13
REMARK    6  A    between atoms: C_9  and  O_11
REMARK    7  A    between atoms: O_11  and  C_12
REMARK    8  A    between atoms: O_13  and  C_14
REMARK    9  A    between atoms: C_16  and  C_18
REMARK   10  A    between atoms: C_18  and  N_19
REMARK   11  A    between atoms: N_19  and  C_20
REMARK   12  A    between atoms: N_19  and  S_27
REMARK   13  A    between atoms: S_27  and  C_30
REMARK   14  A    between atoms: C_33  and  C_36
REMARK                            x       y       z     vdW  Elec       q    Type
REMARK                         _______ _______ _______ _____ _____    ______ ____
ROOT
ATOM      1  C   UNL     1      -2.125   5.454   2.814  0.00  0.00    +0.227 C 
ENDROOT
BRANCH   1   3
ATOM      2  N   UNL     1      -0.275   4.625   1.397  0.00  0.00    -0.307 N 
ATOM      3  C   UNL     1      -1.596   4.643   1.659  0.00  0.00    +0.233 C 
ATOM      4  O   UNL     1      -2.361   4.007   0.965  0.00  0.00    -0.274 OA
ATOM      5  H   UNL     1       0.419   5.202   2.026  0.00  0.00    +0.149 HD
BRANCH   2   6
ATOM      6  C   UNL     1       0.239   3.836   0.274  0.00  0.00    +0.103 C 
BRANCH   6   7
ATOM      7  C   UNL     1       1.678   3.471   0.533  0.00  0.00    -0.024 A 
ATOM      8  C   UNL     1       2.534   4.399   1.097  0.00  0.00    +0.009 A 
ATOM      9  C   UNL     1       3.856   4.071   1.331  0.00  0.00    +0.050 A 
ATOM     10  C   UNL     1       4.327   2.811   1.000  0.00  0.00    +0.162 A 
ATOM     11  C   UNL     1       3.466   1.877   0.432  0.00  0.00    +0.162 A 
ATOM     12  C   UNL     1       2.141   2.212   0.200  0.00  0.00    +0.054 A 
BRANCH  11  13
ATOM     13  O   UNL     1       3.922   0.638   0.106  0.00  0.00    -0.491 OA
ATOM     14  C   UNL     1       2.982  -0.268  -0.473  0.00  0.00    +0.277 C 
ENDBRANCH  11  13
BRANCH  10  15
ATOM     15  O   UNL     1       5.628   2.487   1.229  0.00  0.00    -0.491 OA
ATOM     16  C   UNL     1       6.454   3.495   1.815  0.00  0.00    +0.277 C 
ENDBRANCH  10  15
ENDBRANCH   6   7
BRANCH   6  18
ATOM     17  C   UNL     1      -1.326   4.923  -1.342  0.00  0.00    +0.006 C 
ATOM     18  C   UNL     1       0.145   4.659  -1.012  0.00  0.00    +0.024 C 
ENDBRANCH   6  18
ENDBRANCH   2   6
ENDBRANCH   1   3
BRANCH   1  19
ATOM     19  N   UNL     1      -3.581   5.309   2.886  0.00  0.00    -0.194 N 
BRANCH  19  20
ATOM     20  C   UNL     1      -4.404   6.128   2.109  0.00  0.00    +0.052 A 
ATOM     21  C   UNL     1      -5.343   6.950   2.719  0.00  0.00    +0.026 A 
ATOM     22  C   UNL     1      -6.151   7.763   1.948  0.00  0.00    +0.022 A 
ATOM     23  C   UNL     1      -6.034   7.750   0.569  0.00  0.00    +0.041 A 
ATOM     24  C   UNL     1      -5.103   6.928  -0.041  0.00  0.00    +0.022 A 
ATOM     25  C   UNL     1      -4.288   6.118   0.725  0.00  0.00    +0.026 A 
ATOM     26 CL   UNL     1      -7.057   8.768  -0.396  0.00  0.00    -0.084 Cl
ENDBRANCH  19  20
BRANCH  19  27
ATOM     27  S   UNL     1      -4.251   4.176   3.890  0.00  0.00    +0.075 S 
ATOM     28  O   UNL     1      -5.586   3.978   3.446  0.00  0.00    -0.150 OA
ATOM     29  O   UNL     1      -3.314   3.111   3.984  0.00  0.00    -0.150 OA
BRANCH  27  30
ATOM     30  C   UNL     1      -4.356   4.897   5.494  0.00  0.00    +0.109 A 
ATOM     31  C   UNL     1      -3.265   4.859   6.342  0.00  0.00    +0.029 A 
ATOM     32  C   UNL     1      -3.346   5.428   7.599  0.00  0.00    +0.005 A 
ATOM     33  C   UNL     1      -4.521   6.027   8.012  0.00  0.00    -0.050 A 
ATOM     34  C   UNL     1      -5.614   6.061   7.166  0.00  0.00    +0.005 A 
ATOM     35  C   UNL     1      -5.531   5.496   5.907  0.00  0.00    +0.029 A 
ATOM     36  C   UNL     1      -4.611   6.644   9.384  0.00  0.00    +0.044 C 
ENDBRANCH  27  30
ENDBRANCH  19  27
ENDBRANCH   1  19
TORSDOF 10
