REMARK  Name = ZINC54255348
REMARK  8 active torsions:
REMARK  status: ('A' for Active; 'I' for Inactive)
REMARK    1  A    between atoms: C_1  and  C_2
REMARK    2  A    between atoms: N_6  and  C_14
REMARK    3  A    between atoms: C_14  and  C_15
REMARK    4  A    between atoms: N_17  and  C_18
REMARK    5  A    between atoms: C_20  and  C_26
REMARK    6  A    between atoms: C_20  and  C_27
REMARK    7  A    between atoms: C_22  and  C_24
REMARK    8  A    between atoms: C_22  and  C_25
REMARK                            x       y       z     vdW  Elec       q    Type
REMARK                         _______ _______ _______ _____ _____    ______ ____
ROOT
ATOM      1  C   UNL     1       2.842   0.263  -3.300  0.00  0.00    +0.231 C 
ATOM      2  O   UNL     1       2.506   1.370  -2.936  0.00  0.00    -0.274 OA
ATOM      3  N   UNL     1       3.563   0.115  -4.429  0.00  0.00    -0.311 N 
ATOM      4  H   UNL     1       3.832  -0.770  -4.721  0.00  0.00    +0.149 HD
ENDROOT
BRANCH   3   5
ATOM      5  C   UNL     1       3.943   1.295  -5.217  0.00  0.00    +0.070 C 
ATOM      6  C   UNL     1       2.816   1.629  -6.197  0.00  0.00    +0.009 C 
ATOM      7  C   UNL     1       3.202   2.848  -7.034  0.00  0.00    -0.072 C 
ATOM      8  N   UNL     1       4.485   2.673  -7.698  0.00  0.00    +0.386 N 
ATOM      9  C   UNL     1       5.591   2.159  -6.906  0.00  0.00    -0.072 C 
ATOM     10  C   UNL     1       5.202   0.977  -6.024  0.00  0.00    +0.009 C 
ATOM     11  C   UNL     1       6.236   3.256  -6.055  0.00  0.00    -0.010 C 
ATOM     12  C   UNL     1       6.674   1.658  -7.892  0.00  0.00    -0.010 C 
ATOM     13  C   UNL     1       3.166   4.112  -6.175  0.00  0.00    -0.010 C 
ATOM     14  C   UNL     1       2.126   3.009  -8.132  0.00  0.00    -0.010 C 
ATOM     15  H   UNL     1       4.349   2.053  -8.501  0.00  0.00    -0.084 HD
ATOM     16  H   UNL     1       4.765   3.572  -8.098  0.00  0.00    -0.084 HD
ENDBRANCH   3   5
BRANCH   1  17
ATOM     17  C   UNL     1       2.452  -0.947  -2.492  0.00  0.00    +0.209 C 
BRANCH  17  22
ATOM     18  C   UNL     1      -0.549   1.578  -0.219  0.00  0.00    +0.062 C 
ATOM     19  C   UNL     1      -0.443   0.052  -0.187  0.00  0.00    +0.256 C 
ATOM     20  C   UNL     1       0.333  -0.421  -1.390  0.00  0.00    +0.261 C 
ATOM     21  O   UNL     1      -0.249  -0.708  -2.415  0.00  0.00    -0.271 OA
ATOM     22  N   UNL     1       1.678  -0.524  -1.322  0.00  0.00    -0.256 N 
ATOM     23  C   UNL     1       2.322  -0.221  -0.114  0.00  0.00    +0.079 A 
ATOM     24  C   UNL     1       3.689  -0.001  -0.077  0.00  0.00    +0.027 A 
ATOM     25  C   UNL     1       4.305   0.296   1.125  0.00  0.00    +0.002 A 
ATOM     26  C   UNL     1       3.561   0.374   2.288  0.00  0.00    +0.004 A 
ATOM     27  C   UNL     1       2.195   0.157   2.257  0.00  0.00    +0.047 A 
ATOM     28  C   UNL     1       1.571  -0.140   1.058  0.00  0.00    +0.143 A 
ATOM     29  O   UNL     1       0.230  -0.353   1.008  0.00  0.00    -0.478 OA
ENDBRANCH  17  22
ENDBRANCH   1  17
TORSDOF 3
