REMARK  Name = ZINC66906101
REMARK  8 active torsions:
REMARK  status: ('A' for Active; 'I' for Inactive)
REMARK    1  A    between atoms: C_1  and  N_2
REMARK    2  A    between atoms: C_4  and  C_16
REMARK    3  A    between atoms: C_5  and  C_7
REMARK    4  A    between atoms: C_10  and  N_13
REMARK    5  A    between atoms: C_16  and  N_17
REMARK    6  A    between atoms: N_17  and  C_18
REMARK    7  A    between atoms: C_18  and  C_19
REMARK    8  A    between atoms: C_19  and  O_29
REMARK                            x       y       z     vdW  Elec       q    Type
REMARK                         _______ _______ _______ _____ _____    ______ ____
ROOT
ATOM      1  C   UNL     1       0.109  -3.305  -1.512  0.00  0.00    -0.043 C 
ENDROOT
BRANCH   1   5
ATOM      2  C   UNL     1      -0.219   1.684  -1.159  0.00  0.00    +0.172 C 
ATOM      3  N   UNL     1      -0.169   0.264  -0.803  0.00  0.00    -0.274 N 
ATOM      4  C   UNL     1      -0.026  -0.765  -1.667  0.00  0.00    +0.110 A 
ATOM      5  C   UNL     1      -0.026  -1.912  -0.953  0.00  0.00    -0.019 A 
ATOM      6  C   UNL     1      -0.175  -1.574   0.406  0.00  0.00    +0.094 A 
ATOM      7  N   UNL     1      -0.254  -0.263   0.492  0.00  0.00    -0.171 NA
BRANCH   6   8
ATOM      8  C   UNL     1      -0.226  -2.528   1.542  0.00  0.00    +0.002 A 
ATOM      9  C   UNL     1       0.657  -3.604   1.592  0.00  0.00    +0.012 A 
ATOM     10  C   UNL     1       0.605  -4.488   2.650  0.00  0.00    +0.033 A 
ATOM     11  C   UNL     1      -0.323  -4.308   3.660  0.00  0.00    +0.126 A 
ATOM     12  C   UNL     1      -1.202  -3.241   3.616  0.00  0.00    +0.033 A 
ATOM     13  C   UNL     1      -1.155  -2.348   2.565  0.00  0.00    +0.012 A 
BRANCH  11  14
ATOM     14  N   UNL     1      -0.374  -5.260   4.793  0.00  0.00    +0.056 N 
ATOM     15  O   UNL     1       0.393  -6.193   4.834  0.00  0.00    -0.126 OA
ATOM     16  O   UNL     1      -1.184  -5.104   5.677  0.00  0.00    -0.126 OA
ENDBRANCH  11  14
ENDBRANCH   6   8
ENDBRANCH   1   5
BRANCH   1  17
ATOM     17  N   UNL     1      -1.200  -3.972  -1.486  0.00  0.00    +0.384 N 
ATOM     18  H   UNL     1      -1.569  -3.951  -0.547  0.00  0.00    -0.085 HD
ATOM     19  H   UNL     1      -1.834  -3.493  -2.108  0.00  0.00    -0.085 HD
BRANCH  17  20
ATOM     20  C   UNL     1      -1.047  -5.367  -1.921  0.00  0.00    -0.042 C 
BRANCH  20  21
ATOM     21  C   UNL     1      -2.388  -6.091  -1.791  0.00  0.00    +0.076 C 
ATOM     22  C   UNL     1      -2.864  -6.014  -0.342  0.00  0.00    +0.038 C 
ATOM     23  C   UNL     1      -4.088  -6.924  -0.186  0.00  0.00    +0.008 C 
ATOM     24  C   UNL     1      -3.626  -8.376  -0.295  0.00  0.00    +0.035 C 
ATOM     25  C   UNL     1      -2.793  -8.575  -1.534  0.00  0.00    -0.042 A 
ATOM     26  C   UNL     1      -2.221  -7.526  -2.218  0.00  0.00    -0.015 A 
ATOM     27  C   UNL     1      -1.458  -7.779  -3.351  0.00  0.00    +0.006 A 
ATOM     28  C   UNL     1      -1.271  -9.071  -3.796  0.00  0.00    +0.000 A 
ATOM     29  C   UNL     1      -1.848 -10.123  -3.111  0.00  0.00    +0.000 A 
ATOM     30  C   UNL     1      -2.605  -9.875  -1.985  0.00  0.00    +0.004 A 
BRANCH  21  31
ATOM     31  O   UNL     1      -3.350  -5.457  -2.636  0.00  0.00    -0.386 OA
ATOM     32  H   UNL     1      -3.112  -5.458  -3.574  0.00  0.00    +0.211 HD
ENDBRANCH  21  31
ENDBRANCH  20  21
ENDBRANCH  17  20
ENDBRANCH   1  17
TORSDOF 7
