REMARK  Name = ZINC04767453
REMARK  10 active torsions:
REMARK  status: ('A' for Active; 'I' for Inactive)
REMARK    1  A    between atoms: C_1  and  C_2
REMARK    2  A    between atoms: C_7  and  C_8
REMARK    3  A    between atoms: C_13  and  C_23
REMARK    4  A    between atoms: C_15  and  C_19
REMARK    5  A    between atoms: C_19  and  O_21
REMARK    6  A    between atoms: O_21  and  C_22
REMARK    7  A    between atoms: C_25  and  C_36
REMARK    8  A    between atoms: C_26  and  C_27
REMARK    9  A    between atoms: C_27  and  O_29
REMARK   10  A    between atoms: O_29  and  C_30
REMARK                            x       y       z     vdW  Elec       q    Type
REMARK                         _______ _______ _______ _____ _____    ______ ____
ROOT
ATOM      1  C   UNL     1       2.308   1.787   0.095  0.00  0.00    +0.092 C 
ATOM      2  C   UNL     1       1.173   2.770   0.237  0.00  0.00    +0.025 C 
ATOM      3  C   UNL     1      -0.105   2.341   0.298  0.00  0.00    +0.016 C 
ATOM      4  C   UNL     1      -1.244   3.317   0.461  0.00  0.00    +0.055 C 
ATOM      5  C   UNL     1      -0.881   4.644  -0.213  0.00  0.00    +0.013 C 
ATOM      6  C   UNL     1       0.403   5.178   0.429  0.00  0.00    +0.171 C 
ATOM      7  C   UNL     1       1.484   4.139   0.301  0.00  0.00    +0.176 C 
ATOM      8  O   UNL     1       2.646   4.490   0.252  0.00  0.00    -0.291 OA
ATOM      9  C   UNL     1      -2.015   5.651  -0.009  0.00  0.00    +0.009 C 
ATOM     10  N   UNL     1      -0.396   1.006   0.219  0.00  0.00    -0.321 N 
ATOM     11  C   UNL     1       0.510   0.126  -0.305  0.00  0.00    +0.016 C 
ATOM     12  C   UNL     1       1.811   0.456  -0.387  0.00  0.00    +0.065 C 
ATOM     13  C   UNL     1       0.048  -1.223  -0.792  0.00  0.00    +0.061 C 
ATOM     14  H   UNL     1      -1.365   0.631   0.579  0.00  0.00    +0.152 HD
ENDROOT
BRANCH   1  21
ATOM     15  C   UNL     1       5.090   2.497   0.421  0.00  0.00    +0.044 C 
ATOM     16  C   UNL     1       4.310   1.949   1.589  0.00  0.00    -0.046 A 
ATOM     17  C   UNL     1       4.926   1.786   2.816  0.00  0.00    +0.003 A 
ATOM     18  C   UNL     1       4.210   1.284   3.886  0.00  0.00    +0.000 A 
ATOM     19  C   UNL     1       2.879   0.944   3.730  0.00  0.00    +0.000 A 
ATOM     20  C   UNL     1       2.263   1.112   2.505  0.00  0.00    +0.005 A 
ATOM     21  C   UNL     1       2.979   1.609   1.433  0.00  0.00    -0.032 A 
ENDBRANCH   1  21
BRANCH   6  22
ATOM     22  C   UNL     1       0.831   6.441  -0.273  0.00  0.00    +0.318 C 
ATOM     23  O   UNL     1       0.173   6.876  -1.188  0.00  0.00    -0.250 OA
BRANCH  22  24
ATOM     24  O   UNL     1       1.944   7.082   0.117  0.00  0.00    -0.467 OA
ATOM     25  C   UNL     1       2.296   8.291  -0.605  0.00  0.00    +0.280 C 
ENDBRANCH  22  24
ENDBRANCH   6  22
BRANCH  12  26
ATOM     26  C   UNL     1       2.728  -0.469  -0.939  0.00  0.00    +0.338 C 
ATOM     27  O   UNL     1       2.337  -1.552  -1.333  0.00  0.00    -0.245 OA
BRANCH  26  28
ATOM     28  O   UNL     1       4.036  -0.151  -1.028  0.00  0.00    -0.458 OA
BRANCH  28  29
ATOM     29  C   UNL     1       4.905  -1.133  -1.596  0.00  0.00    +0.177 C 
ATOM     30  C   UNL     1       5.441  -2.042  -0.487  0.00  0.00    +0.044 C 
ATOM     31  C   UNL     1       6.371  -3.094  -1.095  0.00  0.00    +0.004 C 
ATOM     32  C   UNL     1       7.541  -2.397  -1.793  0.00  0.00    +0.000 C 
ATOM     33  C   UNL     1       7.006  -1.488  -2.901  0.00  0.00    +0.004 C 
ATOM     34  C   UNL     1       6.075  -0.436  -2.293  0.00  0.00    +0.044 C 
ENDBRANCH  28  29
ENDBRANCH  26  28
ENDBRANCH  12  26
TORSDOF 6
