REMARK  Name = ZINC02649153
REMARK  4 active torsions:
REMARK  status: ('A' for Active; 'I' for Inactive)
REMARK    1  A    between atoms: C_3  and  C_17
REMARK    2  A    between atoms: C_5  and  C_11
REMARK    3  A    between atoms: N_19  and  C_20
REMARK    4  A    between atoms: C_25  and  C_26
REMARK                            x       y       z     vdW  Elec       q    Type
REMARK                         _______ _______ _______ _____ _____    ______ ____
ROOT
ATOM      1  C   UNL     1       0.007   1.319  -0.002  0.00  0.00    +0.029 C 
ATOM      2  C   UNL     1       0.021   0.000  -0.009  0.00  0.00    +0.019 C 
ATOM      3  C   UNL     1       1.323  -0.777  -0.017  0.00  0.00    +0.143 C 
ATOM      4  C   UNL     1       1.220  -1.843  -1.115  0.00  0.00    +0.122 C 
ATOM      5  N   UNL     1      -0.038  -2.574  -0.968  0.00  0.00    -0.291 N 
ATOM      6  C   UNL     1      -1.147  -2.006  -0.475  0.00  0.00    +0.304 C 
ATOM      7  O   UNL     1      -2.175  -2.655  -0.448  0.00  0.00    -0.253 OA
ATOM      8  N   UNL     1      -1.165  -0.743  -0.004  0.00  0.00    -0.273 N 
ATOM      9  H   UNL     1      -0.071  -3.505  -1.237  0.00  0.00    +0.151 HD
ATOM     10  H   UNL     1      -1.988  -0.353   0.331  0.00  0.00    +0.156 HD
ENDROOT
BRANCH   4  11
ATOM     11  C   UNL     1       1.258  -1.177  -2.466  0.00  0.00    -0.026 A 
ATOM     12  C   UNL     1       0.117  -0.592  -2.982  0.00  0.00    +0.005 A 
ATOM     13  C   UNL     1       0.153   0.022  -4.220  0.00  0.00    +0.000 A 
ATOM     14  C   UNL     1       1.330   0.045  -4.946  0.00  0.00    +0.000 A 
ATOM     15  C   UNL     1       2.470  -0.544  -4.433  0.00  0.00    +0.000 A 
ATOM     16  C   UNL     1       2.434  -1.155  -3.193  0.00  0.00    +0.005 A 
ENDBRANCH   4  11
BRANCH   3  17
ATOM     17  C   UNL     1       1.532  -1.438   1.321  0.00  0.00    +0.228 C 
ATOM     18  O   UNL     1       1.627  -2.645   1.393  0.00  0.00    -0.275 OA
ATOM     19  N   UNL     1       1.612  -0.688   2.438  0.00  0.00    -0.284 N 
ATOM     20  H   UNL     1       1.602   0.280   2.374  0.00  0.00    +0.155 HD
BRANCH  19  21
ATOM     21  C   UNL     1       1.712  -1.305   3.690  0.00  0.00    +0.045 A 
ATOM     22  C   UNL     1       2.415  -2.495   3.825  0.00  0.00    +0.024 A 
ATOM     23  C   UNL     1       2.516  -3.099   5.063  0.00  0.00    +0.002 A 
ATOM     24  C   UNL     1       1.907  -2.526   6.165  0.00  0.00    +0.001 A 
ATOM     25  C   UNL     1       1.201  -1.345   6.033  0.00  0.00    +0.014 A 
ATOM     26  C   UNL     1       1.102  -0.733   4.798  0.00  0.00    +0.076 A 
BRANCH  26  27
ATOM     27  C   UNL     1       0.331   0.554   4.655  0.00  0.00    +0.419 C 
ATOM     28  F   UNL     1      -0.187   0.929   5.899  0.00  0.00    -0.166 F 
ATOM     29  F   UNL     1       1.184   1.558   4.183  0.00  0.00    -0.166 F 
ATOM     30  F   UNL     1      -0.719   0.371   3.749  0.00  0.00    -0.166 F 
ENDBRANCH  26  27
ENDBRANCH  19  21
ENDBRANCH   3  17
TORSDOF 4
