REMARK  Name = ZINC50564093
REMARK  4 active torsions:
REMARK  status: ('A' for Active; 'I' for Inactive)
REMARK    1  A    between atoms: C_1  and  C_2
REMARK    2  A    between atoms: N_7  and  C_11
REMARK    3  A    between atoms: C_8  and  C_10
REMARK    4  A    between atoms: C_16  and  N_17
REMARK                            x       y       z     vdW  Elec       q    Type
REMARK                         _______ _______ _______ _____ _____    ______ ____
ROOT
ATOM      1  C   UNL     1       0.430  -2.792   2.200  0.00  0.00    +0.053 A 
ATOM      2  C   UNL     1       1.298  -3.131   3.227  0.00  0.00    +0.048 A 
ATOM      3  C   UNL     1       0.860  -3.942   4.264  0.00  0.00    +0.038 A 
ATOM      4  C   UNL     1      -0.447  -4.413   4.275  0.00  0.00    -0.024 A 
ATOM      5  C   UNL     1      -1.313  -4.077   3.252  0.00  0.00    +0.030 A 
ATOM      6  C   UNL     1      -0.882  -3.262   2.216  0.00  0.00    +0.046 A 
ATOM      7  C   UNL     1      -0.917  -5.292   5.404  0.00  0.00    +0.046 C 
ATOM      8  C   UNL     1       0.236  -6.176   5.879  0.00  0.00    +0.101 C 
ATOM      9  C   UNL     1       1.467  -5.339   6.098  0.00  0.00    +0.218 C 
ATOM     10  O   UNL     1       2.228  -5.615   7.002  0.00  0.00    -0.275 OA
ATOM     11  N   UNL     1       1.734  -4.287   5.303  0.00  0.00    -0.285 N 
ATOM     12  H   UNL     1       2.538  -3.763   5.450  0.00  0.00    +0.155 HD
ENDROOT
BRANCH   1  18
ATOM     13  C   UNL     1      -0.019   1.526   0.010  0.00  0.00    +0.009 C 
ATOM     14  C   UNL     1       0.002  -0.004   0.002  0.00  0.00    +0.006 C 
ATOM     15  C   UNL     1       0.720  -0.498  -1.256  0.00  0.00    +0.006 C 
ATOM     16  C   UNL     1       0.712  -2.028  -1.282  0.00  0.00    +0.019 C 
ATOM     17  C   UNL     1       1.463  -2.559  -0.057  0.00  0.00    +0.105 C 
ATOM     18  N   UNL     1       0.869  -1.973   1.153  0.00  0.00    -0.325 N 
ATOM     19  C   UNL     1       0.744  -0.512   1.242  0.00  0.00    +0.073 C 
ATOM     20  C   UNL     1      -0.044  -0.140   2.500  0.00  0.00    +0.028 C 
ENDBRANCH   1  18
BRANCH   6  21
ATOM     21  N   UNL     1      -1.764  -2.916   1.182  0.00  0.00    -0.357 N 
ATOM     22  H   UNL     1      -1.462  -2.350   0.456  0.00  0.00    +0.142 HD
ATOM     23  H   UNL     1      -2.677  -3.244   1.193  0.00  0.00    +0.142 HD
ENDBRANCH   6  21
TORSDOF 2
