REMARK  Name = ZINC05856148
REMARK  10 active torsions:
REMARK  status: ('A' for Active; 'I' for Inactive)
REMARK    1  A    between atoms: C_1  and  N_2
REMARK    2  A    between atoms: N_2  and  N_34
REMARK    3  A    between atoms: C_3  and  C_5
REMARK    4  A    between atoms: C_5  and  C_9
REMARK    5  A    between atoms: N_6  and  O_7
REMARK    6  A    between atoms: O_7  and  C_8
REMARK    7  A    between atoms: N_14  and  C_15
REMARK    8  A    between atoms: C_15  and  C_16
REMARK    9  A    between atoms: C_15  and  C_22
REMARK   10  A    between atoms: C_15  and  C_28
REMARK                            x       y       z     vdW  Elec       q    Type
REMARK                         _______ _______ _______ _____ _____    ______ ____
ROOT
ATOM      1  C   UNL     1       1.807  -4.022  -4.552  0.00  0.00    +0.107 A 
ATOM      2  C   UNL     1       1.537  -2.729  -4.914  0.00  0.00    +0.078 A 
ATOM      3  S   UNL     1       1.875  -1.875  -3.381  0.00  0.00    -0.060 S 
ATOM      4  C   UNL     1       2.347  -3.308  -2.422  0.00  0.00    +0.160 A 
ATOM      5  N   UNL     1       2.207  -4.277  -3.307  0.00  0.00    -0.223 NA
ATOM      6  N   UNL     1       2.747  -3.382  -1.099  0.00  0.00    -0.306 N 
ATOM      7  H   UNL     1       3.013  -4.234  -0.719  0.00  0.00    +0.149 HD
ENDROOT
BRANCH   1   8
ATOM      8  C   UNL     1       1.656  -5.121  -5.530  0.00  0.00    +0.192 C 
ATOM      9  N   UNL     1       1.265  -4.862  -6.745  0.00  0.00    -0.078 NA
BRANCH   8  12
ATOM     10  C   UNL     1      -0.423  -6.831  -4.681  0.00  0.00    +0.160 C 
ATOM     11  N   UNL     1       0.961  -7.310  -4.674  0.00  0.00    -0.204 N 
ATOM     12  C   UNL     1       1.951  -6.516  -5.127  0.00  0.00    +0.288 C 
ATOM     13  O   UNL     1       3.086  -6.944  -5.206  0.00  0.00    -0.266 OA
BRANCH  11  14
ATOM     14  N   UNL     1       1.255  -8.594  -4.197  0.00  0.00    -0.231 N 
ATOM     15  C   UNL     1       2.475  -9.180  -4.133  0.00  0.00    +0.244 A 
ATOM     16  N   UNL     1       2.308 -10.371  -3.626  0.00  0.00    -0.137 NA
ATOM     17  N   UNL     1       1.061 -10.565  -3.379  0.00  0.00    -0.137 NA
ATOM     18  C   UNL     1       0.377  -9.505  -3.713  0.00  0.00    +0.244 A 
ENDBRANCH  11  14
ENDBRANCH   8  12
BRANCH   9  19
ATOM     19  O   UNL     1       1.023  -5.923  -7.652  0.00  0.00    -0.396 OA
ATOM     20  C   UNL     1       0.709  -5.493  -8.978  0.00  0.00    +0.313 C 
ENDBRANCH   9  19
ENDBRANCH   1   8
BRANCH   6  21
ATOM     21  C   UNL     1       2.770  -2.173  -0.272  0.00  0.00    +0.110 C 
BRANCH  21  22
ATOM     22  C   UNL     1       1.407  -1.530  -0.284  0.00  0.00    -0.015 A 
ATOM     23  C   UNL     1       0.298  -2.267  -0.658  0.00  0.00    +0.006 A 
ATOM     24  C   UNL     1      -0.952  -1.677  -0.670  0.00  0.00    +0.000 A 
ATOM     25  C   UNL     1      -1.094  -0.351  -0.306  0.00  0.00    +0.000 A 
ATOM     26  C   UNL     1       0.014   0.386   0.069  0.00  0.00    +0.000 A 
ATOM     27  C   UNL     1       1.264  -0.204   0.080  0.00  0.00    +0.006 A 
ENDBRANCH  21  22
BRANCH  21  28
ATOM     28  C   UNL     1       3.786  -1.206  -0.822  0.00  0.00    -0.015 A 
ATOM     29  C   UNL     1       3.386  -0.195  -1.676  0.00  0.00    +0.006 A 
ATOM     30  C   UNL     1       4.318   0.695  -2.178  0.00  0.00    +0.000 A 
ATOM     31  C   UNL     1       5.651   0.567  -1.833  0.00  0.00    +0.000 A 
ATOM     32  C   UNL     1       6.051  -0.447  -0.984  0.00  0.00    +0.000 A 
ATOM     33  C   UNL     1       5.119  -1.334  -0.478  0.00  0.00    +0.006 A 
ENDBRANCH  21  28
BRANCH  21  34
ATOM     34  C   UNL     1       3.140  -2.539   1.143  0.00  0.00    -0.015 A 
ATOM     35  C   UNL     1       2.662  -1.786   2.199  0.00  0.00    +0.006 A 
ATOM     36  C   UNL     1       2.997  -2.125   3.497  0.00  0.00    +0.000 A 
ATOM     37  C   UNL     1       3.819  -3.210   3.737  0.00  0.00    +0.000 A 
ATOM     38  C   UNL     1       4.301  -3.960   2.681  0.00  0.00    +0.000 A 
ATOM     39  C   UNL     1       3.961  -3.624   1.383  0.00  0.00    +0.006 A 
ENDBRANCH  21  34
ENDBRANCH   6  21
TORSDOF 8
