REMARK  Name = ZINC36497660
REMARK  12 active torsions:
REMARK  status: ('A' for Active; 'I' for Inactive)
REMARK    1  A    between atoms: C_1  and  C_2
REMARK    2  A    between atoms: C_2  and  C_3
REMARK    3  A    between atoms: C_3  and  C_4
REMARK    4  A    between atoms: C_4  and  N_5
REMARK    5  A    between atoms: C_6  and  C_8
REMARK    6  A    between atoms: C_8  and  C_10
REMARK    7  A    between atoms: C_8  and  N_17
REMARK    8  A    between atoms: N_17  and  C_18
REMARK    9  A    between atoms: C_18  and  C_19
REMARK   10  A    between atoms: C_24  and  C_26
REMARK   11  A    between atoms: C_28  and  N_35
REMARK   12  A    between atoms: C_30  and  N_32
REMARK                            x       y       z     vdW  Elec       q    Type
REMARK                         _______ _______ _______ _____ _____    ______ ____
ROOT
ATOM      1  N   UNL     1       2.401  -5.973   4.107  0.00  0.00    -0.275 N 
ATOM      2  C   UNL     1       1.272  -6.703   4.014  0.00  0.00    +0.248 C 
ATOM      3  O   UNL     1       1.264  -7.860   4.385  0.00  0.00    -0.270 OA
ENDROOT
BRANCH   2   4
ATOM      4  C   UNL     1       0.042  -6.095   3.462  0.00  0.00    +0.041 A 
ATOM      5  C   UNL     1      -0.079  -4.707   3.382  0.00  0.00    +0.046 A 
ATOM      6  C   UNL     1      -1.228  -4.146   2.865  0.00  0.00    +0.129 A 
ATOM      7  C   UNL     1      -2.260  -4.957   2.427  0.00  0.00    +0.065 A 
ATOM      8  C   UNL     1      -2.147  -6.334   2.503  0.00  0.00    +0.129 A 
ATOM      9  C   UNL     1      -1.000  -6.907   3.012  0.00  0.00    +0.046 A 
BRANCH   8  10
ATOM     10  N   UNL     1      -3.255  -7.194   2.031  0.00  0.00    +0.057 N 
ATOM     11  O   UNL     1      -4.259  -6.692   1.580  0.00  0.00    -0.126 OA
ATOM     12  O   UNL     1      -3.157  -8.397   2.097  0.00  0.00    -0.126 OA
ENDBRANCH   8  10
BRANCH   6  13
ATOM     13  N   UNL     1      -1.359  -2.674   2.780  0.00  0.00    +0.057 N 
ATOM     14  O   UNL     1      -0.458  -1.965   3.164  0.00  0.00    -0.126 OA
ATOM     15  O   UNL     1      -2.366  -2.182   2.328  0.00  0.00    -0.126 OA
ENDBRANCH   6  13
ENDBRANCH   2   4
BRANCH   1  16
ATOM     16  C   UNL     1       2.390  -4.556   3.737  0.00  0.00    +0.193 C 
BRANCH  16  17
ATOM     17  C   UNL     1       3.802  -4.029   3.724  0.00  0.00    -0.018 A 
ATOM     18  C   UNL     1       4.698  -4.477   2.772  0.00  0.00    +0.007 A 
ATOM     19  C   UNL     1       5.993  -3.994   2.759  0.00  0.00    +0.020 A 
ATOM     20  C   UNL     1       6.392  -3.062   3.700  0.00  0.00    +0.041 A 
ATOM     21  C   UNL     1       5.495  -2.613   4.653  0.00  0.00    +0.020 A 
ATOM     22  C   UNL     1       4.198  -3.093   4.661  0.00  0.00    +0.007 A 
ATOM     23 CL   UNL     1       8.018  -2.455   3.686  0.00  0.00    -0.084 Cl
ENDBRANCH  16  17
BRANCH  16  25
ATOM     24  N   UNL     1       1.668  -3.174   1.816  0.00  0.00    -0.313 N 
ATOM     25  C   UNL     1       1.783  -4.399   2.367  0.00  0.00    +0.238 C 
ATOM     26  O   UNL     1       1.397  -5.375   1.759  0.00  0.00    -0.273 OA
ATOM     27  H   UNL     1       1.976  -2.393   2.302  0.00  0.00    +0.149 HD
BRANCH  24  28
ATOM     28  C   UNL     1       1.078  -3.022   0.484  0.00  0.00    +0.104 C 
BRANCH  28  29
ATOM     29  C   UNL     1       1.066  -1.542   0.097  0.00  0.00    +0.018 C 
BRANCH  29  31
ATOM     30  C   UNL     1       0.438   0.097  -1.681  0.00  0.00    +0.004 C 
ATOM     31  C   UNL     1       0.450  -1.383  -1.294  0.00  0.00    -0.002 C 
ENDBRANCH  29  31
ENDBRANCH  28  29
ENDBRANCH  24  28
ENDBRANCH  16  25
ENDBRANCH   1  16
BRANCH   1  32
ATOM     32  C   UNL     1       3.640  -6.597   4.578  0.00  0.00    +0.183 C 
BRANCH  32  33
ATOM     33  C   UNL     1       3.687  -6.545   6.084  0.00  0.00    +0.122 A 
ATOM     34  C   UNL     1       3.314  -7.533   6.917  0.00  0.00    +0.046 A 
ATOM     35  C   UNL     1       3.524  -7.061   8.233  0.00  0.00    +0.041 A 
ATOM     36  C   UNL     1       4.013  -5.812   8.125  0.00  0.00    +0.195 A 
ATOM     37  O   UNL     1       4.115  -5.508   6.821  0.00  0.00    -0.466 OA
ENDBRANCH  32  33
ENDBRANCH   1  32
TORSDOF 11
