REMARK  Name = ZINC00707710
REMARK  8 active torsions:
REMARK  status: ('A' for Active; 'I' for Inactive)
REMARK    1  A    between atoms: C_1  and  C_2
REMARK    2  A    between atoms: C_3  and  C_25
REMARK    3  A    between atoms: C_4  and  C_16
REMARK    4  A    between atoms: C_10  and  C_14
REMARK    5  A    between atoms: C_10  and  C_15
REMARK    6  A    between atoms: C_25  and  O_27
REMARK    7  A    between atoms: O_27  and  C_28
REMARK    8  A    between atoms: C_28  and  C_29
REMARK                            x       y       z     vdW  Elec       q    Type
REMARK                         _______ _______ _______ _____ _____    ______ ____
ROOT
ATOM      1  C   UNL     1       5.367   2.510   2.634  0.00  0.00    +0.061 C 
ATOM      2  C   UNL     1       4.089   1.728   2.473  0.00  0.00    +0.016 C 
ATOM      3  C   UNL     1       3.956   0.534   3.075  0.00  0.00    +0.065 C 
ATOM      4  C   UNL     1       2.695  -0.268   2.944  0.00  0.00    +0.092 C 
ATOM      5  C   UNL     1       1.869   0.208   1.775  0.00  0.00    +0.024 C 
ATOM      6  C   UNL     1       2.090   1.420   1.223  0.00  0.00    +0.016 C 
ATOM      7  N   UNL     1       3.071   2.239   1.715  0.00  0.00    -0.321 N 
ATOM      8  C   UNL     1       1.271   1.902   0.052  0.00  0.00    +0.058 C 
ATOM      9  C   UNL     1      -0.135   1.301   0.125  0.00  0.00    -0.023 C 
ATOM     10  C   UNL     1      -0.010  -0.226   0.129  0.00  0.00    +0.086 C 
ATOM     11  C   UNL     1       0.865  -0.642   1.280  0.00  0.00    +0.162 C 
ATOM     12  O   UNL     1       0.701  -1.733   1.791  0.00  0.00    -0.292 OA
ATOM     13  C   UNL     1      -0.949   1.747  -1.091  0.00  0.00    +0.011 C 
ATOM     14  C   UNL     1      -0.826   1.764   1.409  0.00  0.00    +0.011 C 
ATOM     15  H   UNL     1       3.036   3.316   1.496  0.00  0.00    +0.152 HD
ENDROOT
BRANCH   4  16
ATOM     16  C   UNL     1       1.888  -0.129   4.209  0.00  0.00    -0.032 A 
ATOM     17  C   UNL     1       1.435   1.116   4.605  0.00  0.00    +0.008 A 
ATOM     18  C   UNL     1       0.689   1.248   5.762  0.00  0.00    +0.050 A 
ATOM     19  C   UNL     1       0.405   0.133   6.534  0.00  0.00    +0.166 A 
ATOM     20  C   UNL     1       0.866  -1.120   6.138  0.00  0.00    +0.167 A 
ATOM     21  C   UNL     1       1.607  -1.246   4.974  0.00  0.00    +0.054 A 
ATOM     22  O   UNL     1       0.459  -2.045   7.056  0.00  0.00    -0.453 OA
ATOM     23  C   UNL     1       0.095  -1.290   8.227  0.00  0.00    +0.466 C 
ATOM     24  O   UNL     1      -0.291  -0.007   7.700  0.00  0.00    -0.453 OA
ENDBRANCH   4  16
BRANCH   3  25
ATOM     25  C   UNL     1       5.026   0.024   3.847  0.00  0.00    +0.338 C 
ATOM     26  O   UNL     1       6.090   0.612   3.876  0.00  0.00    -0.245 OA
BRANCH  25  27
ATOM     27  O   UNL     1       4.866  -1.117   4.551  0.00  0.00    -0.459 OA
BRANCH  27  28
ATOM     28  C   UNL     1       5.988  -1.574   5.308  0.00  0.00    +0.264 C 
BRANCH  28  29
ATOM     29  C   UNL     1       5.619  -2.870   6.034  0.00  0.00    +0.156 C 
ATOM     30  C   UNL     1       6.856  -3.434   6.759  0.00  0.00    +0.037 C 
ATOM     31  C   UNL     1       6.427  -3.502   8.245  0.00  0.00    +0.031 C 
ATOM     32  C   UNL     1       4.881  -3.499   8.136  0.00  0.00    +0.160 C 
ATOM     33  O   UNL     1       4.620  -2.604   7.032  0.00  0.00    -0.373 OA
ENDBRANCH  28  29
ENDBRANCH  27  28
ENDBRANCH  25  27
ENDBRANCH   3  25
TORSDOF 5
