REMARK  Name = ZINC09421702
REMARK  7 active torsions:
REMARK  status: ('A' for Active; 'I' for Inactive)
REMARK    1  A    between atoms: C_1  and  C_2
REMARK    2  A    between atoms: C_10  and  C_28
REMARK    3  A    between atoms: C_15  and  C_16
REMARK    4  A    between atoms: C_16  and  C_17
REMARK    5  A    between atoms: N_19  and  C_20
REMARK    6  A    between atoms: C_20  and  C_21
REMARK    7  A    between atoms: C_21  and  C_22
REMARK                            x       y       z     vdW  Elec       q    Type
REMARK                         _______ _______ _______ _____ _____    ______ ____
ROOT
ATOM      1  C   UNL     1       0.011   1.491   0.253  0.00  0.00    +0.045 C 
ATOM      2  C   UNL     1       0.016  -0.009   0.116  0.00  0.00    -0.029 A 
ATOM      3  C   UNL     1      -1.226  -0.783   0.222  0.00  0.00    +0.022 A 
ATOM      4  C   UNL     1      -2.444  -0.144   0.449  0.00  0.00    +0.023 A 
ATOM      5  C   UNL     1      -3.604  -0.900   0.544  0.00  0.00    +0.025 A 
ATOM      6  C   UNL     1      -5.016  -0.590   0.766  0.00  0.00    +0.001 A 
ATOM      7  C   UNL     1      -5.675  -1.759   0.757  0.00  0.00    +0.109 A 
ATOM      8  O   UNL     1      -4.811  -2.767   0.551  0.00  0.00    -0.459 OA
ATOM      9  C   UNL     1      -3.550  -2.305   0.413  0.00  0.00    +0.142 A 
ATOM     10  C   UNL     1      -2.335  -2.932   0.187  0.00  0.00    +0.035 A 
ATOM     11  C   UNL     1      -1.172  -2.185   0.089  0.00  0.00    +0.146 A 
ATOM     12  O   UNL     1       0.009  -2.800  -0.134  0.00  0.00    -0.422 OA
ATOM     13  C   UNL     1       1.141  -2.093  -0.232  0.00  0.00    +0.341 A 
ATOM     14  O   UNL     1       2.186  -2.684  -0.436  0.00  0.00    -0.245 OA
ATOM     15  C   UNL     1       1.169  -0.688  -0.114  0.00  0.00    +0.049 A 
ATOM     16  C   UNL     1      -2.278  -4.431   0.047  0.00  0.00    +0.051 C 
ATOM     17  C   UNL     1      -7.170  -1.876   0.954  0.00  0.00    +0.075 C 
ATOM     18  C   UNL     1      -7.685  -0.570   1.567  0.00  0.00    +0.008 C 
ATOM     19  C   UNL     1      -7.166   0.618   0.751  0.00  0.00    +0.005 C 
ATOM     20  C   UNL     1      -5.654   0.759   0.968  0.00  0.00    +0.039 C 
ENDROOT
BRANCH  15  21
ATOM     21  C   UNL     1       2.474   0.056  -0.238  0.00  0.00    +0.138 C 
BRANCH  21  22
ATOM     22  C   UNL     1       3.165   0.084   1.100  0.00  0.00    +0.218 C 
ATOM     23  O   UNL     1       2.650  -0.447   2.061  0.00  0.00    -0.275 OA
ATOM     24  N   UNL     1       4.357   0.701   1.230  0.00  0.00    -0.315 N 
ATOM     25  H   UNL     1       4.769   1.126   0.462  0.00  0.00    +0.149 HD
BRANCH  24  26
ATOM     26  C   UNL     1       5.029   0.728   2.531  0.00  0.00    +0.110 C 
BRANCH  26  27
ATOM     27  C   UNL     1       6.354   1.484   2.405  0.00  0.00    +0.073 C 
BRANCH  27  28
ATOM     28  C   UNL     1       7.045   1.512   3.744  0.00  0.00    +0.035 A 
ATOM     29  C   UNL     1       6.835   2.397   4.737  0.00  0.00    +0.105 A 
ATOM     30  N   UNL     1       7.647   2.077   5.756  0.00  0.00    -0.352 N 
ATOM     31  C   UNL     1       8.353   1.028   5.431  0.00  0.00    +0.171 A 
ATOM     32  N   UNL     1       8.003   0.640   4.186  0.00  0.00    -0.350 N 
ATOM     33  H   UNL     1       8.365  -0.114   3.695  0.00  0.00    +0.166 HD
ATOM     34  H   UNL     1       7.702   2.551   6.600  0.00  0.00    +0.166 HD
ENDBRANCH  27  28
ENDBRANCH  26  27
ENDBRANCH  24  26
ENDBRANCH  21  22
ENDBRANCH  15  21
TORSDOF 5
