REMARK  Name = ZINC02251338
REMARK  5 active torsions:
REMARK  status: ('A' for Active; 'I' for Inactive)
REMARK    1  A    between atoms: C_1  and  C_2
REMARK    2  A    between atoms: C_5  and  C_8
REMARK    3  A    between atoms: C_19  and  C_21
REMARK    4  A    between atoms: C_33  and  S_35
REMARK    5  A    between atoms: S_35  and  C_36
REMARK                            x       y       z     vdW  Elec       q    Type
REMARK                         _______ _______ _______ _____ _____    ______ ____
ROOT
ATOM      1  C   UNL     1      -0.341  -4.075  -1.097  0.00  0.00    +0.172 C 
ATOM      2  C   UNL     1      -0.990  -4.527   0.187  0.00  0.00    +0.025 C 
ATOM      3  C   UNL     1      -0.284  -4.799   1.286  0.00  0.00    +0.050 C 
ATOM      4  C   UNL     1      -1.010  -5.245   2.499  0.00  0.00    +0.039 A 
ATOM      5  C   UNL     1      -0.412  -5.220   3.754  0.00  0.00    +0.033 A 
ATOM      6  C   UNL     1      -1.128  -5.648   4.857  0.00  0.00    +0.042 A 
ATOM      7  C   UNL     1      -2.430  -6.098   4.714  0.00  0.00    +0.023 A 
ATOM      8  C   UNL     1      -3.031  -6.125   3.468  0.00  0.00    +0.048 A 
ATOM      9  C   UNL     1      -2.327  -5.699   2.357  0.00  0.00    +0.131 A 
ATOM     10  O   UNL     1      -2.883  -5.706   1.119  0.00  0.00    -0.479 OA
ATOM     11  C   UNL     1      -2.496  -4.661   0.227  0.00  0.00    +0.237 C 
ATOM     12 CL   UNL     1      -0.391  -5.621   6.429  0.00  0.00    -0.084 Cl
ATOM     13  N   UNL     1       1.111  -4.686   1.324  0.00  0.00    -0.283 N 
ATOM     14  C   UNL     1       1.772  -4.562   0.112  0.00  0.00    +0.220 A 
ATOM     15  N   UNL     1       1.101  -4.281  -1.030  0.00  0.00    -0.220 N 
ATOM     16  N   UNL     1       2.056  -4.239  -2.045  0.00  0.00    -0.141 NA
ATOM     17  C   UNL     1       3.220  -4.481  -1.482  0.00  0.00    +0.210 A 
ATOM     18  N   UNL     1       3.039  -4.675  -0.175  0.00  0.00    -0.187 NA
ATOM     19  H   UNL     1       1.595  -4.693   2.164  0.00  0.00    +0.155 HD
ENDROOT
BRANCH   1  24
ATOM     20  C   UNL     1      -1.437   1.539  -1.921  0.00  0.00    +0.044 C 
ATOM     21  C   UNL     1      -1.151   0.075  -1.707  0.00  0.00    -0.050 A 
ATOM     22  C   UNL     1      -1.426  -0.837  -2.708  0.00  0.00    +0.004 A 
ATOM     23  C   UNL     1      -1.163  -2.180  -2.511  0.00  0.00    +0.006 A 
ATOM     24  C   UNL     1      -0.626  -2.611  -1.312  0.00  0.00    -0.019 A 
ATOM     25  C   UNL     1      -0.351  -1.698  -0.311  0.00  0.00    +0.006 A 
ATOM     26  C   UNL     1      -0.609  -0.355  -0.510  0.00  0.00    +0.004 A 
ENDBRANCH   1  24
BRANCH  11  27
ATOM     27  C   UNL     1      -3.098  -3.361   0.694  0.00  0.00    +0.032 A 
ATOM     28  C   UNL     1      -3.162  -3.074   2.045  0.00  0.00    +0.010 A 
ATOM     29  C   UNL     1      -3.715  -1.882   2.474  0.00  0.00    +0.001 A 
ATOM     30  C   UNL     1      -4.204  -0.975   1.552  0.00  0.00    +0.003 A 
ATOM     31  C   UNL     1      -4.141  -1.259   0.201  0.00  0.00    +0.039 A 
ATOM     32  C   UNL     1      -3.583  -2.451  -0.230  0.00  0.00    +0.130 A 
ATOM     33  F   UNL     1      -3.516  -2.728  -1.550  0.00  0.00    -0.205 F 
ENDBRANCH  11  27
BRANCH  17  34
ATOM     34  S   UNL     1       4.769  -4.541  -2.319  0.00  0.00    -0.088 S 
ATOM     35  C   UNL     1       5.964  -4.909  -1.006  0.00  0.00    +0.093 C 
ENDBRANCH  17  34
TORSDOF 3
