REMARK  Name = ZINC13214122
REMARK  11 active torsions:
REMARK  status: ('A' for Active; 'I' for Inactive)
REMARK    1  A    between atoms: C_1  and  C_2
REMARK    2  A    between atoms: C_2  and  C_3
REMARK    3  A    between atoms: C_3  and  O_4
REMARK    4  A    between atoms: O_4  and  C_5
REMARK    5  A    between atoms: C_7  and  C_13
REMARK    6  A    between atoms: C_10  and  O_11
REMARK    7  A    between atoms: O_11  and  C_12
REMARK    8  A    between atoms: C_15  and  C_30
REMARK    9  A    between atoms: N_19  and  C_20
REMARK   10  A    between atoms: C_24  and  C_26
REMARK   11  A    between atoms: C_30  and  C_32
REMARK                            x       y       z     vdW  Elec       q    Type
REMARK                         _______ _______ _______ _____ _____    ______ ____
ROOT
ATOM      1  C   UNL     1       3.266  -1.999  -5.087  0.00  0.00    +0.150 C 
ATOM      2  C   UNL     1       4.764  -1.867  -5.234  0.00  0.00    +0.080 C 
ATOM      3  C   UNL     1       5.084  -2.380  -6.445  0.00  0.00    +0.250 C 
ATOM      4  C   UNL     1       3.855  -2.851  -7.112  0.00  0.00    +0.292 C 
ATOM      5  O   UNL     1       3.812  -3.363  -8.214  0.00  0.00    -0.266 OA
ATOM      6  N   UNL     1       2.787  -2.630  -6.322  0.00  0.00    -0.253 N 
ATOM      7  O   UNL     1       6.333  -2.449  -6.962  0.00  0.00    -0.282 OA
ENDROOT
BRANCH   1  10
ATOM      8  C   UNL     1       3.030  -4.993  -2.794  0.00  0.00    +0.162 A 
ATOM      9  C   UNL     1       3.331  -4.193  -3.885  0.00  0.00    +0.055 A 
ATOM     10  C   UNL     1       2.938  -2.868  -3.900  0.00  0.00    -0.018 A 
ATOM     11  C   UNL     1       2.243  -2.338  -2.828  0.00  0.00    +0.009 A 
ATOM     12  C   UNL     1       1.940  -3.130  -1.737  0.00  0.00    +0.050 A 
ATOM     13  C   UNL     1       2.326  -4.461  -1.718  0.00  0.00    +0.162 A 
BRANCH  13  14
ATOM     14  O   UNL     1       2.023  -5.243  -0.648  0.00  0.00    -0.491 OA
ATOM     15  C   UNL     1       1.298  -4.630   0.420  0.00  0.00    +0.277 C 
ENDBRANCH  13  14
BRANCH   8  16
ATOM     16  O   UNL     1       3.416  -6.297  -2.778  0.00  0.00    -0.488 OA
BRANCH  16  17
ATOM     17  C   UNL     1       4.232  -6.745  -3.861  0.00  0.00    +0.229 C 
BRANCH  17  19
ATOM     18  C   UNL     1       5.528  -8.675  -4.777  0.00  0.00    +0.007 C 
ATOM     19  C   UNL     1       4.654  -8.195  -3.616  0.00  0.00    +0.038 C 
ENDBRANCH  17  19
ENDBRANCH  16  17
ENDBRANCH   8  16
ENDBRANCH   1  10
BRANCH   6  20
ATOM     20  C   UNL     1       1.459  -2.946  -6.623  0.00  0.00    +0.038 A 
ATOM     21  C   UNL     1       0.451  -2.656  -5.710  0.00  0.00    +0.023 A 
ATOM     22  C   UNL     1      -0.864  -2.966  -6.003  0.00  0.00    +0.003 A 
ATOM     23  C   UNL     1      -1.186  -3.566  -7.203  0.00  0.00    +0.015 A 
ATOM     24  C   UNL     1      -0.181  -3.862  -8.128  0.00  0.00    +0.065 A 
ATOM     25  C   UNL     1       1.146  -3.544  -7.834  0.00  0.00    +0.038 A 
BRANCH  24  26
ATOM     26  C   UNL     1      -0.522  -4.504  -9.412  0.00  0.00    +0.387 C 
ATOM     27  O   UNL     1      -1.686  -4.778  -9.668  0.00  0.00    -0.241 OA
ATOM     28  O   UNL     1       0.359  -4.762 -10.220  0.00  0.00    -0.241 OA
ENDBRANCH  24  26
ENDBRANCH   6  20
BRANCH   2  29
ATOM     29  C   UNL     1       5.693  -1.291  -4.255  0.00  0.00    +0.230 C 
ATOM     30  O   UNL     1       6.895  -1.356  -4.444  0.00  0.00    -0.283 OA
BRANCH  29  31
ATOM     31  C   UNL     1       5.174  -0.639  -3.048  0.00  0.00    +0.175 A 
ATOM     32  C   UNL     1       5.925  -0.173  -1.991  0.00  0.00    +0.053 A 
ATOM     33  C   UNL     1       5.021   0.371  -1.068  0.00  0.00    +0.042 A 
ATOM     34  C   UNL     1       3.781   0.218  -1.585  0.00  0.00    +0.196 A 
ATOM     35  O   UNL     1       3.877  -0.384  -2.778  0.00  0.00    -0.460 OA
ENDBRANCH  29  31
ENDBRANCH   2  29
TORSDOF 9
