REMARK  Name = ZINC15951912
REMARK  7 active torsions:
REMARK  status: ('A' for Active; 'I' for Inactive)
REMARK    1  A    between atoms: C_1  and  C_2
REMARK    2  A    between atoms: C_11  and  C_39
REMARK    3  A    between atoms: N_13  and  C_17
REMARK    4  A    between atoms: C_21  and  C_23
REMARK    5  A    between atoms: N_25  and  C_26
REMARK    6  A    between atoms: N_29  and  C_32
REMARK    7  A    between atoms: C_32  and  C_33
REMARK                            x       y       z     vdW  Elec       q    Type
REMARK                         _______ _______ _______ _____ _____    ______ ____
ROOT
ATOM      1  C   UNL     1      -1.922  -5.911   0.760  0.00  0.00    +0.042 A 
ATOM      2  C   UNL     1      -1.188  -6.742  -0.079  0.00  0.00    +0.024 A 
ATOM      3  C   UNL     1      -1.805  -7.793  -0.731  0.00  0.00    +0.003 A 
ATOM      4  C   UNL     1      -3.154  -8.025  -0.553  0.00  0.00    +0.013 A 
ATOM      5  C   UNL     1      -3.900  -7.197   0.288  0.00  0.00    +0.038 A 
ATOM      6  C   UNL     1      -3.276  -6.139   0.950  0.00  0.00    +0.036 A 
ENDROOT
BRANCH   1  18
ATOM      7  C   UNL     1      -3.208  -0.720   6.369  0.00  0.00    +0.044 C 
ATOM      8  C   UNL     1      -3.032  -1.306   4.992  0.00  0.00    -0.050 A 
ATOM      9  C   UNL     1      -4.122  -1.437   4.151  0.00  0.00    +0.007 A 
ATOM     10  C   UNL     1      -3.961  -1.970   2.888  0.00  0.00    +0.046 A 
ATOM     11  C   UNL     1      -2.703  -2.379   2.457  0.00  0.00    +0.128 A 
ATOM     12  C   UNL     1      -1.617  -2.251   3.304  0.00  0.00    +0.015 A 
ATOM     13  C   UNL     1      -1.780  -1.707   4.565  0.00  0.00    +0.012 A 
ATOM     14  C   UNL     1      -0.239  -2.704   2.874  0.00  0.00    +0.114 C 
ATOM     15  C   UNL     1      -0.180  -2.673   1.338  0.00  0.00    +0.096 C 
ATOM     16  C   UNL     1      -1.361  -3.512   0.830  0.00  0.00    +0.185 C 
ATOM     17  O   UNL     1      -2.582  -2.891   1.205  0.00  0.00    -0.468 OA
ATOM     18  N   UNL     1      -1.293  -4.848   1.417  0.00  0.00    -0.216 N 
ATOM     19  C   UNL     1      -0.645  -5.086   2.568  0.00  0.00    +0.310 C 
ATOM     20  O   UNL     1      -0.561  -6.232   2.966  0.00  0.00    -0.252 OA
ATOM     21  N   UNL     1      -0.078  -4.099   3.313  0.00  0.00    -0.292 N 
ATOM     22  C   UNL     1      -1.283  -3.630  -0.693  0.00  0.00    +0.079 C 
ATOM     23  H   UNL     1       0.429  -4.302   4.115  0.00  0.00    +0.151 HD
ENDBRANCH   1  18
BRANCH   5  24
ATOM     24  C   UNL     1      -5.345  -7.443   0.480  0.00  0.00    +0.244 C 
ATOM     25  O   UNL     1      -5.992  -6.720   1.212  0.00  0.00    -0.270 OA
ATOM     26  N   UNL     1      -5.944  -8.468  -0.157  0.00  0.00    -0.309 N 
ATOM     27  H   UNL     1      -5.428  -9.045  -0.742  0.00  0.00    +0.149 HD
BRANCH  26  28
ATOM     28  C   UNL     1      -7.376  -8.712   0.033  0.00  0.00    +0.070 C 
ATOM     29  C   UNL     1      -7.588  -9.570   1.284  0.00  0.00    +0.004 C 
ATOM     30  C   UNL     1      -9.078  -9.887   1.432  0.00  0.00    -0.077 C 
ATOM     31  N   UNL     1      -9.546 -10.620   0.249  0.00  0.00    +0.382 N 
ATOM     32  C   UNL     1      -9.412  -9.776  -0.944  0.00  0.00    -0.077 C 
ATOM     33  C   UNL     1      -7.936  -9.454  -1.184  0.00  0.00    +0.004 C 
ATOM     34  H   UNL     1      -8.993 -11.456   0.132  0.00  0.00    -0.081 HD
BRANCH  31  35
ATOM     35  C   UNL     1     -10.956 -10.990   0.430  0.00  0.00    -0.043 C 
BRANCH  35  36
ATOM     36  C   UNL     1     -11.403 -11.847  -0.726  0.00  0.00    -0.064 A 
ATOM     37  C   UNL     1     -11.937 -11.257  -1.857  0.00  0.00    +0.002 A 
ATOM     38  C   UNL     1     -12.347 -12.043  -2.917  0.00  0.00    +0.000 A 
ATOM     39  C   UNL     1     -12.223 -13.418  -2.848  0.00  0.00    +0.000 A 
ATOM     40  C   UNL     1     -11.688 -14.007  -1.717  0.00  0.00    +0.000 A 
ATOM     41  C   UNL     1     -11.273 -13.221  -0.658  0.00  0.00    +0.002 A 
ENDBRANCH  35  36
ENDBRANCH  31  35
ENDBRANCH  26  28
ENDBRANCH   5  24
TORSDOF 5
