REMARK  Name = ZINC09254183
REMARK  8 active torsions:
REMARK  status: ('A' for Active; 'I' for Inactive)
REMARK    1  A    between atoms: C_1  and  C_2
REMARK    2  A    between atoms: C_2  and  O_3
REMARK    3  A    between atoms: O_3  and  C_4
REMARK    4  A    between atoms: C_7  and  C_10
REMARK    5  A    between atoms: C_15  and  N_16
REMARK    6  A    between atoms: C_15  and  N_62
REMARK    7  A    between atoms: C_19  and  C_23
REMARK    8  A    between atoms: C_19  and  C_24
REMARK                            x       y       z     vdW  Elec       q    Type
REMARK                         _______ _______ _______ _____ _____    ______ ____
ROOT
ATOM      1  N   UNL     1      -3.066   9.516  -0.564  0.00  0.00    -0.241 N 
ATOM      2  C   UNL     1      -3.200  10.803  -0.188  0.00  0.00    +0.249 C 
ATOM      3  O   UNL     1      -3.162  11.244   0.941  0.00  0.00    -0.272 OA
ATOM      4  C   UNL     1      -3.405  11.586  -1.470  0.00  0.00    +0.135 C 
ATOM      5  N   UNL     1      -3.367  10.551  -2.517  0.00  0.00    -0.281 N 
ATOM      6  C   UNL     1      -3.165   9.377  -1.891  0.00  0.00    +0.308 C 
ATOM      7  O   UNL     1      -3.081   8.310  -2.467  0.00  0.00    -0.252 OA
ATOM      8  C   UNL     1      -4.763  12.290  -1.458  0.00  0.00    +0.047 C 
ATOM      9  H   UNL     1      -3.468  10.688  -3.472  0.00  0.00    +0.152 HD
ENDROOT
BRANCH   4  10
ATOM     10  C   UNL     1      -2.294  12.584  -1.670  0.00  0.00    -0.015 A 
ATOM     11  C   UNL     1      -1.726  13.210  -0.562  0.00  0.00    +0.007 A 
ATOM     12  C   UNL     1      -0.718  14.113  -0.708  0.00  0.00    +0.009 A 
ATOM     13  C   UNL     1      -0.247  14.428  -1.994  0.00  0.00    -0.018 A 
ATOM     14  C   UNL     1       0.788  15.359  -2.184  0.00  0.00    +0.008 A 
ATOM     15  C   UNL     1       1.218  15.640  -3.445  0.00  0.00    +0.001 A 
ATOM     16  C   UNL     1       0.646  15.018  -4.553  0.00  0.00    +0.001 A 
ATOM     17  C   UNL     1      -0.359  14.112  -4.407  0.00  0.00    +0.008 A 
ATOM     18  C   UNL     1      -0.829  13.796  -3.121  0.00  0.00    -0.018 A 
ATOM     19  C   UNL     1      -1.864  12.865  -2.931  0.00  0.00    +0.014 A 
ENDBRANCH   4  10
BRANCH   1  20
ATOM     20  C   UNL     1      -2.846   8.406   0.366  0.00  0.00    +0.043 C 
BRANCH  20  25
ATOM     21  C   UNL     1      -1.126   7.561   1.859  0.00  0.00    -0.036 C 
ATOM     22  C   UNL     1       0.208   8.135   2.372  0.00  0.00    -0.012 C 
ATOM     23  C   UNL     1       0.646   9.159   1.300  0.00  0.00    -0.020 C 
ATOM     24  C   UNL     1      -0.686   9.506   0.588  0.00  0.00    -0.076 C 
ATOM     25  N   UNL     1      -1.380   8.209   0.571  0.00  0.00    +0.395 N 
ATOM     26  H   UNL     1      -1.009   7.626  -0.188  0.00  0.00    -0.079 HD
BRANCH  21  30
ATOM     27  C   UNL     1      -0.793   3.332   1.349  0.00  0.00    +0.121 A 
ATOM     28  C   UNL     1      -0.259   4.190   0.399  0.00  0.00    +0.046 A 
ATOM     29  C   UNL     1      -0.374   5.557   0.563  0.00  0.00    +0.005 A 
ATOM     30  C   UNL     1      -1.009   6.070   1.679  0.00  0.00    -0.061 A 
ATOM     31  C   UNL     1      -1.537   5.216   2.630  0.00  0.00    +0.005 A 
ATOM     32  C   UNL     1      -1.431   3.849   2.467  0.00  0.00    +0.046 A 
BRANCH  27  33
ATOM     33  O   UNL     1      -0.688   1.987   1.186  0.00  0.00    -0.492 OA
BRANCH  33  35
ATOM     34  C   UNL     1       0.002  -0.004   0.002  0.00  0.00    +0.048 C 
ATOM     35  C   UNL     1      -0.019   1.526   0.010  0.00  0.00    +0.225 C 
ENDBRANCH  33  35
ENDBRANCH  27  33
ENDBRANCH  21  30
ENDBRANCH  20  25
ENDBRANCH   1  20
TORSDOF 6
