REMARK  Name = ZINC35034089
REMARK  14 active torsions:
REMARK  status: ('A' for Active; 'I' for Inactive)
REMARK    1  A    between atoms: C_1  and  C_2
REMARK    2  A    between atoms: C_2  and  C_3
REMARK    3  A    between atoms: C_3  and  C_5
REMARK    4  A    between atoms: C_3  and  N_17
REMARK    5  A    between atoms: N_15  and  C_16
REMARK    6  A    between atoms: N_17  and  C_18
REMARK    7  A    between atoms: C_18  and  C_19
REMARK    8  A    between atoms: C_19  and  N_20
REMARK    9  A    between atoms: N_20  and  C_21
REMARK   10  A    between atoms: N_20  and  C_22
REMARK   11  A    between atoms: N_25  and  C_26
REMARK   12  A    between atoms: C_29  and  C_32
REMARK   13  A    between atoms: C_32  and  C_33
REMARK   14  A    between atoms: C_32  and  C_34
REMARK                            x       y       z     vdW  Elec       q    Type
REMARK                         _______ _______ _______ _____ _____    ______ ____
ROOT
ATOM      1  N   UNL     1      -1.694   0.026   0.936  0.00  0.00    -0.277 N 
ATOM      2  C   UNL     1      -2.697   0.924   0.872  0.00  0.00    +0.307 C 
ATOM      3  O   UNL     1      -3.093   1.318  -0.208  0.00  0.00    -0.252 OA
ATOM      4  N   UNL     1      -3.261   1.387   2.006  0.00  0.00    -0.269 N 
ATOM      5  H   UNL     1      -3.003   1.013   2.863  0.00  0.00    +0.156 HD
ENDROOT
BRANCH   4   6
ATOM      6  C   UNL     1      -4.219   2.405   1.946  0.00  0.00    +0.035 A 
ATOM      7  C   UNL     1      -4.270   3.372   2.941  0.00  0.00    +0.023 A 
ATOM      8  C   UNL     1      -5.216   4.376   2.879  0.00  0.00    +0.006 A 
ATOM      9  C   UNL     1      -6.112   4.419   1.827  0.00  0.00    -0.045 A 
ATOM     10  C   UNL     1      -6.064   3.458   0.834  0.00  0.00    +0.006 A 
ATOM     11  C   UNL     1      -5.117   2.454   0.888  0.00  0.00    +0.023 A 
BRANCH   9  12
ATOM     12  C   UNL     1      -7.144   5.516   1.762  0.00  0.00    +0.013 C 
ATOM     13  C   UNL     1      -6.951   6.321   0.475  0.00  0.00    +0.012 C 
ATOM     14  C   UNL     1      -8.544   4.900   1.774  0.00  0.00    +0.012 C 
ENDBRANCH   9  12
ENDBRANCH   4   6
BRANCH   1  15
ATOM     15  C   UNL     1      -1.082  -0.477  -0.296  0.00  0.00    +0.143 C 
BRANCH  15  16
ATOM     16  C   UNL     1      -1.253  -1.972  -0.368  0.00  0.00    +0.133 A 
ATOM     17  N   UNL     1      -0.635  -2.706   0.507  0.00  0.00    -0.232 NA
ATOM     18  C   UNL     1      -0.742  -4.059   0.503  0.00  0.00    +0.078 A 
ATOM     19  C   UNL     1      -0.078  -4.848   1.444  0.00  0.00    +0.028 A 
ATOM     20  C   UNL     1      -0.215  -6.218   1.404  0.00  0.00    +0.002 A 
ATOM     21  C   UNL     1      -1.006  -6.825   0.438  0.00  0.00    +0.001 A 
ATOM     22  C   UNL     1      -1.671  -6.067  -0.501  0.00  0.00    +0.015 A 
ATOM     23  C   UNL     1      -1.546  -4.680  -0.478  0.00  0.00    +0.065 A 
ATOM     24  C   UNL     1      -2.232  -3.820  -1.454  0.00  0.00    +0.262 A 
ATOM     25  O   UNL     1      -2.939  -4.292  -2.325  0.00  0.00    -0.267 OA
ATOM     26  N   UNL     1      -2.050  -2.483  -1.343  0.00  0.00    -0.298 N 
ATOM     27  C   UNL     1      -2.715  -1.580  -2.285  0.00  0.00    +0.154 C 
ENDBRANCH  15  16
BRANCH  15  29
ATOM     28  C   UNL     1       0.582   1.386  -0.343  0.00  0.00    +0.006 C 
ATOM     29  C   UNL     1       0.409  -0.133  -0.301  0.00  0.00    +0.027 C 
ENDBRANCH  15  29
ENDBRANCH   1  15
BRANCH   1  30
ATOM     30  C   UNL     1      -1.218  -0.449   2.238  0.00  0.00    +0.091 C 
BRANCH  30  31
ATOM     31  C   UNL     1      -0.091   0.461   2.731  0.00  0.00    -0.060 C 
BRANCH  31  32
ATOM     32  N   UNL     1       0.387  -0.015   4.036  0.00  0.00    +0.377 N 
ATOM     33  C   UNL     1       1.547   0.785   4.454  0.00  0.00    -0.097 C 
ATOM     34  C   UNL     1      -0.686   0.123   5.030  0.00  0.00    -0.097 C 
ATOM     35  H   UNL     1       0.656  -0.984   3.962  0.00  0.00    -0.083 HD
ENDBRANCH  31  32
ENDBRANCH  30  31
ENDBRANCH   1  30
TORSDOF 8
