REMARK  Name = ZINC62031403
REMARK  9 active torsions:
REMARK  status: ('A' for Active; 'I' for Inactive)
REMARK    1  A    between atoms: C_1  and  N_2
REMARK    2  A    between atoms: N_2  and  C_3
REMARK    3  A    between atoms: N_2  and  S_8
REMARK    4  A    between atoms: C_3  and  C_4
REMARK    5  A    between atoms: C_4  and  C_5
REMARK    6  A    between atoms: C_5  and  O_6
REMARK    7  A    between atoms: O_6  and  C_7
REMARK    8  A    between atoms: S_8  and  C_11
REMARK    9  A    between atoms: C_14  and  N_18
REMARK                            x       y       z     vdW  Elec       q    Type
REMARK                         _______ _______ _______ _____ _____    ______ ____
ROOT
ATOM      1  C   UNL     1       1.682  -1.059  -1.905  0.00  0.00    +0.133 A 
ATOM      2  C   UNL     1       2.323  -0.107  -2.678  0.00  0.00    +0.047 A 
ATOM      3  C   UNL     1       3.642  -0.289  -3.047  0.00  0.00    +0.040 A 
ATOM      4  C   UNL     1       4.325  -1.429  -2.642  0.00  0.00    +0.027 A 
ATOM      5  C   UNL     1       3.679  -2.383  -1.866  0.00  0.00    +0.040 A 
ATOM      6  C   UNL     1       2.361  -2.193  -1.495  0.00  0.00    +0.047 A 
ATOM      7 BR   UNL     1       1.482  -3.488  -0.433  0.00  0.00    -0.048 Br
ATOM      8 BR   UNL     1       1.393   1.444  -3.229  0.00  0.00    -0.048 Br
ENDROOT
BRANCH   1   9
ATOM      9  S   UNL     1      -0.000  -0.824  -1.437  0.00  0.00    +0.063 S 
ATOM     10  O   UNL     1      -0.531  -2.115  -1.167  0.00  0.00    -0.153 OA
ATOM     11  O   UNL     1      -0.572   0.049  -2.401  0.00  0.00    -0.153 OA
BRANCH   9  13
ATOM     12  C   UNL     1      -0.018   1.461   0.010  0.00  0.00    +0.131 C 
ATOM     13  N   UNL     1       0.002  -0.004   0.002  0.00  0.00    -0.179 NA
BRANCH  13  14
ATOM     14  C   UNL     1       0.024  -0.743   1.267  0.00  0.00    +0.111 C 
BRANCH  14  15
ATOM     15  C   UNL     1      -1.406  -0.912   1.784  0.00  0.00    +0.045 C 
BRANCH  15  16
ATOM     16  C   UNL     1      -1.383  -1.684   3.105  0.00  0.00    +0.161 C 
BRANCH  16  17
ATOM     17  O   UNL     1      -2.719  -1.841   3.588  0.00  0.00    -0.383 OA
ATOM     18  C   UNL     1      -2.809  -2.553   4.824  0.00  0.00    +0.193 C 
ENDBRANCH  16  17
ENDBRANCH  15  16
ENDBRANCH  14  15
ENDBRANCH  13  14
ENDBRANCH   9  13
ENDBRANCH   1   9
BRANCH   4  19
ATOM     19  N   UNL     1       5.658  -1.616  -3.014  0.00  0.00    -0.358 N 
ATOM     20  H   UNL     1       6.108  -0.949  -3.556  0.00  0.00    +0.142 HD
ATOM     21  H   UNL     1       6.134  -2.412  -2.730  0.00  0.00    +0.142 HD
ENDBRANCH   4  19
TORSDOF 7
