REMARK  Name = ZINC53128410
REMARK  5 active torsions:
REMARK  status: ('A' for Active; 'I' for Inactive)
REMARK    1  A    between atoms: C_1  and  C_2
REMARK    2  A    between atoms: C_5  and  C_8
REMARK    3  A    between atoms: C_5  and  N_10
REMARK    4  A    between atoms: C_8  and  O_9
REMARK    5  A    between atoms: C_12  and  N_18
REMARK                            x       y       z     vdW  Elec       q    Type
REMARK                         _______ _______ _______ _____ _____    ______ ____
ROOT
ATOM      1  N   UNL     1       2.918  -1.764   0.102  0.00  0.00    -0.319 N 
ATOM      2  C   UNL     1       3.744  -2.425  -0.800  0.00  0.00    +0.151 A 
ATOM      3  C   UNL     1       3.809  -3.815  -0.784  0.00  0.00    +0.166 A 
ATOM      4  C   UNL     1       4.635  -4.461  -1.686  0.00  0.00    +0.039 A 
ATOM      5  C   UNL     1       5.371  -3.693  -2.578  0.00  0.00    +0.042 A 
ATOM      6  C   UNL     1       5.258  -2.316  -2.539  0.00  0.00    +0.131 A 
ATOM      7  N   UNL     1       4.457  -1.727  -1.669  0.00  0.00    -0.218 NA
ATOM      8 CL   UNL     1       6.175  -1.349  -3.651  0.00  0.00    -0.062 Cl
ATOM      9  H   UNL     1       2.436  -2.267   0.777  0.00  0.00    +0.148 HD
ENDROOT
BRANCH   1  14
ATOM     10  C   UNL     1      -0.243   1.423  -0.577  0.00  0.00    +0.007 C 
ATOM     11  C   UNL     1      -0.095  -0.099  -0.505  0.00  0.00    -0.014 C 
ATOM     12  C   UNL     1       0.888  -0.567  -1.580  0.00  0.00    +0.005 C 
ATOM     13  C   UNL     1       2.250   0.089  -1.346  0.00  0.00    +0.028 C 
ATOM     14  C   UNL     1       2.777  -0.308   0.034  0.00  0.00    +0.056 C 
ATOM     15  C   UNL     1       1.794   0.160   1.109  0.00  0.00    +0.028 C 
ATOM     16  C   UNL     1       0.432  -0.496   0.875  0.00  0.00    +0.005 C 
BRANCH  14  17
ATOM     17  C   UNL     1       4.139   0.348   0.268  0.00  0.00    +0.181 C 
BRANCH  17  18
ATOM     18  O   UNL     1       4.662  -0.077   1.528  0.00  0.00    -0.393 OA
ATOM     19  H   UNL     1       5.526   0.301   1.742  0.00  0.00    +0.209 HD
ENDBRANCH  17  18
ENDBRANCH  14  17
ENDBRANCH   1  14
BRANCH   3  20
ATOM     20  N   UNL     1       3.006  -4.592   0.187  0.00  0.00    +0.060 N 
ATOM     21  O   UNL     1       2.986  -5.799   0.125  0.00  0.00    -0.126 OA
ATOM     22  O   UNL     1       2.370  -4.019   1.041  0.00  0.00    -0.126 OA
ENDBRANCH   3  20
TORSDOF 4
