REMARK  Name = ZINC17298045
REMARK  5 active torsions:
REMARK  status: ('A' for Active; 'I' for Inactive)
REMARK    1  A    between atoms: C_1  and  C_2
REMARK    2  A    between atoms: C_5  and  S_18
REMARK    3  A    between atoms: C_7  and  C_8
REMARK    4  A    between atoms: N_10  and  C_11
REMARK    5  A    between atoms: S_18  and  N_21
REMARK                            x       y       z     vdW  Elec       q    Type
REMARK                         _______ _______ _______ _____ _____    ______ ____
ROOT
ATOM      1  C   UNL     1      -3.111   3.137   4.907  0.00  0.00    +0.044 C 
ATOM      2  C   UNL     1      -2.348   2.687   3.688  0.00  0.00    -0.038 A 
ATOM      3  C   UNL     1      -2.748   1.560   2.999  0.00  0.00    +0.006 A 
ATOM      4  C   UNL     1      -2.049   1.145   1.880  0.00  0.00    +0.029 A 
ATOM      5  C   UNL     1      -0.946   1.858   1.442  0.00  0.00    +0.106 A 
ATOM      6  C   UNL     1      -0.533   2.983   2.124  0.00  0.00    +0.041 A 
ATOM      7  C   UNL     1      -1.237   3.410   3.252  0.00  0.00    +0.041 A 
ENDROOT
BRANCH   7   8
ATOM      8  C   UNL     1      -0.803   4.619   3.984  0.00  0.00    +0.245 C 
ATOM      9  O   UNL     1      -1.345   4.924   5.029  0.00  0.00    -0.270 OA
ATOM     10  N   UNL     1       0.193   5.383   3.494  0.00  0.00    -0.308 N 
ATOM     11  H   UNL     1       0.626   5.139   2.661  0.00  0.00    +0.149 HD
BRANCH  10  12
ATOM     12  C   UNL     1       0.622   6.580   4.220  0.00  0.00    +0.073 C 
ATOM     13  C   UNL     1      -0.311   7.751   3.848  0.00  0.00    +0.022 C 
ATOM     14  C   UNL     1      -0.217   8.797   4.927  0.00  0.00    +0.002 C 
ATOM     15  C   UNL     1       0.815   9.892   4.595  0.00  0.00    +0.000 C 
ATOM     16  C   UNL     1       2.110   9.327   3.982  0.00  0.00    +0.000 C 
ATOM     17  C   UNL     1       2.570   8.069   4.667  0.00  0.00    +0.002 C 
ATOM     18  C   UNL     1       2.013   6.857   3.892  0.00  0.00    +0.022 C 
ENDBRANCH  10  12
ENDBRANCH   7   8
BRANCH   5  19
ATOM     19  S   UNL     1      -0.062   1.321   0.015  0.00  0.00    +0.056 S 
ATOM     20  O   UNL     1      -0.319  -0.070  -0.122  0.00  0.00    -0.153 OA
ATOM     21  O   UNL     1       1.253   1.846   0.131  0.00  0.00    -0.153 OA
BRANCH  19  22
ATOM     22  N   UNL     1      -0.754   2.061  -1.295  0.00  0.00    -0.204 NA
ATOM     23  H   UNL     1      -1.141   1.526  -2.006  0.00  0.00    +0.144 HD
ATOM     24  H   UNL     1      -0.772   3.029  -1.352  0.00  0.00    +0.144 HD
ENDBRANCH  19  22
ENDBRANCH   5  19
TORSDOF 4
