REMARK  Name = ZINC08793555
REMARK  12 active torsions:
REMARK  status: ('A' for Active; 'I' for Inactive)
REMARK    1  A    between atoms: C_1  and  C_2
REMARK    2  A    between atoms: C_2  and  C_3
REMARK    3  A    between atoms: C_3  and  C_4
REMARK    4  A    between atoms: C_4  and  N_5
REMARK    5  A    between atoms: C_6  and  C_24
REMARK    6  A    between atoms: C_9  and  S_10
REMARK    7  A    between atoms: S_10  and  C_11
REMARK    8  A    between atoms: C_17  and  C_23
REMARK    9  A    between atoms: C_20  and  C_21
REMARK   10  A    between atoms: C_20  and  C_22
REMARK   11  A    between atoms: C_24  and  N_25
REMARK   12  A    between atoms: C_26  and  C_28
REMARK                            x       y       z     vdW  Elec       q    Type
REMARK                         _______ _______ _______ _____ _____    ______ ____
ROOT
ATOM      1  N   UNL     1      -3.425   2.416  -2.006  0.00  0.00    -0.305 N 
ATOM      2  C   UNL     1      -4.530   1.972  -1.334  0.00  0.00    +0.151 A 
ATOM      3  N   UNL     1      -4.120   1.464  -0.206  0.00  0.00    -0.132 NA
ATOM      4  N   UNL     1      -2.841   1.551  -0.123  0.00  0.00    -0.122 NA
ATOM      5  C   UNL     1      -2.362   2.132  -1.198  0.00  0.00    +0.192 A 
ENDROOT
BRANCH   1   6
ATOM      6  C   UNL     1      -3.389   3.062  -3.320  0.00  0.00    +0.125 C 
BRANCH   6   7
ATOM      7  C   UNL     1      -3.242   1.997  -4.409  0.00  0.00    +0.021 C 
BRANCH   7   9
ATOM      8  C   UNL     1      -3.057   1.607  -6.870  0.00  0.00    +0.004 C 
ATOM      9  C   UNL     1      -3.204   2.672  -5.781  0.00  0.00    -0.002 C 
ENDBRANCH   7   9
ENDBRANCH   6   7
ENDBRANCH   1   6
BRANCH   5  10
ATOM     10  S   UNL     1      -0.667   2.474  -1.538  0.00  0.00    -0.075 S 
BRANCH  10  11
ATOM     11  C   UNL     1       0.094   1.817  -0.032  0.00  0.00    +0.124 C 
ATOM     12  C   UNL     1       1.637   2.045  -0.060  0.00  0.00    +0.016 C 
ATOM     13  C   UNL     1       2.109   1.659   1.375  0.00  0.00    +0.006 C 
ATOM     14  C   UNL     1       1.913   0.127   1.447  0.00  0.00    +0.015 C 
ATOM     15  C   UNL     1       1.349  -0.263   0.046  0.00  0.00    +0.033 C 
ATOM     16  C   UNL     1      -0.077   0.307   0.032  0.00  0.00    +0.153 C 
ATOM     17  O   UNL     1      -1.113  -0.312   0.066  0.00  0.00    -0.296 OA
ATOM     18  C   UNL     1       2.091   0.776  -0.866  0.00  0.00    -0.019 C 
ATOM     19  C   UNL     1       3.609   0.589  -0.834  0.00  0.00    +0.012 C 
ATOM     20  C   UNL     1       1.548   0.778  -2.296  0.00  0.00    +0.012 C 
ATOM     21  C   UNL     1       1.484  -1.732  -0.358  0.00  0.00    +0.019 C 
ENDBRANCH  10  11
ENDBRANCH   5  10
BRANCH   2  22
ATOM     22  C   UNL     1      -5.958   2.056  -1.809  0.00  0.00    +0.180 C 
BRANCH  22  23
ATOM     23  N   UNL     1      -6.292   0.848  -2.567  0.00  0.00    -0.308 N 
ATOM     24  C   UNL     1      -7.524   0.701  -3.092  0.00  0.00    +0.220 C 
ATOM     25  O   UNL     1      -8.357   1.569  -2.938  0.00  0.00    -0.275 OA
ATOM     26  H   UNL     1      -5.626   0.153  -2.691  0.00  0.00    +0.149 HD
BRANCH  24  27
ATOM     27  C   UNL     1      -7.867  -0.542  -3.872  0.00  0.00    +0.048 C 
ATOM     28  C   UNL     1      -7.700  -1.770  -2.974  0.00  0.00    +0.019 C 
ATOM     29  C   UNL     1      -8.049  -3.032  -3.766  0.00  0.00    -0.009 C 
ATOM     30  C   UNL     1      -9.498  -2.947  -4.248  0.00  0.00    +0.007 C 
ATOM     31  C   UNL     1      -9.666  -1.719  -5.146  0.00  0.00    -0.009 C 
ATOM     32  C   UNL     1      -9.317  -0.457  -4.355  0.00  0.00    +0.019 C 
ATOM     33  C   UNL     1      -8.733  -1.839  -6.353  0.00  0.00    +0.007 C 
ATOM     34  C   UNL     1      -7.283  -1.924  -5.870  0.00  0.00    -0.009 C 
ATOM     35  C   UNL     1      -7.116  -3.151  -4.973  0.00  0.00    +0.007 C 
ATOM     36  C   UNL     1      -6.934  -0.661  -5.079  0.00  0.00    +0.019 C 
ENDBRANCH  24  27
ENDBRANCH  22  23
ENDBRANCH   2  22
TORSDOF 8
