REMARK  Name = ZINC09104433
REMARK  10 active torsions:
REMARK  status: ('A' for Active; 'I' for Inactive)
REMARK    1  A    between atoms: C_1  and  C_2
REMARK    2  A    between atoms: C_2  and  C_3
REMARK    3  A    between atoms: C_2  and  C_4
REMARK    4  A    between atoms: C_7  and  S_10
REMARK    5  A    between atoms: S_10  and  C_13
REMARK    6  A    between atoms: C_13  and  C_15
REMARK    7  A    between atoms: C_13  and  C_30
REMARK    8  A    between atoms: C_15  and  N_16
REMARK    9  A    between atoms: N_16  and  S_17
REMARK   10  A    between atoms: S_17  and  C_20
REMARK                            x       y       z     vdW  Elec       q    Type
REMARK                         _______ _______ _______ _____ _____    ______ ____
ROOT
ATOM      1  C   UNL     1       5.329  -0.398  -3.773  0.00  0.00    +0.188 C 
ENDROOT
BRANCH   1   2
ATOM      2  C   UNL     1       5.634   0.788  -4.652  0.00  0.00    +0.015 A 
ATOM      3  C   UNL     1       6.834   1.231  -5.101  0.00  0.00    +0.013 A 
ATOM      4  C   UNL     1       6.875   2.354  -5.906  0.00  0.00    +0.008 A 
ATOM      5  C   UNL     1       5.714   2.978  -6.224  0.00  0.00    +0.045 A 
ATOM      6  S   UNL     1       4.509   1.968  -5.379  0.00  0.00    -0.100 S 
ENDBRANCH   1   2
BRANCH   1   7
ATOM      7  S   UNL     1       4.239  -1.544  -4.662  0.00  0.00    +0.006 S 
ATOM      8  O   UNL     1       4.086  -2.747  -3.920  0.00  0.00    -0.169 OA
ATOM      9  O   UNL     1       3.104  -0.852  -5.163  0.00  0.00    -0.169 OA
BRANCH   7  13
ATOM     10  C   UNL     1       6.576  -2.750  -8.346  0.00  0.00    -0.045 A 
ATOM     11  C   UNL     1       6.696  -3.484  -7.181  0.00  0.00    +0.006 A 
ATOM     12  C   UNL     1       5.982  -3.116  -6.056  0.00  0.00    +0.027 A 
ATOM     13  C   UNL     1       5.149  -2.013  -6.096  0.00  0.00    +0.089 A 
ATOM     14  C   UNL     1       5.026  -1.282  -7.262  0.00  0.00    +0.027 A 
ATOM     15  C   UNL     1       5.743  -1.647  -8.386  0.00  0.00    +0.006 A 
BRANCH  10  17
ATOM     16  C   UNL     1       6.385  -3.462 -10.714  0.00  0.00    +0.012 C 
ATOM     17  C   UNL     1       7.355  -3.150  -9.573  0.00  0.00    +0.013 C 
ATOM     18  C   UNL     1       8.278  -2.003  -9.988  0.00  0.00    +0.012 C 
ENDBRANCH  10  17
ENDBRANCH   7  13
ENDBRANCH   1   7
BRANCH   1  19
ATOM     19  C   UNL     1       4.634   0.080  -2.496  0.00  0.00    +0.137 C 
BRANCH  19  20
ATOM     20  N   UNL     1       4.337  -1.073  -1.642  0.00  0.00    -0.188 NA
ATOM     21  H   UNL     1       4.378  -1.970  -2.007  0.00  0.00    +0.148 HD
BRANCH  20  22
ATOM     22  S   UNL     1       3.931  -0.843  -0.053  0.00  0.00    +0.059 S 
ATOM     23  O   UNL     1       4.904   0.038   0.491  0.00  0.00    -0.153 OA
ATOM     24  O   UNL     1       3.680  -2.131   0.493  0.00  0.00    -0.153 OA
BRANCH  22  25
ATOM     25  C   UNL     1       2.397   0.024  -0.027  0.00  0.00    +0.109 A 
ATOM     26  C   UNL     1       1.207  -0.680  -0.016  0.00  0.00    +0.032 A 
ATOM     27  C   UNL     1       0.002  -0.004   0.002  0.00  0.00    +0.051 A 
ATOM     28  C   UNL     1      -0.017   1.383   0.010  0.00  0.00    +0.162 A 
ATOM     29  C   UNL     1       1.179   2.090   0.002  0.00  0.00    +0.164 A 
ATOM     30  C   UNL     1       2.385   1.406  -0.018  0.00  0.00    +0.078 A 
ATOM     31  O   UNL     1       1.184   3.451   0.018  0.00  0.00    -0.485 OA
ATOM     32  C   UNL     1      -0.040   4.103  -0.340  0.00  0.00    +0.270 C 
ATOM     33  C   UNL     1      -1.189   3.413   0.408  0.00  0.00    +0.270 C 
ATOM     34  O   UNL     1      -1.212   2.035   0.019  0.00  0.00    -0.485 OA
ENDBRANCH  22  25
ENDBRANCH  20  22
ENDBRANCH  19  20
ENDBRANCH   1  19
TORSDOF 8
