REMARK  Name = ZINC14665595
REMARK  11 active torsions:
REMARK  status: ('A' for Active; 'I' for Inactive)
REMARK    1  A    between atoms: C_1  and  C_2
REMARK    2  A    between atoms: C_2  and  C_3
REMARK    3  A    between atoms: C_2  and  C_4
REMARK    4  A    between atoms: N_6  and  C_7
REMARK    5  A    between atoms: C_10  and  C_13
REMARK    6  A    between atoms: N_15  and  N_16
REMARK    7  A    between atoms: C_17  and  C_19
REMARK    8  A    between atoms: C_24  and  O_25
REMARK    9  A    between atoms: O_25  and  C_26
REMARK   10  A    between atoms: C_26  and  C_27
REMARK   11  A    between atoms: C_27  and  C_28
REMARK                            x       y       z     vdW  Elec       q    Type
REMARK                         _______ _______ _______ _____ _____    ______ ____
ROOT
ATOM      1  N   UNL     1      -6.383   5.459  -0.320  0.00  0.00    -0.230 N 
ATOM      2  C   UNL     1      -6.462   6.800  -0.438  0.00  0.00    +0.264 C 
ATOM      3  O   UNL     1      -5.446   7.464  -0.509  0.00  0.00    -0.269 OA
ATOM      4  H   UNL     1      -7.194   4.929  -0.264  0.00  0.00    +0.173 HD
ENDROOT
BRANCH   2   5
ATOM      5  C   UNL     1      -7.780   7.460  -0.483  0.00  0.00    +0.081 A 
ATOM      6  C   UNL     1      -8.950   6.700  -0.408  0.00  0.00    +0.032 A 
ATOM      7  C   UNL     1     -10.179   7.324  -0.445  0.00  0.00    +0.019 A 
ATOM      8  C   UNL     1     -10.259   8.702  -0.567  0.00  0.00    +0.019 A 
ATOM      9  C   UNL     1      -9.111   9.464  -0.647  0.00  0.00    +0.047 A 
ATOM     10  C   UNL     1      -7.867   8.854  -0.606  0.00  0.00    +0.133 A 
ATOM     11 BR   UNL     1     -11.761   6.294  -0.336  0.00  0.00    -0.050 Br
BRANCH  10  12
ATOM     12  O   UNL     1      -6.738   9.602  -0.683  0.00  0.00    -0.491 OA
BRANCH  12  13
ATOM     13  C   UNL     1      -6.904  11.016  -0.807  0.00  0.00    +0.233 C 
BRANCH  13  14
ATOM     14  C   UNL     1      -5.530  11.686  -0.881  0.00  0.00    +0.076 C 
BRANCH  14  15
ATOM     15  C   UNL     1      -5.705  13.177  -1.011  0.00  0.00    -0.044 A 
ATOM     16  C   UNL     1      -5.792  13.756  -2.264  0.00  0.00    +0.004 A 
ATOM     17  C   UNL     1      -5.958  15.123  -2.383  0.00  0.00    +0.000 A 
ATOM     18  C   UNL     1      -6.026  15.912  -1.251  0.00  0.00    +0.000 A 
ATOM     19  C   UNL     1      -5.934  15.335   0.001  0.00  0.00    +0.000 A 
ATOM     20  C   UNL     1      -5.773  13.967   0.121  0.00  0.00    +0.004 A 
ENDBRANCH  14  15
ENDBRANCH  13  14
ENDBRANCH  12  13
ENDBRANCH  10  12
ENDBRANCH   2   5
BRANCH   1  23
ATOM     21  C   UNL     1      -5.053   3.492  -0.160  0.00  0.00    +0.260 C 
ATOM     22  O   UNL     1      -6.068   2.827  -0.090  0.00  0.00    -0.269 OA
ATOM     23  N   UNL     1      -5.131   4.832  -0.278  0.00  0.00    -0.230 N 
ATOM     24  H   UNL     1      -4.321   5.362  -0.334  0.00  0.00    +0.173 HD
BRANCH  21  28
ATOM     25  C   UNL     1      -1.257   1.590  -0.034  0.00  0.00    +0.033 A 
ATOM     26  C   UNL     1      -1.337   2.974  -0.151  0.00  0.00    +0.024 A 
ATOM     27  C   UNL     1      -2.565   3.594  -0.197  0.00  0.00    +0.015 A 
ATOM     28  C   UNL     1      -3.734   2.831  -0.116  0.00  0.00    +0.038 A 
ATOM     29  C   UNL     1      -3.650   1.441   0.007  0.00  0.00    +0.015 A 
ATOM     30  C   UNL     1      -2.418   0.828   0.047  0.00  0.00    +0.024 A 
BRANCH  25  33
ATOM     31  C   UNL     1       1.027   1.573   0.616  0.00  0.00    +0.220 C 
ATOM     32  O   UNL     1       0.898   2.694   1.060  0.00  0.00    -0.275 OA
ATOM     33  N   UNL     1      -0.011   0.966   0.007  0.00  0.00    -0.285 N 
ATOM     34  H   UNL     1       0.110   0.096  -0.406  0.00  0.00    +0.155 HD
BRANCH  31  36
ATOM     35  C   UNL     1       2.882   0.519  -0.647  0.00  0.00    +0.017 C 
ATOM     36  C   UNL     1       2.347   0.858   0.746  0.00  0.00    +0.069 C 
ATOM     37  C   UNL     1       3.347   1.761   1.470  0.00  0.00    +0.017 C 
ENDBRANCH  31  36
ENDBRANCH  25  33
ENDBRANCH  21  28
ENDBRANCH   1  23
TORSDOF 9
