REMARK  Name = ZINC18195593
REMARK  5 active torsions:
REMARK  status: ('A' for Active; 'I' for Inactive)
REMARK    1  A    between atoms: C_1  and  C_2
REMARK    2  A    between atoms: C_2  and  C_28
REMARK    3  A    between atoms: C_6  and  C_16
REMARK    4  A    between atoms: C_13  and  O_14
REMARK    5  A    between atoms: C_19  and  N_22
REMARK                            x       y       z     vdW  Elec       q    Type
REMARK                         _______ _______ _______ _____ _____    ______ ____
ROOT
ATOM      1  C   UNL     1      -0.019   1.526   0.010  0.00  0.00    +0.011 C 
ATOM      2  C   UNL     1       0.002  -0.004   0.002  0.00  0.00    -0.023 C 
ATOM      3  C   UNL     1       0.742  -0.503  -1.240  0.00  0.00    +0.058 C 
ATOM      4  C   UNL     1       2.171  -0.010  -1.215  0.00  0.00    +0.017 C 
ATOM      5  C   UNL     1       2.815   0.186  -0.045  0.00  0.00    +0.024 C 
ATOM      6  C   UNL     1       4.246   0.674   0.023  0.00  0.00    +0.092 C 
ATOM      7  C   UNL     1       4.883   0.564  -1.333  0.00  0.00    +0.067 A 
ATOM      8  C   UNL     1       4.152   0.351  -2.472  0.00  0.00    +0.126 A 
ATOM      9  N   UNL     1       5.010   0.306  -3.509  0.00  0.00    -0.260 N 
ATOM     10  H   UNL     1       4.775   0.170  -4.440  0.00  0.00    +0.190 HD
ATOM     11  N   UNL     1       6.306   0.491  -3.000  0.00  0.00    -0.134 NA
ATOM     12  C   UNL     1       6.224   0.645  -1.696  0.00  0.00    +0.237 A 
ATOM     13  N   UNL     1       2.770   0.216  -2.430  0.00  0.00    -0.303 N 
ATOM     14  C   UNL     1       2.170  -0.051   1.182  0.00  0.00    +0.162 C 
ATOM     15  O   UNL     1       2.781   0.125   2.218  0.00  0.00    -0.292 OA
ATOM     16  C   UNL     1       0.742  -0.517   1.242  0.00  0.00    +0.086 C 
ATOM     17  C   UNL     1      -1.431  -0.539  -0.001  0.00  0.00    +0.011 C 
ATOM     18  H   UNL     1       2.240   0.280  -3.240  0.00  0.00    +0.153 HD
ENDROOT
BRANCH   6  19
ATOM     19  C   UNL     1       4.265   2.114   0.469  0.00  0.00    -0.035 A 
ATOM     20  C   UNL     1       3.613   3.077  -0.278  0.00  0.00    +0.007 A 
ATOM     21  C   UNL     1       3.630   4.397   0.132  0.00  0.00    +0.033 A 
ATOM     22  C   UNL     1       4.298   4.754   1.288  0.00  0.00    +0.126 A 
ATOM     23  C   UNL     1       4.949   3.791   2.035  0.00  0.00    +0.033 A 
ATOM     24  C   UNL     1       4.929   2.470   1.628  0.00  0.00    +0.007 A 
BRANCH  22  25
ATOM     25  N   UNL     1       4.317   6.168   1.725  0.00  0.00    +0.056 N 
ATOM     26  O   UNL     1       3.748   7.011   1.071  0.00  0.00    -0.126 OA
ATOM     27  O   UNL     1       4.902   6.480   2.736  0.00  0.00    -0.126 OA
ENDBRANCH  22  25
ENDBRANCH   6  19
BRANCH  12  28
ATOM     28  O   UNL     1       7.269   0.849  -0.850  0.00  0.00    -0.491 OA
ATOM     29  H   UNL     1       7.653   0.035  -0.497  0.00  0.00    +0.294 HD
ENDBRANCH  12  28
TORSDOF 3
