REMARK  Name = ZINC41585642
REMARK  10 active torsions:
REMARK  status: ('A' for Active; 'I' for Inactive)
REMARK    1  A    between atoms: C_1  and  C_2
REMARK    2  A    between atoms: C_6  and  O_37
REMARK    3  A    between atoms: C_7  and  C_23
REMARK    4  A    between atoms: C_12  and  C_13
REMARK    5  A    between atoms: C_16  and  O_21
REMARK    6  A    between atoms: C_17  and  O_19
REMARK    7  A    between atoms: O_19  and  C_20
REMARK    8  A    between atoms: O_21  and  C_22
REMARK    9  A    between atoms: C_23  and  N_24
REMARK   10  A    between atoms: N_27  and  C_30
REMARK                            x       y       z     vdW  Elec       q    Type
REMARK                         _______ _______ _______ _____ _____    ______ ____
ROOT
ATOM      1  C   UNL     1       0.010   1.502  -0.011  0.00  0.00    +0.045 C 
ATOM      2  C   UNL     1       0.020  -0.005  -0.011  0.00  0.00    -0.025 A 
ATOM      3  C   UNL     1      -1.193  -0.742  -0.016  0.00  0.00    +0.022 A 
ATOM      4  C   UNL     1      -2.419  -0.092  -0.223  0.00  0.00    +0.015 A 
ATOM      5  C   UNL     1      -3.573  -0.817  -0.265  0.00  0.00    +0.046 A 
ATOM      6  C   UNL     1      -3.547  -2.201  -0.096  0.00  0.00    +0.125 A 
ATOM      7  C   UNL     1      -2.348  -2.858   0.128  0.00  0.00    +0.051 A 
ATOM      8  C   UNL     1      -1.166  -2.135   0.180  0.00  0.00    +0.147 A 
ATOM      9  O   UNL     1       0.009  -2.759   0.439  0.00  0.00    -0.421 OA
ATOM     10  C   UNL     1       1.129  -2.171  -0.042  0.00  0.00    +0.345 A 
ATOM     11  O   UNL     1       2.045  -2.836  -0.490  0.00  0.00    -0.244 OA
ATOM     12  C   UNL     1       1.203  -0.702  -0.012  0.00  0.00    +0.070 A 
ENDROOT
BRANCH  12  13
ATOM     13  C   UNL     1       2.508   0.001   0.021  0.00  0.00    -0.007 A 
ATOM     14  C   UNL     1       2.892   0.810  -1.048  0.00  0.00    +0.012 A 
ATOM     15  C   UNL     1       4.107   1.464  -1.016  0.00  0.00    +0.050 A 
ATOM     16  C   UNL     1       4.948   1.317   0.076  0.00  0.00    +0.162 A 
ATOM     17  C   UNL     1       4.570   0.510   1.146  0.00  0.00    +0.162 A 
ATOM     18  C   UNL     1       3.351  -0.143   1.122  0.00  0.00    +0.058 A 
BRANCH  17  19
ATOM     19  O   UNL     1       5.397   0.367   2.216  0.00  0.00    -0.491 OA
ATOM     20  C   UNL     1       4.945  -0.476   3.277  0.00  0.00    +0.277 C 
ENDBRANCH  17  19
BRANCH  16  21
ATOM     21  O   UNL     1       6.145   1.962   0.102  0.00  0.00    -0.491 OA
ATOM     22  C   UNL     1       6.470   2.773  -1.028  0.00  0.00    +0.277 C 
ENDBRANCH  16  21
ENDBRANCH  12  13
BRANCH   6  23
ATOM     23  O   UNL     1      -4.703  -2.909  -0.151  0.00  0.00    -0.506 OA
ATOM     24  H   UNL     1      -4.933  -3.218  -1.038  0.00  0.00    +0.292 HD
ENDBRANCH   6  23
BRANCH   7  25
ATOM     25  C   UNL     1      -2.328  -4.353   0.315  0.00  0.00    +0.127 C 
BRANCH  25  26
ATOM     26  N   UNL     1      -2.159  -5.007  -0.990  0.00  0.00    -0.295 NA
ATOM     27  C   UNL     1      -3.324  -4.770  -1.853  0.00  0.00    +0.103 C 
ATOM     28  C   UNL     1      -3.034  -5.310  -3.257  0.00  0.00    +0.120 C 
ATOM     29  N   UNL     1      -2.622  -6.718  -3.141  0.00  0.00    -0.327 N 
ATOM     30  C   UNL     1      -1.550  -7.052  -2.191  0.00  0.00    +0.120 C 
ATOM     31  C   UNL     1      -1.898  -6.444  -0.829  0.00  0.00    +0.103 C 
BRANCH  29  32
ATOM     32  C   UNL     1      -3.233  -7.710  -3.912  0.00  0.00    +0.030 A 
ATOM     33  C   UNL     1      -4.319  -7.394  -4.719  0.00  0.00    +0.026 A 
ATOM     34  C   UNL     1      -4.921  -8.377  -5.480  0.00  0.00    +0.040 A 
ATOM     35  C   UNL     1      -4.444  -9.676  -5.439  0.00  0.00    +0.124 A 
ATOM     36  C   UNL     1      -3.362  -9.993  -4.635  0.00  0.00    +0.040 A 
ATOM     37  C   UNL     1      -2.753  -9.013  -3.876  0.00  0.00    +0.026 A 
ATOM     38  F   UNL     1      -5.035 -10.636  -6.184  0.00  0.00    -0.205 F 
ENDBRANCH  29  32
ENDBRANCH  25  26
ENDBRANCH   7  25
TORSDOF 7
