REMARK  Name = ZINC64622800
REMARK  5 active torsions:
REMARK  status: ('A' for Active; 'I' for Inactive)
REMARK    1  A    between atoms: C_1  and  O_2
REMARK    2  A    between atoms: O_2  and  C_3
REMARK    3  A    between atoms: C_3  and  C_5
REMARK    4  A    between atoms: C_10  and  N_11
REMARK    5  A    between atoms: C_27  and  C_29
REMARK                            x       y       z     vdW  Elec       q    Type
REMARK                         _______ _______ _______ _____ _____    ______ ____
ROOT
ATOM      1  N   UNL     1       2.006  -1.580  -3.362  0.00  0.00    -0.269 N 
ATOM      2  C   UNL     1       2.255  -2.358  -4.434  0.00  0.00    +0.307 C 
ATOM      3  O   UNL     1       1.932  -3.530  -4.423  0.00  0.00    -0.252 OA
ATOM      4  N   UNL     1       2.863  -1.837  -5.519  0.00  0.00    -0.276 N 
ATOM      5  C   UNL     1       3.148  -0.399  -5.570  0.00  0.00    +0.114 C 
ATOM      6  C   UNL     1       4.659  -0.184  -5.774  0.00  0.00    +0.052 C 
ATOM      7  C   UNL     1       5.088  -1.134  -6.865  0.00  0.00    -0.035 C 
ATOM      8  C   UNL     1       5.762  -0.933  -7.990  0.00  0.00    -0.001 A 
ATOM      9  C   UNL     1       6.431   0.262  -8.531  0.00  0.00    +0.010 A 
ATOM     10  C   UNL     1       7.022   0.119  -9.746  0.00  0.00    +0.001 A 
ATOM     11  C   UNL     1       7.016  -1.078 -10.469  0.00  0.00    +0.002 A 
ATOM     12  C   UNL     1       6.433  -2.227 -10.044  0.00  0.00    +0.026 A 
ATOM     13  C   UNL     1       5.785  -2.204  -8.775  0.00  0.00    +0.043 A 
ATOM     14  N   UNL     1       5.177  -3.151  -8.124  0.00  0.00    -0.375 N 
ATOM     15  C   UNL     1       4.749  -2.620  -6.829  0.00  0.00    +0.131 C 
ATOM     16  C   UNL     1       3.237  -2.717  -6.637  0.00  0.00    +0.137 C 
ATOM     17  H   UNL     1       2.189  -0.628  -3.401  0.00  0.00    +0.156 HD
ATOM     18  H   UNL     1       5.030  -4.056  -8.443  0.00  0.00    +0.160 HD
ENDROOT
BRANCH  16  19
ATOM     19  C   UNL     1       2.537  -2.271  -7.895  0.00  0.00    +0.010 A 
ATOM     20  C   UNL     1       2.676  -0.970  -8.339  0.00  0.00    +0.008 A 
ATOM     21  C   UNL     1       2.034  -0.561  -9.493  0.00  0.00    +0.000 A 
ATOM     22  C   UNL     1       1.251  -1.452 -10.203  0.00  0.00    +0.003 A 
ATOM     23  C   UNL     1       1.110  -2.753  -9.760  0.00  0.00    +0.039 A 
ATOM     24  C   UNL     1       1.758  -3.166  -8.608  0.00  0.00    +0.128 A 
ATOM     25  F   UNL     1       1.624  -4.439  -8.177  0.00  0.00    -0.205 F 
ENDBRANCH  16  19
BRANCH   1  31
ATOM     26  C   UNL     1       0.591  -1.414  -1.403  0.00  0.00    +0.080 A 
ATOM     27  C   UNL     1       0.073  -1.993  -0.241  0.00  0.00    +0.017 A 
ATOM     28  C   UNL     1       0.449  -3.269   0.118  0.00  0.00    +0.001 A 
ATOM     29  C   UNL     1       1.339  -3.983  -0.668  0.00  0.00    +0.002 A 
ATOM     30  C   UNL     1       1.859  -3.425  -1.819  0.00  0.00    +0.024 A 
ATOM     31  C   UNL     1       1.488  -2.143  -2.199  0.00  0.00    +0.049 A 
BRANCH  26  32
ATOM     32  C   UNL     1       0.193  -0.050  -1.792  0.00  0.00    +0.341 C 
ATOM     33  O   UNL     1       0.706   0.480  -2.758  0.00  0.00    -0.245 OA
BRANCH  32  35
ATOM     34  C   UNL     1      -1.077   1.929  -1.512  0.00  0.00    +0.280 C 
ATOM     35  O   UNL     1      -0.740   0.610  -1.078  0.00  0.00    -0.464 OA
ENDBRANCH  32  35
ENDBRANCH  26  32
ENDBRANCH   1  31
TORSDOF 4
