REMARK  Name = ZINC25184550
REMARK  2 active torsions:
REMARK  status: ('A' for Active; 'I' for Inactive)
REMARK    1  A    between atoms: C_1  and  C_2
REMARK    2  A    between atoms: N_4  and  C_29
REMARK                            x       y       z     vdW  Elec       q    Type
REMARK                         _______ _______ _______ _____ _____    ______ ____
ROOT
ATOM      1  C   UNL     1       0.654  -0.473  -4.043  0.00  0.00    +0.063 C 
ATOM      2  C   UNL     1       2.063  -0.082  -3.683  0.00  0.00    +0.052 C 
ATOM      3  N   UNL     1       2.850   0.650  -4.375  0.00  0.00    -0.181 NA
ATOM      4  N   UNL     1       4.094   0.833  -3.777  0.00  0.00    -0.160 N 
ATOM      5  C   UNL     1       4.165   0.182  -2.595  0.00  0.00    +0.253 C 
ATOM      6  O   UNL     1       5.105   0.138  -1.829  0.00  0.00    -0.272 OA
ATOM      7  C   UNL     1       2.816  -0.479  -2.438  0.00  0.00    +0.112 C 
ATOM      8  C   UNL     1       2.962  -1.993  -2.351  0.00  0.00    +0.061 C 
ATOM      9  C   UNL     1       1.662  -2.608  -1.895  0.00  0.00    -0.024 A 
ATOM     10  C   UNL     1       1.502  -3.977  -2.038  0.00  0.00    +0.020 A 
ATOM     11  C   UNL     1       0.336  -4.593  -1.629  0.00  0.00    +0.018 A 
ATOM     12  C   UNL     1      -0.682  -3.840  -1.071  0.00  0.00    +0.017 A 
ATOM     13  C   UNL     1      -0.531  -2.477  -0.929  0.00  0.00    +0.024 A 
ATOM     14  C   UNL     1       0.644  -1.848  -1.345  0.00  0.00    +0.033 A 
ATOM     15  N   UNL     1       0.731  -0.468  -1.184  0.00  0.00    -0.322 N 
ATOM     16  C   UNL     1       2.106   0.035  -1.190  0.00  0.00    +0.112 C 
ATOM     17  C   UNL     1       2.088   1.565  -1.188  0.00  0.00    +0.130 C 
ATOM     18  N   UNL     1       1.359   2.037   0.000  0.00  0.00    -0.313 N 
ATOM     19  C   UNL     1      -0.019   1.527   0.010  0.00  0.00    +0.125 C 
ATOM     20  C   UNL     1       0.002  -0.004   0.002  0.00  0.00    +0.124 C 
ATOM     21  C   UNL     1       1.378   3.424   0.078  0.00  0.00    +0.099 A 
ATOM     22  C   UNL     1       0.741   4.064   1.137  0.00  0.00    +0.042 A 
ATOM     23  C   UNL     1       0.768   5.445   1.202  0.00  0.00    +0.005 A 
ATOM     24  C   UNL     1       1.433   6.143   0.202  0.00  0.00    +0.018 A 
ATOM     25  C   UNL     1       2.043   5.444  -0.820  0.00  0.00    +0.084 A 
ATOM     26  N   UNL     1       2.007   4.125  -0.853  0.00  0.00    -0.350 N 
ATOM     27 BR   UNL     1       0.130  -6.462  -1.831  0.00  0.00    -0.050 Br
ATOM     28  H   UNL     1       2.515   3.609  -1.681  0.00  0.00    +0.166 HD
ENDROOT
BRANCH   4  29
ATOM     29  C   UNL     1       5.134   1.591  -4.327  0.00  0.00    +0.060 A 
ATOM     30  C   UNL     1       6.339   1.718  -3.647  0.00  0.00    +0.025 A 
ATOM     31  C   UNL     1       7.365   2.462  -4.196  0.00  0.00    +0.002 A 
ATOM     32  C   UNL     1       7.190   3.089  -5.415  0.00  0.00    +0.000 A 
ATOM     33  C   UNL     1       5.990   2.970  -6.092  0.00  0.00    +0.002 A 
ATOM     34  C   UNL     1       4.962   2.223  -5.552  0.00  0.00    +0.025 A 
ENDBRANCH   4  29
TORSDOF 1
