REMARK  Name = ZINC12111448
REMARK  5 active torsions:
REMARK  status: ('A' for Active; 'I' for Inactive)
REMARK    1  A    between atoms: C_8  and  C_12
REMARK    2  A    between atoms: N_14  and  C_15
REMARK    3  A    between atoms: C_15  and  C_16
REMARK    4  A    between atoms: C_16  and  C_18
REMARK    5  A    between atoms: C_16  and  N_52
REMARK                            x       y       z     vdW  Elec       q    Type
REMARK                         _______ _______ _______ _____ _____    ______ ____
ROOT
ATOM      1  C   UNL     1       0.182   1.413  -0.694  0.00  0.00    +0.094 C 
ENDROOT
BRANCH   1   4
ATOM      2  C   UNL     1      -0.693  -0.775  -1.315  0.00  0.00    +0.251 C 
ATOM      3  O   UNL     1      -1.666  -0.219  -1.787  0.00  0.00    -0.270 OA
ATOM      4  N   UNL     1       0.288  -0.047  -0.745  0.00  0.00    -0.312 N 
ATOM      5  H   UNL     1       1.065  -0.490  -0.369  0.00  0.00    +0.149 HD
BRANCH   2  13
ATOM      6  C   UNL     1       1.734  -6.351  -0.448  0.00  0.00    +0.001 A 
ATOM      7  C   UNL     1       0.704  -7.064  -1.043  0.00  0.00    +0.004 A 
ATOM      8  C   UNL     1      -0.390  -6.411  -1.571  0.00  0.00    +0.047 A 
ATOM      9  C   UNL     1      -0.467  -5.024  -1.510  0.00  0.00    +0.139 A 
ATOM     10  C   UNL     1       0.579  -4.303  -0.905  0.00  0.00    +0.018 A 
ATOM     11  C   UNL     1       1.682  -4.989  -0.375  0.00  0.00    +0.011 A 
ATOM     12  C   UNL     1       0.519  -2.888  -0.839  0.00  0.00    +0.031 A 
ATOM     13  C   UNL     1      -0.586  -2.243  -1.367  0.00  0.00    +0.122 A 
ATOM     14  C   UNL     1      -1.646  -3.048  -1.984  0.00  0.00    +0.350 A 
ATOM     15  O   UNL     1      -2.624  -2.501  -2.459  0.00  0.00    -0.244 OA
ATOM     16  O   UNL     1      -1.539  -4.386  -2.027  0.00  0.00    -0.422 OA
ENDBRANCH   2  13
ENDBRANCH   1   4
BRANCH   1  17
ATOM     17  C   UNL     1       1.418   1.990  -0.001  0.00  0.00    -0.020 C 
BRANCH  17  18
ATOM     18  C   UNL     1       1.252   3.479   0.162  0.00  0.00    -0.059 A 
ATOM     19  C   UNL     1       0.093   3.990   0.716  0.00  0.00    +0.003 A 
ATOM     20  C   UNL     1      -0.056   5.355   0.870  0.00  0.00    +0.020 A 
ATOM     21  C   UNL     1       0.950   6.212   0.460  0.00  0.00    +0.041 A 
ATOM     22  C   UNL     1       2.107   5.701  -0.099  0.00  0.00    +0.020 A 
ATOM     23  C   UNL     1       2.258   4.335  -0.248  0.00  0.00    +0.003 A 
ATOM     24 CL   UNL     1       0.759   7.927   0.647  0.00  0.00    -0.084 Cl
ENDBRANCH  17  18
BRANCH  17  30
ATOM     25  C   UNL     1       0.418   1.659   2.179  0.00  0.00    -0.078 C 
ATOM     26  C   UNL     1       0.545   0.879   3.490  0.00  0.00    -0.019 C 
ATOM     27  C   UNL     1       1.843   1.282   4.194  0.00  0.00    -0.004 C 
ATOM     28  C   UNL     1       3.027   1.014   3.260  0.00  0.00    -0.019 C 
ATOM     29  C   UNL     1       2.828   1.790   1.957  0.00  0.00    -0.078 C 
ATOM     30  N   UNL     1       1.575   1.338   1.316  0.00  0.00    +0.385 N 
ATOM     31  H   UNL     1       1.617   0.321   1.181  0.00  0.00    -0.081 HD
ENDBRANCH  17  30
ENDBRANCH   1  17
TORSDOF 5
