REMARK  Name = ZINC43554204
REMARK  13 active torsions:
REMARK  status: ('A' for Active; 'I' for Inactive)
REMARK    1  A    between atoms: C_1  and  C_2
REMARK    2  A    between atoms: C_8  and  C_10
REMARK    3  A    between atoms: C_10  and  C_11
REMARK    4  A    between atoms: C_19  and  C_21
REMARK    5  A    between atoms: C_21  and  C_22
REMARK    6  A    between atoms: C_22  and  C_23
REMARK    7  A    between atoms: C_22  and  C_24
REMARK    8  A    between atoms: C_22  and  C_25
REMARK    9  A    between atoms: C_29  and  C_39
REMARK   10  A    between atoms: C_32  and  O_38
REMARK   11  A    between atoms: C_34  and  C_35
REMARK   12  A    between atoms: C_34  and  C_36
REMARK   13  A    between atoms: C_36  and  O_37
REMARK                            x       y       z     vdW  Elec       q    Type
REMARK                         _______ _______ _______ _____ _____    ______ ____
ROOT
ATOM      1  C   UNL     1      -0.916  -4.793   3.925  0.00  0.00    +0.054 C 
ATOM      2  C   UNL     1      -1.999  -4.083   4.712  0.00  0.00    +0.058 A 
ATOM      3  C   UNL     1      -2.517  -4.705   5.801  0.00  0.00    +0.015 A 
ATOM      4  S   UNL     1      -3.715  -3.530   6.370  0.00  0.00    -0.057 S 
ATOM      5  C   UNL     1      -3.458  -2.360   5.184  0.00  0.00    +0.165 A 
ATOM      6  N   UNL     1      -2.511  -2.890   4.440  0.00  0.00    -0.229 NA
ATOM      7  N   UNL     1      -4.093  -1.134   5.028  0.00  0.00    -0.265 N 
ATOM      8  C   UNL     1      -5.051  -0.756   5.897  0.00  0.00    +0.219 C 
ATOM      9  O   UNL     1      -5.359  -1.485   6.816  0.00  0.00    -0.275 OA
ATOM     10  C   UNL     1      -2.150  -6.033   6.355  0.00  0.00    +0.049 C 
ATOM     11  C   UNL     1      -1.068  -6.742   5.519  0.00  0.00    +0.011 C 
ATOM     12  C   UNL     1      -0.140  -5.729   4.859  0.00  0.00    -0.019 C 
ATOM     13  C   UNL     1       0.611  -4.957   5.937  0.00  0.00    +0.010 C 
ATOM     14  C   UNL     1       1.474  -5.928   6.744  0.00  0.00    +0.032 C 
ATOM     15  C   UNL     1       0.646  -7.026   7.385  0.00  0.00    +0.123 C 
ATOM     16  C   UNL     1      -0.341  -7.708   6.452  0.00  0.00    +0.021 C 
ATOM     17  C   UNL     1       0.352  -8.840   5.682  0.00  0.00    +0.016 C 
ATOM     18  C   UNL     1       0.884  -6.420   3.946  0.00  0.00    +0.012 C 
ATOM     19  H   UNL     1      -3.847  -0.550   4.293  0.00  0.00    +0.157 HD
ENDROOT
BRANCH  15  20
ATOM     20  O   UNL     1      -0.035  -6.512   8.535  0.00  0.00    -0.391 OA
ATOM     21  H   UNL     1       0.555  -6.166   9.219  0.00  0.00    +0.210 HD
ENDBRANCH  15  20
BRANCH   1  22
ATOM     22  C   UNL     1       0.023  -3.784   3.272  0.00  0.00    +0.106 C 
BRANCH  22  30
ATOM     23  C   UNL     1       1.054   2.038   1.143  0.00  0.00    +0.007 C 
ATOM     24  C   UNL     1       0.862   0.542   0.885  0.00  0.00    -0.011 C 
ATOM     25  C   UNL     1      -0.633   0.228   0.798  0.00  0.00    +0.022 C 
ATOM     26  C   UNL     1      -0.821  -1.264   0.505  0.00  0.00    +0.108 C 
ATOM     27  N   UNL     1      -0.100  -2.040   1.522  0.00  0.00    -0.301 N 
ATOM     28  C   UNL     1       1.323  -1.755   1.750  0.00  0.00    +0.108 C 
ATOM     29  C   UNL     1       1.487  -0.258   2.030  0.00  0.00    +0.022 C 
ATOM     30  C   UNL     1      -0.731  -2.996   2.232  0.00  0.00    +0.216 C 
ATOM     31  O   UNL     1      -1.906  -3.222   2.034  0.00  0.00    -0.276 OA
ENDBRANCH  22  30
ENDBRANCH   1  22
BRANCH   8  32
ATOM     32  C   UNL     1      -5.740   0.574   5.728  0.00  0.00    +0.102 C 
BRANCH  32  33
ATOM     33  C   UNL     1      -6.776   0.757   6.838  0.00  0.00    -0.029 C 
ATOM     34  C   UNL     1      -6.078   0.714   8.199  0.00  0.00    +0.011 C 
ATOM     35  C   UNL     1      -7.476   2.107   6.666  0.00  0.00    +0.011 C 
ATOM     36  C   UNL     1      -7.811  -0.367   6.760  0.00  0.00    +0.011 C 
ENDBRANCH  32  33
ENDBRANCH   8  32
BRANCH  16  37
ATOM     37  C   UNL     1      -1.400  -8.412   7.342  0.00  0.00    +0.165 C 
BRANCH  37  38
ATOM     38  O   UNL     1      -0.747  -9.324   8.228  0.00  0.00    -0.394 OA
ATOM     39  H   UNL     1      -1.350  -9.801   8.815  0.00  0.00    +0.209 HD
ENDBRANCH  37  38
ENDBRANCH  16  37
TORSDOF 7
