REMARK  Name = ZINC22135111
REMARK  13 active torsions:
REMARK  status: ('A' for Active; 'I' for Inactive)
REMARK    1  A    between atoms: C_1  and  C_2
REMARK    2  A    between atoms: C_2  and  C_3
REMARK    3  A    between atoms: C_3  and  C_4
REMARK    4  A    between atoms: C_4  and  C_5
REMARK    5  A    between atoms: C_5  and  N_6
REMARK    6  A    between atoms: C_9  and  C_17
REMARK    7  A    between atoms: C_10  and  C_12
REMARK    8  A    between atoms: C_12  and  O_14
REMARK    9  A    between atoms: O_14  and  C_15
REMARK   10  A    between atoms: C_15  and  C_16
REMARK   11  A    between atoms: C_18  and  C_20
REMARK   12  A    between atoms: C_20  and  N_21
REMARK   13  A    between atoms: C_29  and  C_31
REMARK                            x       y       z     vdW  Elec       q    Type
REMARK                         _______ _______ _______ _____ _____    ______ ____
ROOT
ATOM      1  N   UNL     1      -0.846  -3.935  -0.011  0.00  0.00    -0.249 N 
ATOM      2  C   UNL     1      -0.412  -2.621  -0.008  0.00  0.00    +0.168 A 
ATOM      3  N   UNL     1       0.829  -2.159  -0.017  0.00  0.00    -0.229 NA
ATOM      4  C   UNL     1       1.082  -0.877  -0.019  0.00  0.00    +0.062 A 
ATOM      5  C   UNL     1       0.002  -0.004   0.002  0.00  0.00    +0.120 A 
ATOM      6  S   UNL     1      -1.357  -1.165   0.008  0.00  0.00    -0.045 S 
ATOM      7  C   UNL     1       2.499  -0.363  -0.037  0.00  0.00    +0.067 C 
ATOM      8  C   UNL     1       0.050  -4.941  -0.024  0.00  0.00    +0.239 C 
ATOM      9  O   UNL     1       1.238  -4.695  -0.034  0.00  0.00    -0.273 OA
ENDROOT
BRANCH   5  10
ATOM     10  C   UNL     1      -0.018   1.457   0.010  0.00  0.00    +0.348 C 
ATOM     11  O   UNL     1       1.028   2.080   0.003  0.00  0.00    -0.244 OA
BRANCH  10  12
ATOM     12  O   UNL     1      -1.195   2.116   0.019  0.00  0.00    -0.461 OA
BRANCH  12  13
ATOM     13  C   UNL     1      -1.140   3.544   0.027  0.00  0.00    +0.229 C 
ATOM     14  C   UNL     1      -2.562   4.109   0.036  0.00  0.00    +0.048 C 
ENDBRANCH  12  13
ENDBRANCH  10  12
ENDBRANCH   5  10
BRANCH   1  15
ATOM     15  C   UNL     1      -2.281  -4.232   0.001  0.00  0.00    +0.115 C 
BRANCH  15  16
ATOM     16  C   UNL     1      -2.793  -4.329  -1.438  0.00  0.00    +0.019 C 
BRANCH  16  17
ATOM     17  C   UNL     1      -4.291  -4.639  -1.426  0.00  0.00    +0.001 C 
BRANCH  17  19
ATOM     18  C   UNL     1      -6.302  -5.046  -2.853  0.00  0.00    +0.004 C 
ATOM     19  C   UNL     1      -4.804  -4.735  -2.865  0.00  0.00    -0.003 C 
ENDBRANCH  17  19
ENDBRANCH  16  17
ENDBRANCH  15  16
ENDBRANCH   1  15
BRANCH   8  20
ATOM     20  C   UNL     1      -0.423  -6.372  -0.027  0.00  0.00    +0.214 C 
BRANCH  20  21
ATOM     21  N   UNL     1       0.735  -7.269  -0.042  0.00  0.00    -0.215 N 
ATOM     22  C   UNL     1       1.345  -7.739   1.066  0.00  0.00    +0.247 C 
ATOM     23  O   UNL     1       1.050  -7.509   2.219  0.00  0.00    -0.273 OA
ATOM     24  C   UNL     1       2.472  -8.613   0.567  0.00  0.00    +0.115 C 
ATOM     25  C   UNL     1       2.279 -10.050   1.039  0.00  0.00    +0.035 C 
ATOM     26  C   UNL     1       3.415 -10.924   0.500  0.00  0.00    +0.003 C 
ATOM     27  C   UNL     1       4.755 -10.381   0.999  0.00  0.00    +0.000 C 
ATOM     28  C   UNL     1       4.945  -8.949   0.497  0.00  0.00    +0.006 C 
ATOM     29  C   UNL     1       3.816  -8.066   1.035  0.00  0.00    +0.018 C 
ATOM     30  C   UNL     1       3.994  -6.638   0.516  0.00  0.00    +0.010 C 
ATOM     31  N   UNL     1       2.365  -8.533  -0.895  0.00  0.00    -0.285 N 
ATOM     32  C   UNL     1       1.317  -7.729  -1.157  0.00  0.00    +0.310 C 
ATOM     33  O   UNL     1       0.942  -7.449  -2.279  0.00  0.00    -0.252 OA
ATOM     34  H   UNL     1       3.077  -9.081  -1.530  0.00  0.00    +0.151 HD
ENDBRANCH  20  21
ENDBRANCH   8  20
TORSDOF 9
