REMARK  Name = ZINC37443400
REMARK  5 active torsions:
REMARK  status: ('A' for Active; 'I' for Inactive)
REMARK    1  A    between atoms: C_1  and  C_2
REMARK    2  A    between atoms: C_8  and  N_10
REMARK    3  A    between atoms: C_11  and  C_13
REMARK    4  A    between atoms: C_13  and  C_32
REMARK    5  A    between atoms: N_25  and  C_26
REMARK                            x       y       z     vdW  Elec       q    Type
REMARK                         _______ _______ _______ _____ _____    ______ ____
ROOT
ATOM      1  C   UNL     1       0.143   0.512   4.641  0.00  0.00    +0.129 C 
ATOM      2  C   UNL     1      -0.322  -0.770   5.330  0.00  0.00    +0.157 C 
ATOM      3  N   UNL     1      -1.618  -1.172   4.775  0.00  0.00    -0.331 N 
ATOM      4  C   UNL     1      -2.168  -2.411   4.643  0.00  0.00    +0.088 A 
ATOM      5  C   UNL     1      -1.992  -3.801   4.844  0.00  0.00    +0.067 A 
ATOM      6  C   UNL     1      -3.108  -4.412   4.410  0.00  0.00    +0.198 A 
ATOM      7  O   UNL     1      -3.972  -3.493   3.950  0.00  0.00    -0.461 OA
ATOM      8  C   UNL     1      -3.433  -2.261   4.073  0.00  0.00    +0.153 A 
ATOM      9  C   UNL     1      -3.639  -0.891   3.853  0.00  0.00    +0.079 A 
ATOM     10  C   UNL     1      -2.522  -0.235   4.279  0.00  0.00    +0.109 A 
ATOM     11  C   UNL     1      -2.189   1.194   4.263  0.00  0.00    +0.264 C 
ATOM     12  O   UNL     1      -3.020   2.043   3.997  0.00  0.00    -0.268 OA
ATOM     13  N   UNL     1      -0.909   1.519   4.561  0.00  0.00    -0.278 N 
ATOM     14  C   UNL     1       1.323   1.092   5.425  0.00  0.00    +0.043 C 
ENDROOT
BRANCH  13  15
ATOM     15  C   UNL     1      -0.571   2.922   4.810  0.00  0.00    +0.078 C 
ATOM     16  C   UNL     1      -0.787   3.733   3.531  0.00  0.00    +0.022 C 
ATOM     17  C   UNL     1      -0.433   5.199   3.791  0.00  0.00    +0.002 C 
ATOM     18  C   UNL     1      -1.329   5.751   4.901  0.00  0.00    +0.000 C 
ATOM     19  C   UNL     1      -1.113   4.939   6.181  0.00  0.00    +0.002 C 
ATOM     20  C   UNL     1      -1.467   3.474   5.921  0.00  0.00    +0.022 C 
ENDBRANCH  13  15
BRANCH   1  22
ATOM     21  N   UNL     1      -0.280   0.167   2.229  0.00  0.00    -0.310 N 
ATOM     22  C   UNL     1       0.604   0.177   3.246  0.00  0.00    +0.238 C 
ATOM     23  O   UNL     1       1.770  -0.085   3.039  0.00  0.00    -0.273 OA
ATOM     24  H   UNL     1      -1.213   0.376   2.395  0.00  0.00    +0.149 HD
BRANCH  21  31
ATOM     25  C   UNL     1      -0.789   1.992   0.039  0.00  0.00    +0.009 C 
ATOM     26  C   UNL     1      -0.784   0.474  -0.145  0.00  0.00    +0.006 C 
ATOM     27  C   UNL     1      -0.316   0.133  -1.561  0.00  0.00    +0.005 C 
ATOM     28  C   UNL     1      -0.310  -1.386  -1.744  0.00  0.00    +0.000 C 
ATOM     29  C   UNL     1       0.641  -2.019  -0.727  0.00  0.00    +0.002 C 
ATOM     30  C   UNL     1       0.173  -1.679   0.689  0.00  0.00    +0.022 C 
ATOM     31  C   UNL     1       0.168  -0.160   0.873  0.00  0.00    +0.076 C 
ENDBRANCH  21  31
ENDBRANCH   1  22
TORSDOF 3
