REMARK  Name = ZINC39290676
REMARK  6 active torsions:
REMARK  status: ('A' for Active; 'I' for Inactive)
REMARK    1  A    between atoms: C_4  and  S_7
REMARK    2  A    between atoms: S_7  and  C_8
REMARK    3  A    between atoms: C_16  and  C_18
REMARK    4  A    between atoms: C_18  and  S_29
REMARK    5  A    between atoms: C_19  and  C_20
REMARK    6  A    between atoms: S_29  and  C_32
REMARK                            x       y       z     vdW  Elec       q    Type
REMARK                         _______ _______ _______ _____ _____    ______ ____
ROOT
ATOM      1  C   UNL     1       4.951  -3.069   1.220  0.00  0.00    +0.099 C 
ATOM      2  C   UNL     1       6.123  -3.679   1.328  0.00  0.00    +0.033 C 
ENDROOT
BRANCH   1  11
ATOM      3  C   UNL     1       4.279  -1.310  -0.387  0.00  0.00    +0.027 C 
ATOM      4  C   UNL     1       2.929  -1.036  -0.578  0.00  0.00    +0.010 A 
ATOM      5  C   UNL     1       2.228   0.160  -0.848  0.00  0.00    +0.011 A 
ATOM      6  C   UNL     1       0.877   0.131  -0.990  0.00  0.00    +0.001 A 
ATOM      7  C   UNL     1       0.156  -1.058  -0.875  0.00  0.00    +0.002 A 
ATOM      8  C   UNL     1       0.765  -2.242  -0.616  0.00  0.00    +0.026 A 
ATOM      9  C   UNL     1       2.172  -2.292  -0.456  0.00  0.00    +0.044 A 
ATOM     10  N   UNL     1       2.987  -3.299  -0.204  0.00  0.00    -0.372 N 
ATOM     11  C   UNL     1       4.365  -2.800  -0.142  0.00  0.00    +0.166 C 
ATOM     12  H   UNL     1       2.719  -4.223  -0.083  0.00  0.00    +0.161 HD
BRANCH   3  13
ATOM     13  S   UNL     1       5.537  -0.227  -0.427  0.00  0.00    -0.091 S 
BRANCH  13  17
ATOM     14  C   UNL     1       7.875  -1.399  -4.125  0.00  0.00    +0.000 A 
ATOM     15  C   UNL     1       8.357  -0.408  -3.289  0.00  0.00    +0.001 A 
ATOM     16  C   UNL     1       7.647  -0.048  -2.161  0.00  0.00    +0.015 A 
ATOM     17  C   UNL     1       6.446  -0.682  -1.866  0.00  0.00    +0.013 A 
ATOM     18  C   UNL     1       5.965  -1.678  -2.708  0.00  0.00    +0.015 A 
ATOM     19  C   UNL     1       6.681  -2.033  -3.834  0.00  0.00    +0.001 A 
ENDBRANCH  13  17
ENDBRANCH   3  13
ENDBRANCH   1  11
BRANCH   2  20
ATOM     20  C   UNL     1       6.604  -4.125   2.652  0.00  0.00    -0.020 A 
ATOM     21  C   UNL     1       5.845  -5.021   3.406  0.00  0.00    +0.012 A 
ATOM     22  C   UNL     1       6.296  -5.437   4.642  0.00  0.00    +0.050 A 
ATOM     23  C   UNL     1       7.503  -4.968   5.139  0.00  0.00    +0.166 A 
ATOM     24  C   UNL     1       8.266  -4.074   4.390  0.00  0.00    +0.167 A 
ATOM     25  C   UNL     1       7.822  -3.657   3.149  0.00  0.00    +0.057 A 
ATOM     26  O   UNL     1       9.396  -3.769   5.094  0.00  0.00    -0.453 OA
ATOM     27  C   UNL     1       9.121  -4.164   6.451  0.00  0.00    +0.466 C 
ATOM     28  O   UNL     1       8.156  -5.223   6.310  0.00  0.00    -0.453 OA
ENDBRANCH   2  20
BRANCH   1  29
ATOM     29  S   UNL     1       4.078  -2.575   2.668  0.00  0.00    +0.024 S 
ATOM     30  O   UNL     1       4.963  -2.769   3.762  0.00  0.00    -0.165 OA
ATOM     31  O   UNL     1       3.490  -1.314   2.378  0.00  0.00    -0.165 OA
BRANCH  29  32
ATOM     32  C   UNL     1       2.749  -3.711   2.889  0.00  0.00    +0.093 A 
ATOM     33  C   UNL     1       1.557  -3.519   2.215  0.00  0.00    +0.027 A 
ATOM     34  C   UNL     1       0.514  -4.410   2.388  0.00  0.00    +0.002 A 
ATOM     35  C   UNL     1       0.664  -5.493   3.234  0.00  0.00    +0.000 A 
ATOM     36  C   UNL     1       1.856  -5.685   3.907  0.00  0.00    +0.002 A 
ATOM     37  C   UNL     1       2.900  -4.796   3.731  0.00  0.00    +0.027 A 
ENDBRANCH  29  32
ENDBRANCH   1  29
TORSDOF 6
