REMARK  Name = ZINC63384596
REMARK  4 active torsions:
REMARK  status: ('A' for Active; 'I' for Inactive)
REMARK    1  A    between atoms: C_1  and  C_2
REMARK    2  A    between atoms: C_2  and  C_3
REMARK    3  A    between atoms: C_2  and  C_4
REMARK    4  A    between atoms: C_4  and  C_5
REMARK                            x       y       z     vdW  Elec       q    Type
REMARK                         _______ _______ _______ _____ _____    ______ ____
ROOT
ATOM      1  C   UNL     1      -1.416  -2.035  -0.119  0.00  0.00    +0.217 C 
ATOM      2  O   UNL     1      -0.362  -2.619  -0.255  0.00  0.00    -0.276 OA
ATOM      3  N   UNL     1      -2.574  -2.724  -0.133  0.00  0.00    -0.281 N 
ATOM      4  C   UNL     1      -3.841  -2.015   0.085  0.00  0.00    +0.113 C 
ATOM      5  C   UNL     1      -4.585  -2.650   1.274  0.00  0.00    +0.052 C 
ATOM      6  C   UNL     1      -4.526  -4.144   1.077  0.00  0.00    -0.034 C 
ATOM      7  C   UNL     1      -5.477  -5.069   1.064  0.00  0.00    -0.001 A 
ATOM      8  C   UNL     1      -6.918  -4.995   1.355  0.00  0.00    +0.010 A 
ATOM      9  C   UNL     1      -7.617  -6.153   1.219  0.00  0.00    +0.001 A 
ATOM     10  C   UNL     1      -7.034  -7.362   0.827  0.00  0.00    +0.002 A 
ATOM     11  C   UNL     1      -5.715  -7.524   0.552  0.00  0.00    +0.026 A 
ATOM     12  C   UNL     1      -4.875  -6.378   0.670  0.00  0.00    +0.043 A 
ATOM     13  N   UNL     1      -3.592  -6.255   0.497  0.00  0.00    -0.375 N 
ATOM     14  C   UNL     1      -3.214  -4.877   0.814  0.00  0.00    +0.143 C 
ATOM     15  C   UNL     1      -2.554  -4.169  -0.372  0.00  0.00    +0.165 C 
ATOM     16  C   UNL     1      -3.229  -4.517  -1.659  0.00  0.00    +0.008 A 
ATOM     17  C   UNL     1      -4.525  -4.332  -2.092  0.00  0.00    +0.008 A 
ATOM     18  C   UNL     1      -4.833  -4.783  -3.371  0.00  0.00    +0.000 A 
ATOM     19  C   UNL     1      -3.882  -5.387  -4.169  0.00  0.00    +0.002 A 
ATOM     20  C   UNL     1      -2.578  -5.575  -3.741  0.00  0.00    +0.023 A 
ATOM     21  C   UNL     1      -2.255  -5.128  -2.459  0.00  0.00    +0.039 A 
ATOM     22  N   UNL     1      -1.048  -5.188  -1.785  0.00  0.00    -0.283 N 
ATOM     23  C   UNL     1      -1.130  -4.648  -0.550  0.00  0.00    +0.248 C 
ATOM     24  O   UNL     1      -0.234  -4.564   0.262  0.00  0.00    -0.273 OA
ATOM     25  H   UNL     1      -0.238  -5.572  -2.155  0.00  0.00    +0.155 HD
ATOM     26  H   UNL     1      -2.988  -6.956   0.207  0.00  0.00    +0.160 HD
ENDROOT
BRANCH   1  27
ATOM     27  C   UNL     1      -1.431  -0.539   0.065  0.00  0.00    +0.099 C 
BRANCH  27  29
ATOM     28  C   UNL     1      -0.017   1.520   0.105  0.00  0.00    +0.008 C 
ATOM     29  C   UNL     1       0.004  -0.008   0.043  0.00  0.00    -0.008 C 
ATOM     30  C   UNL     1       0.769  -0.557   1.249  0.00  0.00    +0.008 C 
ENDBRANCH  27  29
ENDBRANCH   1  27
TORSDOF 2
