REMARK  Name = ZINC23737747
REMARK  8 active torsions:
REMARK  status: ('A' for Active; 'I' for Inactive)
REMARK    1  A    between atoms: C_1  and  C_2
REMARK    2  A    between atoms: C_3  and  C_16
REMARK    3  A    between atoms: N_5  and  C_7
REMARK    4  A    between atoms: C_7  and  C_8
REMARK    5  A    between atoms: N_18  and  C_19
REMARK    6  A    between atoms: C_19  and  C_20
REMARK    7  A    between atoms: C_20  and  C_22
REMARK    8  A    between atoms: C_20  and  N_28
REMARK                            x       y       z     vdW  Elec       q    Type
REMARK                         _______ _______ _______ _____ _____    ______ ____
ROOT
ATOM      1  C   UNL     1       0.797   4.706   4.616  0.00  0.00    +0.249 C 
ATOM      2  O   UNL     1       0.938   5.896   4.825  0.00  0.00    -0.270 OA
ATOM      3  N   UNL     1       0.256   3.914   5.563  0.00  0.00    -0.312 N 
ATOM      4  H   UNL     1       0.129   2.838   5.374  0.00  0.00    +0.149 HD
ENDROOT
BRANCH   1   7
ATOM      5  C   UNL     1       3.672   3.533   3.959  0.00  0.00    +0.068 C 
ATOM      6  C   UNL     1       2.495   3.604   3.021  0.00  0.00    +0.074 A 
ATOM      7  C   UNL     1       1.219   4.130   3.328  0.00  0.00    +0.096 A 
ATOM      8  C   UNL     1       0.443   4.006   2.190  0.00  0.00    +0.140 A 
ATOM      9  N   UNL     1       1.205   3.429   1.246  0.00  0.00    -0.248 N 
ATOM     10  N   UNL     1       2.475   3.192   1.784  0.00  0.00    -0.174 NA
ATOM     11 CL   UNL     1      -1.211   4.502   2.015  0.00  0.00    -0.062 Cl
BRANCH   9  12
ATOM     12  C   UNL     1       0.780   3.107  -0.119  0.00  0.00    +0.181 C 
BRANCH  12  13
ATOM     13  C   UNL     1       0.210   1.713  -0.152  0.00  0.00    -0.008 A 
ATOM     14  C   UNL     1      -1.159   1.526  -0.139  0.00  0.00    +0.007 A 
ATOM     15  C   UNL     1      -1.683   0.246  -0.170  0.00  0.00    +0.000 A 
ATOM     16  C   UNL     1      -0.837  -0.846  -0.214  0.00  0.00    +0.001 A 
ATOM     17  C   UNL     1       0.533  -0.660  -0.227  0.00  0.00    +0.020 A 
ATOM     18  C   UNL     1       1.057   0.620  -0.196  0.00  0.00    +0.046 A 
ATOM     19 CL   UNL     1       2.777   0.855  -0.212  0.00  0.00    -0.083 Cl
ENDBRANCH  12  13
ENDBRANCH   9  12
ENDBRANCH   1   7
BRANCH   3  20
ATOM     20  C   UNL     1      -0.164   4.487   6.845  0.00  0.00    +0.094 C 
BRANCH  20  21
ATOM     21  C   UNL     1      -0.585   3.363   7.793  0.00  0.00    -0.020 C 
BRANCH  21  22
ATOM     22  C   UNL     1      -1.093   3.956   9.082  0.00  0.00    -0.059 A 
ATOM     23  C   UNL     1      -0.203   4.496   9.992  0.00  0.00    +0.002 A 
ATOM     24  C   UNL     1      -0.669   5.044  11.172  0.00  0.00    +0.000 A 
ATOM     25  C   UNL     1      -2.024   5.043  11.447  0.00  0.00    +0.000 A 
ATOM     26  C   UNL     1      -2.913   4.499  10.539  0.00  0.00    +0.000 A 
ATOM     27  C   UNL     1      -2.447   3.955   9.357  0.00  0.00    +0.002 A 
ENDBRANCH  21  22
BRANCH  21  28
ATOM     28  N   UNL     1       0.571   2.500   8.072  0.00  0.00    +0.385 N 
ATOM     29  C   UNL     1       0.285   1.576   9.200  0.00  0.00    -0.078 C 
ATOM     30  C   UNL     1       1.330   0.448   9.008  0.00  0.00    -0.020 C 
ATOM     31  C   UNL     1       1.397   0.297   7.471  0.00  0.00    -0.020 C 
ATOM     32  C   UNL     1       0.880   1.636   6.912  0.00  0.00    -0.078 C 
ATOM     33  H   UNL     1       1.404   3.180   8.302  0.00  0.00    -0.081 HD
ENDBRANCH  21  28
ENDBRANCH  20  21
ENDBRANCH   3  20
TORSDOF 7
