REMARK  Name = ZINC15300520
REMARK  8 active torsions:
REMARK  status: ('A' for Active; 'I' for Inactive)
REMARK    1  A    between atoms: C_1  and  C_2
REMARK    2  A    between atoms: C_2  and  C_3
REMARK    3  A    between atoms: C_3  and  N_54
REMARK    4  A    between atoms: C_4  and  C_5
REMARK    5  A    between atoms: C_4  and  N_54
REMARK    6  A    between atoms: C_11  and  C_12
REMARK    7  A    between atoms: C_11  and  N_54
REMARK    8  A    between atoms: C_25  and  C_27
REMARK                            x       y       z     vdW  Elec       q    Type
REMARK                         _______ _______ _______ _____ _____    ______ ____
ROOT
ATOM      1  C   UNL     1      -0.656  -0.512   4.622  0.00  0.00    +0.204 C 
ATOM      2  O   UNL     1      -1.482  -0.850   3.801  0.00  0.00    -0.277 OA
ATOM      3  N   UNL     1      -0.191  -1.404   5.518  0.00  0.00    -0.268 N 
ATOM      4  C   UNL     1       0.763  -1.027   6.473  0.00  0.00    +0.058 A 
ATOM      5  C   UNL     1       2.075  -0.782   6.102  0.00  0.00    +0.025 A 
ATOM      6  C   UNL     1       3.008  -0.433   7.061  0.00  0.00    +0.002 A 
ATOM      7  C   UNL     1       2.637  -0.329   8.389  0.00  0.00    +0.002 A 
ATOM      8  C   UNL     1       1.327  -0.563   8.767  0.00  0.00    +0.025 A 
ATOM      9  C   UNL     1       0.385  -0.902   7.810  0.00  0.00    +0.055 A 
ATOM     10  N   UNL     1      -0.958  -1.090   8.160  0.00  0.00    -0.284 N 
ATOM     11  C   UNL     1      -1.633  -2.176   7.727  0.00  0.00    +0.219 C 
ATOM     12  O   UNL     1      -2.817  -2.285   7.967  0.00  0.00    -0.275 OA
ATOM     13  C   UNL     1      -0.926  -3.253   6.947  0.00  0.00    +0.118 C 
ATOM     14  C   UNL     1      -0.679  -2.785   5.517  0.00  0.00    +0.087 C 
ATOM     15  C   UNL     1       0.364  -3.692   4.863  0.00  0.00    +0.029 C 
ATOM     16  H   UNL     1      -1.406  -0.434   8.717  0.00  0.00    +0.155 HD
ENDROOT
BRANCH   1  17
ATOM     17  C   UNL     1      -0.148   0.907   4.639  0.00  0.00    +0.020 C 
BRANCH  17  18
ATOM     18  N   UNL     1      -0.832   1.671   3.574  0.00  0.00    +0.388 N 
ATOM     19  H   UNL     1      -1.846   1.542   3.669  0.00  0.00    -0.081 HD
BRANCH  18  20
ATOM     20  C   UNL     1      -0.407   1.178   2.247  0.00  0.00    -0.078 C 
BRANCH  20  22
ATOM     21  C   UNL     1      -1.043   1.093  -0.168  0.00  0.00    +0.002 C 
ATOM     22  C   UNL     1      -1.377   1.712   1.191  0.00  0.00    -0.022 C 
ENDBRANCH  20  22
ENDBRANCH  18  20
BRANCH  18  23
ATOM     23  C   UNL     1      -0.517   3.110   3.703  0.00  0.00    -0.042 C 
BRANCH  23  24
ATOM     24  C   UNL     1      -1.264   3.664   4.889  0.00  0.00    -0.064 A 
ATOM     25  C   UNL     1      -2.576   4.076   4.749  0.00  0.00    +0.002 A 
ATOM     26  C   UNL     1      -3.263   4.580   5.837  0.00  0.00    +0.000 A 
ATOM     27  C   UNL     1      -2.634   4.681   7.064  0.00  0.00    +0.000 A 
ATOM     28  C   UNL     1      -1.321   4.274   7.204  0.00  0.00    +0.000 A 
ATOM     29  C   UNL     1      -0.636   3.766   6.116  0.00  0.00    +0.002 A 
ENDBRANCH  23  24
ENDBRANCH  18  23
ENDBRANCH  17  18
ENDBRANCH   1  17
TORSDOF 6
