REMARK  Name = ZINC39729557
REMARK  10 active torsions:
REMARK  status: ('A' for Active; 'I' for Inactive)
REMARK    1  A    between atoms: C_1  and  C_2
REMARK    2  A    between atoms: C_2  and  C_3
REMARK    3  A    between atoms: C_6  and  O_9
REMARK    4  A    between atoms: O_9  and  C_10
REMARK    5  A    between atoms: C_14  and  C_16
REMARK    6  A    between atoms: C_19  and  O_23
REMARK    7  A    between atoms: C_21  and  O_22
REMARK    8  A    between atoms: O_23  and  C_24
REMARK    9  A    between atoms: C_24  and  C_25
REMARK   10  A    between atoms: N_28  and  C_30
REMARK                            x       y       z     vdW  Elec       q    Type
REMARK                         _______ _______ _______ _____ _____    ______ ____
ROOT
ATOM      1  C   UNL     1       4.342  -3.886  -6.322  0.00  0.00    +0.025 A 
ATOM      2  C   UNL     1       4.933  -5.050  -5.867  0.00  0.00    +0.013 A 
ATOM      3  C   UNL     1       4.500  -6.276  -6.335  0.00  0.00    +0.046 A 
ATOM      4  C   UNL     1       3.471  -6.342  -7.264  0.00  0.00    +0.124 A 
ATOM      5  C   UNL     1       2.877  -5.176  -7.722  0.00  0.00    +0.091 A 
ATOM      6  C   UNL     1       3.309  -3.947  -7.247  0.00  0.00    +0.126 A 
ENDROOT
BRANCH   1  11
ATOM      7  C   UNL     1       3.962  -2.088  -4.643  0.00  0.00    +0.153 C 
ATOM      8  C   UNL     1       4.835  -2.014  -3.618  0.00  0.00    +0.176 C 
ATOM      9  N   UNL     1       6.065  -2.357  -4.018  0.00  0.00    -0.182 NA
ATOM     10  N   UNL     1       6.156  -2.666  -5.209  0.00  0.00    -0.294 N 
ATOM     11  C   UNL     1       4.816  -2.551  -5.810  0.00  0.00    +0.199 C 
ATOM     12  H   UNL     1       6.966  -2.940  -5.667  0.00  0.00    +0.184 HD
BRANCH   7  13
ATOM     13  O   UNL     1       2.638  -1.820  -4.632  0.00  0.00    -0.456 OA
BRANCH  13  17
ATOM     14  C   UNL     1       1.302   1.429  -6.794  0.00  0.00    -0.047 A 
ATOM     15  C   UNL     1       2.659   1.184  -6.683  0.00  0.00    +0.007 A 
ATOM     16  C   UNL     1       3.109   0.097  -5.960  0.00  0.00    +0.046 A 
ATOM     17  C   UNL     1       2.198  -0.750  -5.344  0.00  0.00    +0.128 A 
ATOM     18  C   UNL     1       0.838  -0.502  -5.457  0.00  0.00    +0.046 A 
ATOM     19  C   UNL     1       0.393   0.589  -6.177  0.00  0.00    +0.007 A 
BRANCH  14  21
ATOM     20  C   UNL     1       0.705   3.832  -6.662  0.00  0.00    +0.009 C 
ATOM     21  C   UNL     1       0.814   2.615  -7.584  0.00  0.00    +0.032 C 
ENDBRANCH  14  21
ENDBRANCH  13  17
ENDBRANCH   7  13
ENDBRANCH   1  11
BRANCH   6  22
ATOM     22  O   UNL     1       2.725  -2.803  -7.690  0.00  0.00    -0.506 OA
ATOM     23  H   UNL     1       3.143  -2.427  -8.477  0.00  0.00    +0.292 HD
ENDBRANCH   6  22
BRANCH   4  24
ATOM     24  O   UNL     1       3.046  -7.548  -7.724  0.00  0.00    -0.487 OA
BRANCH  24  25
ATOM     25  C   UNL     1       3.704  -8.707  -7.208  0.00  0.00    +0.267 C 
BRANCH  25  26
ATOM     26  C   UNL     1       3.104  -9.942  -7.828  0.00  0.00    +0.027 A 
ATOM     27  C   UNL     1       2.017 -10.668  -7.329  0.00  0.00    +0.141 A 
ATOM     28  N   UNL     1       1.788 -11.672  -8.138  0.00  0.00    -0.174 NA
ATOM     29  N   UNL     1       2.724 -11.617  -9.179  0.00  0.00    -0.239 N 
ATOM     30  C   UNL     1       3.517 -10.542  -8.969  0.00  0.00    +0.121 A 
BRANCH  29  31
ATOM     31  C   UNL     1       2.818 -12.515 -10.252  0.00  0.00    +0.065 A 
ATOM     32  C   UNL     1       3.803 -12.345 -11.216  0.00  0.00    +0.028 A 
ATOM     33  C   UNL     1       3.893 -13.232 -12.271  0.00  0.00    +0.002 A 
ATOM     34  C   UNL     1       3.005 -14.287 -12.368  0.00  0.00    +0.000 A 
ATOM     35  C   UNL     1       2.023 -14.458 -11.410  0.00  0.00    +0.002 A 
ATOM     36  C   UNL     1       1.931 -13.578 -10.349  0.00  0.00    +0.028 A 
ENDBRANCH  29  31
ENDBRANCH  25  26
ENDBRANCH  24  25
ENDBRANCH   4  24
TORSDOF 9
