REMARK  Name = ZINC13297898
REMARK  11 active torsions:
REMARK  status: ('A' for Active; 'I' for Inactive)
REMARK    1  A    between atoms: C_1  and  C_2
REMARK    2  A    between atoms: C_4  and  C_37
REMARK    3  A    between atoms: C_5  and  N_9
REMARK    4  A    between atoms: C_6  and  C_8
REMARK    5  A    between atoms: C_10  and  C_12
REMARK    6  A    between atoms: C_12  and  S_13
REMARK    7  A    between atoms: S_13  and  C_14
REMARK    8  A    between atoms: C_15  and  C_35
REMARK    9  A    between atoms: C_16  and  C_28
REMARK   10  A    between atoms: C_22  and  C_26
REMARK   11  A    between atoms: C_22  and  C_27
REMARK                            x       y       z     vdW  Elec       q    Type
REMARK                         _______ _______ _______ _____ _____    ______ ____
ROOT
ATOM      1  C   UNL     1      -0.738  -8.847   2.096  0.00  0.00    +0.080 C 
ATOM      2  C   UNL     1      -0.740  -9.721   3.138  0.00  0.00    +0.069 C 
ATOM      3  C   UNL     1      -1.017 -11.180   2.925  0.00  0.00    +0.097 C 
ATOM      4  C   UNL     1      -0.843 -11.560   1.476  0.00  0.00    +0.024 C 
ATOM      5  C   UNL     1      -0.841 -10.620   0.507  0.00  0.00    +0.016 C 
ATOM      6  N   UNL     1      -0.990  -9.295   0.820  0.00  0.00    -0.311 N 
ATOM      7  C   UNL     1      -0.687 -11.001  -0.945  0.00  0.00    +0.058 C 
ATOM      8  C   UNL     1       0.177 -12.259  -1.056  0.00  0.00    -0.023 C 
ATOM      9  C   UNL     1      -0.491 -13.381  -0.254  0.00  0.00    +0.086 C 
ATOM     10  C   UNL     1      -0.681 -12.921   1.165  0.00  0.00    +0.162 C 
ATOM     11  O   UNL     1      -0.693 -13.743   2.061  0.00  0.00    -0.292 OA
ATOM     12  C   UNL     1       1.569 -11.979  -0.486  0.00  0.00    +0.011 C 
ATOM     13  C   UNL     1       0.293 -12.675  -2.524  0.00  0.00    +0.011 C 
ATOM     14  H   UNL     1      -1.271  -8.666   0.137  0.00  0.00    +0.152 HD
ENDROOT
BRANCH   3  15
ATOM     15  C   UNL     1      -2.432 -11.481   3.347  0.00  0.00    -0.035 A 
ATOM     16  C   UNL     1      -3.489 -10.845   2.724  0.00  0.00    +0.006 A 
ATOM     17  C   UNL     1      -4.787 -11.121   3.111  0.00  0.00    +0.020 A 
ATOM     18  C   UNL     1      -5.028 -12.034   4.122  0.00  0.00    +0.041 A 
ATOM     19  C   UNL     1      -3.969 -12.670   4.745  0.00  0.00    +0.020 A 
ATOM     20  C   UNL     1      -2.672 -12.398   4.354  0.00  0.00    +0.006 A 
ATOM     21 CL   UNL     1      -6.658 -12.381   4.609  0.00  0.00    -0.084 Cl
ENDBRANCH   3  15
BRANCH   2  22
ATOM     22  C   UNL     1      -0.474  -9.240   4.461  0.00  0.00    +0.098 C 
ATOM     23  N   UNL     1      -0.263  -8.859   5.510  0.00  0.00    -0.191 NA
ENDBRANCH   2  22
BRANCH   1  24
ATOM     24  S   UNL     1      -0.418  -7.138   2.382  0.00  0.00    -0.100 S 
BRANCH  24  25
ATOM     25  C   UNL     1      -0.526  -6.390   0.733  0.00  0.00    +0.171 C 
BRANCH  25  27
ATOM     26  N   UNL     1      -0.299  -4.141  -0.272  0.00  0.00    -0.284 N 
ATOM     27  C   UNL     1      -0.270  -4.908   0.836  0.00  0.00    +0.227 C 
ATOM     28  O   UNL     1      -0.036  -4.407   1.915  0.00  0.00    -0.275 OA
ATOM     29  H   UNL     1      -0.421  -4.551  -1.143  0.00  0.00    +0.155 HD
BRANCH  26  34
ATOM     30  C   UNL     1       0.286   1.486   0.157  0.00  0.00    +0.044 C 
ATOM     31  C   UNL     1       0.130  -0.009   0.043  0.00  0.00    -0.050 A 
ATOM     32  C   UNL     1       1.121  -0.844   0.526  0.00  0.00    +0.008 A 
ATOM     33  C   UNL     1       0.982  -2.215   0.423  0.00  0.00    -0.029 A 
ATOM     34  C   UNL     1      -0.155  -2.753  -0.166  0.00  0.00    +0.039 A 
ATOM     35  C   UNL     1      -1.148  -1.911  -0.649  0.00  0.00    -0.029 A 
ATOM     36  C   UNL     1      -1.005  -0.542  -0.539  0.00  0.00    +0.008 A 
ATOM     37  C   UNL     1      -2.383  -2.491  -1.289  0.00  0.00    +0.045 C 
ATOM     38  C   UNL     1       2.062  -3.124   0.949  0.00  0.00    +0.045 C 
ENDBRANCH  26  34
ENDBRANCH  25  27
ENDBRANCH  24  25
ENDBRANCH   1  24
TORSDOF 6
