REMARK  Name = ZINC35775788
REMARK  13 active torsions:
REMARK  status: ('A' for Active; 'I' for Inactive)
REMARK    1  A    between atoms: C_1  and  C_2
REMARK    2  A    between atoms: C_6  and  C_7
REMARK    3  A    between atoms: C_7  and  N_8
REMARK    4  A    between atoms: N_8  and  C_9
REMARK    5  A    between atoms: C_9  and  C_10
REMARK    6  A    between atoms: C_16  and  C_18
REMARK    7  A    between atoms: C_18  and  N_19
REMARK    8  A    between atoms: N_19  and  C_20
REMARK    9  A    between atoms: N_19  and  S_24
REMARK   10  A    between atoms: C_20  and  C_21
REMARK   11  A    between atoms: C_21  and  C_22
REMARK   12  A    between atoms: C_21  and  C_23
REMARK   13  A    between atoms: S_24  and  C_27
REMARK                            x       y       z     vdW  Elec       q    Type
REMARK                         _______ _______ _______ _____ _____    ______ ____
ROOT
ATOM      1  C   UNL     1      -1.916   2.059   1.979  0.00  0.00    +0.205 C 
ENDROOT
BRANCH   1   3
ATOM      2  N   UNL     1      -1.270   0.080   3.315  0.00  0.00    -0.291 N 
ATOM      3  C   UNL     1      -2.203   1.006   3.017  0.00  0.00    +0.232 C 
ATOM      4  O   UNL     1      -3.275   0.990   3.585  0.00  0.00    -0.274 OA
BRANCH   2   5
ATOM      5  C   UNL     1      -0.017   0.033   2.556  0.00  0.00    +0.150 C 
BRANCH   5  11
ATOM      6  C   UNL     1       0.279  -3.019   2.376  0.00  0.00    +0.044 C 
ATOM      7  C   UNL     1      -0.089  -2.162   1.193  0.00  0.00    -0.039 A 
ATOM      8  C   UNL     1      -0.318  -2.735  -0.044  0.00  0.00    +0.011 A 
ATOM      9  C   UNL     1      -0.647  -1.935  -1.088  0.00  0.00    +0.046 A 
ATOM     10  S   UNL     1      -0.642  -0.318  -0.331  0.00  0.00    -0.100 S 
ATOM     11  C   UNL     1      -0.207  -0.818   1.327  0.00  0.00    +0.010 A 
ENDBRANCH   5  11
ENDBRANCH   2   5
BRANCH   2  12
ATOM     12  C   UNL     1      -1.507  -0.878   4.397  0.00  0.00    +0.143 C 
BRANCH  12  13
ATOM     13  C   UNL     1      -0.994  -0.308   5.694  0.00  0.00    -0.030 A 
ATOM     14  C   UNL     1       0.313  -0.539   6.081  0.00  0.00    +0.005 A 
ATOM     15  C   UNL     1       0.784  -0.016   7.271  0.00  0.00    +0.000 A 
ATOM     16  C   UNL     1      -0.051   0.738   8.074  0.00  0.00    +0.000 A 
ATOM     17  C   UNL     1      -1.358   0.969   7.686  0.00  0.00    +0.000 A 
ATOM     18  C   UNL     1      -1.828   0.450   6.495  0.00  0.00    +0.005 A 
ENDBRANCH  12  13
ENDBRANCH   2  12
ENDBRANCH   1   3
BRANCH   1  19
ATOM     19  N   UNL     1      -3.010   3.033   1.955  0.00  0.00    -0.168 NA
BRANCH  19  20
ATOM     20  S   UNL     1      -4.096   3.029   0.706  0.00  0.00    +0.062 S 
ATOM     21  O   UNL     1      -4.645   4.338   0.640  0.00  0.00    -0.153 OA
ATOM     22  O   UNL     1      -3.441   2.421  -0.400  0.00  0.00    -0.153 OA
BRANCH  20  23
ATOM     23  C   UNL     1      -5.413   1.952   1.164  0.00  0.00    +0.113 A 
ATOM     24  C   UNL     1      -6.668   2.447   1.349  0.00  0.00    +0.029 A 
ATOM     25  C   UNL     1      -7.722   1.611   1.712  0.00  0.00    +0.003 A 
ATOM     26  C   UNL     1      -7.528   0.276   1.892  0.00  0.00    +0.008 A 
ATOM     27  C   UNL     1      -6.247  -0.271   1.710  0.00  0.00    -0.016 A 
ATOM     28  C   UNL     1      -5.175   0.578   1.335  0.00  0.00    +0.008 A 
ATOM     29  C   UNL     1      -3.895   0.030   1.147  0.00  0.00    +0.010 A 
ATOM     30  C   UNL     1      -3.702  -1.306   1.322  0.00  0.00    +0.001 A 
ATOM     31  C   UNL     1      -4.757  -2.142   1.685  0.00  0.00    +0.001 A 
ATOM     32  C   UNL     1      -6.007  -1.645   1.888  0.00  0.00    +0.008 A 
ENDBRANCH  20  23
ENDBRANCH  19  20
BRANCH  19  33
ATOM     33  C   UNL     1      -3.142   4.011   3.038  0.00  0.00    +0.113 C 
BRANCH  33  34
ATOM     34  C   UNL     1      -2.297   5.245   2.717  0.00  0.00    -0.001 C 
ATOM     35  C   UNL     1      -2.502   6.301   3.805  0.00  0.00    +0.008 C 
ATOM     36  C   UNL     1      -0.819   4.851   2.661  0.00  0.00    +0.008 C 
ENDBRANCH  33  34
ENDBRANCH  19  33
ENDBRANCH   1  19
TORSDOF 10
