REMARK  Name = ZINC39127612
REMARK  11 active torsions:
REMARK  status: ('A' for Active; 'I' for Inactive)
REMARK    1  A    between atoms: C_1  and  N_2
REMARK    2  A    between atoms: N_2  and  C_3
REMARK    3  A    between atoms: N_2  and  C_4
REMARK    4  A    between atoms: C_4  and  C_26
REMARK    5  A    between atoms: C_5  and  C_16
REMARK    6  A    between atoms: C_8  and  O_13
REMARK    7  A    between atoms: C_8  and  O_14
REMARK    8  A    between atoms: O_14  and  C_15
REMARK    9  A    between atoms: C_16  and  C_18
REMARK   10  A    between atoms: C_21  and  O_24
REMARK   11  A    between atoms: O_24  and  C_25
REMARK                            x       y       z     vdW  Elec       q    Type
REMARK                         _______ _______ _______ _____ _____    ______ ____
ROOT
ATOM      1  C   UNL     1      -0.419  -0.725   0.119  0.00  0.00    +0.224 C 
ATOM      2  C   UNL     1      -0.830  -2.179   0.189  0.00  0.00    +0.070 C 
ATOM      3  C   UNL     1      -1.932  -2.304  -0.567  0.00  0.00    +0.011 C 
ATOM      4  C   UNL     1      -2.745  -3.542  -0.871  0.00  0.00    +0.104 C 
ATOM      5  C   UNL     1      -3.451  -3.296  -2.214  0.00  0.00    +0.174 C 
ATOM      6  C   UNL     1      -4.262  -2.004  -2.157  0.00  0.00    +0.096 C 
ATOM      7  C   UNL     1      -3.373  -0.814  -1.892  0.00  0.00    +0.024 C 
ATOM      8  C   UNL     1      -2.281  -0.986  -1.127  0.00  0.00    +0.124 C 
ATOM      9  O   UNL     1      -1.367  -0.074  -0.737  0.00  0.00    -0.463 OA
ENDROOT
BRANCH   1  10
ATOM     10  C   UNL     1      -0.459  -0.109   1.494  0.00  0.00    +0.061 A 
ATOM     11  C   UNL     1      -0.576  -0.756   2.662  0.00  0.00    +0.205 A 
ATOM     12  O   UNL     1      -0.574   0.122   3.680  0.00  0.00    -0.462 OA
ATOM     13  C   UNL     1      -0.455   1.386   3.225  0.00  0.00    +0.135 A 
ATOM     14  C   UNL     1      -0.369   1.318   1.824  0.00  0.00    +0.029 A 
ATOM     15  C   UNL     1      -0.233   2.485   1.074  0.00  0.00    +0.012 A 
ATOM     16  C   UNL     1      -0.179   3.704   1.714  0.00  0.00    +0.001 A 
ATOM     17  C   UNL     1      -0.260   3.771   3.097  0.00  0.00    +0.004 A 
ATOM     18  C   UNL     1      -0.403   2.625   3.850  0.00  0.00    +0.047 A 
ENDBRANCH   1  10
BRANCH   1  20
ATOM     19  C   UNL     1       0.973   0.403  -1.509  0.00  0.00    +0.109 C 
ATOM     20  N   UNL     1       0.932  -0.609  -0.445  0.00  0.00    -0.263 NA
ATOM     21  C   UNL     1       1.917  -0.312   0.603  0.00  0.00    +0.109 C 
ENDBRANCH   1  20
BRANCH   5  22
ATOM     22  O   UNL     1      -2.472  -3.195  -3.251  0.00  0.00    -0.364 OA
ATOM     23  H   UNL     1      -2.845  -3.040  -4.129  0.00  0.00    +0.213 HD
ENDBRANCH   5  22
BRANCH   5  24
ATOM     24  O   UNL     1      -4.324  -4.392  -2.497  0.00  0.00    -0.351 OA
ATOM     25  C   UNL     1      -4.948  -4.321  -3.781  0.00  0.00    +0.197 C 
ENDBRANCH   5  24
BRANCH   2  26
ATOM     26  C   UNL     1      -0.156  -3.242   0.934  0.00  0.00    +0.195 C 
ATOM     27  O   UNL     1      -0.699  -3.745   1.901  0.00  0.00    -0.287 OA
BRANCH  26  28
ATOM     28  C   UNL     1       1.181  -3.705   0.514  0.00  0.00    +0.022 A 
ATOM     29  C   UNL     1       1.761  -3.204  -0.655  0.00  0.00    +0.015 A 
ATOM     30  C   UNL     1       3.009  -3.638  -1.044  0.00  0.00    +0.046 A 
ATOM     31  C   UNL     1       3.692  -4.573  -0.275  0.00  0.00    +0.120 A 
ATOM     32  C   UNL     1       3.119  -5.074   0.888  0.00  0.00    +0.046 A 
ATOM     33  C   UNL     1       1.874  -4.641   1.287  0.00  0.00    +0.015 A 
BRANCH  31  34
ATOM     34  O   UNL     1       4.921  -4.999  -0.661  0.00  0.00    -0.495 OA
ATOM     35  C   UNL     1       5.567  -5.961   0.175  0.00  0.00    +0.277 C 
ENDBRANCH  31  34
ENDBRANCH  26  28
ENDBRANCH   2  26
TORSDOF 7
