REMARK  Name = ZINC06193697
REMARK  10 active torsions:
REMARK  status: ('A' for Active; 'I' for Inactive)
REMARK    1  A    between atoms: C_1  and  C_2
REMARK    2  A    between atoms: C_4  and  C_40
REMARK    3  A    between atoms: C_7  and  C_14
REMARK    4  A    between atoms: C_14  and  C_16
REMARK    5  A    between atoms: C_14  and  N_72
REMARK    6  A    between atoms: N_20  and  C_21
REMARK    7  A    between atoms: C_26  and  C_27
REMARK    8  A    between atoms: C_26  and  N_72
REMARK    9  A    between atoms: C_33  and  C_34
REMARK   10  A    between atoms: C_33  and  N_72
REMARK                            x       y       z     vdW  Elec       q    Type
REMARK                         _______ _______ _______ _____ _____    ______ ____
ROOT
ATOM      1  C   UNL     1      -0.184   1.860  -0.265  0.00  0.00    +0.040 C 
ENDROOT
BRANCH   1   8
ATOM      2  C   UNL     1      -3.039  -5.083  -2.962  0.00  0.00    +0.044 C 
ATOM      3  C   UNL     1      -2.595  -3.832  -2.248  0.00  0.00    -0.048 A 
ATOM      4  C   UNL     1      -2.919  -3.653  -0.910  0.00  0.00    +0.007 A 
ATOM      5  C   UNL     1      -2.526  -2.527  -0.244  0.00  0.00    -0.041 A 
ATOM      6  C   UNL     1      -1.792  -1.544  -0.916  0.00  0.00    +0.002 A 
ATOM      7  C   UNL     1      -1.352  -0.327  -0.233  0.00  0.00    +0.018 A 
ATOM      8  C   UNL     1      -0.648   0.594  -0.937  0.00  0.00    +0.011 A 
ATOM      9  C   UNL     1      -0.343   0.367  -2.296  0.00  0.00    +0.251 A 
ATOM     10  O   UNL     1       0.294   1.205  -2.910  0.00  0.00    -0.268 OA
ATOM     11  N   UNL     1      -0.739  -0.750  -2.932  0.00  0.00    -0.322 N 
ATOM     12  H   UNL     1      -0.512  -0.874  -3.867  0.00  0.00    +0.169 HD
ATOM     13  C   UNL     1      -1.462  -1.722  -2.273  0.00  0.00    +0.050 A 
ATOM     14  C   UNL     1      -1.873  -2.877  -2.930  0.00  0.00    +0.029 A 
ATOM     15  C   UNL     1      -2.884  -2.343   1.208  0.00  0.00    +0.044 C 
ENDBRANCH   1   8
BRANCH   1  16
ATOM     16  C   UNL     1      -0.912   3.039  -0.857  0.00  0.00    +0.143 A 
ATOM     17  N   UNL     1      -0.691   3.590  -2.025  0.00  0.00    -0.115 NA
ATOM     18  N   UNL     1      -1.518   4.567  -2.168  0.00  0.00    -0.023 NA
ATOM     19  N   UNL     1      -2.256   4.660  -1.117  0.00  0.00    -0.044 NA
ATOM     20  N   UNL     1      -1.913   3.735  -0.285  0.00  0.00    -0.227 N 
BRANCH  20  21
ATOM     21  C   UNL     1      -2.502   3.488   1.033  0.00  0.00    +0.111 C 
ATOM     22  C   UNL     1      -4.017   3.229   0.895  0.00  0.00    +0.027 C 
ATOM     23  C   UNL     1      -4.634   3.912   2.142  0.00  0.00    +0.002 C 
ATOM     24  C   UNL     1      -3.775   5.192   2.291  0.00  0.00    +0.002 C 
ATOM     25  C   UNL     1      -2.348   4.735   1.921  0.00  0.00    +0.027 C 
ENDBRANCH  20  21
ENDBRANCH   1  16
BRANCH   1  26
ATOM     26  N   UNL     1       1.266   2.020  -0.499  0.00  0.00    +0.395 N 
ATOM     27  H   UNL     1       1.456   1.909  -1.502  0.00  0.00    -0.079 HD
BRANCH  26  28
ATOM     28  C   UNL     1       1.701   3.367  -0.074  0.00  0.00    -0.041 C 
BRANCH  28  29
ATOM     29  C   UNL     1       3.054   3.651  -0.676  0.00  0.00    -0.064 A 
ATOM     30  C   UNL     1       4.199   3.441   0.069  0.00  0.00    +0.002 A 
ATOM     31  C   UNL     1       5.440   3.696  -0.484  0.00  0.00    +0.000 A 
ATOM     32  C   UNL     1       5.535   4.171  -1.779  0.00  0.00    +0.000 A 
ATOM     33  C   UNL     1       4.389   4.387  -2.522  0.00  0.00    +0.000 A 
ATOM     34  C   UNL     1       3.148   4.126  -1.970  0.00  0.00    +0.002 A 
ENDBRANCH  28  29
ENDBRANCH  26  28
BRANCH  26  35
ATOM     35  C   UNL     1       2.016   0.988   0.247  0.00  0.00    -0.040 C 
BRANCH  35  36
ATOM     36  C   UNL     1       1.641   1.015   1.707  0.00  0.00    -0.046 A 
ATOM     37  C   UNL     1       2.294   1.867   2.584  0.00  0.00    +0.005 A 
ATOM     38  C   UNL     1       1.913   1.862   3.917  0.00  0.00    +0.020 A 
ATOM     39  C   UNL     1       0.908   1.006   4.326  0.00  0.00    +0.111 A 
ATOM     40  N   UNL     1       0.312   0.205   3.465  0.00  0.00    -0.263 NA
ATOM     41  C   UNL     1       0.645   0.187   2.189  0.00  0.00    +0.112 A 
ENDBRANCH  35  36
ENDBRANCH  26  35
ENDBRANCH   1  26
TORSDOF 8
