REMARK  Name = ZINC48311509
REMARK  7 active torsions:
REMARK  status: ('A' for Active; 'I' for Inactive)
REMARK    1  A    between atoms: C_1  and  C_2
REMARK    2  A    between atoms: C_2  and  C_9
REMARK    3  A    between atoms: C_11  and  S_17
REMARK    4  A    between atoms: C_14  and  O_15
REMARK    5  A    between atoms: O_15  and  C_16
REMARK    6  A    between atoms: S_17  and  N_20
REMARK    7  A    between atoms: C_28  and  C_30
REMARK                            x       y       z     vdW  Elec       q    Type
REMARK                         _______ _______ _______ _____ _____    ______ ____
ROOT
ATOM      1  C   UNL     1       0.656  -0.517  -1.257  0.00  0.00    +0.028 A 
ATOM      2  C   UNL     1       1.777  -1.321  -1.173  0.00  0.00    +0.038 A 
ATOM      3  C   UNL     1       2.379  -1.792  -2.325  0.00  0.00    +0.109 A 
ATOM      4  C   UNL     1       1.862  -1.459  -3.564  0.00  0.00    +0.032 A 
ATOM      5  C   UNL     1       0.742  -0.656  -3.653  0.00  0.00    +0.048 A 
ATOM      6  C   UNL     1       0.132  -0.187  -2.498  0.00  0.00    +0.126 A 
ENDROOT
BRANCH   1   8
ATOM      7  C   UNL     1      -0.020   1.526   0.007  0.00  0.00    +0.047 C 
ATOM      8  C   UNL     1       0.001  -0.004  -0.001  0.00  0.00    +0.138 C 
ATOM      9  C   UNL     1      -1.404  -0.557   0.136  0.00  0.00    +0.248 C 
ATOM     10  O   UNL     1      -2.333  -0.392  -0.625  0.00  0.00    -0.273 OA
ATOM     11  N   UNL     1      -1.405  -1.271   1.279  0.00  0.00    -0.238 N 
ATOM     12  C   UNL     1      -0.208  -1.247   1.877  0.00  0.00    +0.307 C 
ATOM     13  O   UNL     1       0.037  -1.818   2.921  0.00  0.00    -0.252 OA
ATOM     14  N   UNL     1       0.693  -0.519   1.193  0.00  0.00    -0.281 N 
ATOM     15  H   UNL     1      -2.177  -1.744   1.625  0.00  0.00    +0.159 HD
ATOM     16  H   UNL     1       1.619  -0.364   1.438  0.00  0.00    +0.152 HD
ENDBRANCH   1   8
BRANCH   3  17
ATOM     17  S   UNL     1       3.808  -2.816  -2.215  0.00  0.00    +0.075 S 
ATOM     18  O   UNL     1       4.503  -2.678  -3.446  0.00  0.00    -0.150 OA
ATOM     19  O   UNL     1       4.415  -2.534  -0.961  0.00  0.00    -0.150 OA
BRANCH  17  20
ATOM     20  N   UNL     1       3.282  -4.385  -2.143  0.00  0.00    -0.203 N 
ATOM     21  C   UNL     1       3.099  -5.052  -0.846  0.00  0.00    +0.132 C 
ATOM     22  C   UNL     1       3.706  -6.457  -0.953  0.00  0.00    +0.025 C 
ATOM     23  C   UNL     1       2.930  -7.252  -2.003  0.00  0.00    +0.038 C 
ATOM     24  C   UNL     1       2.832  -6.472  -3.288  0.00  0.00    -0.024 A 
ATOM     25  C   UNL     1       2.998  -5.094  -3.315  0.00  0.00    +0.054 A 
ATOM     26  C   UNL     1       2.890  -4.402  -4.516  0.00  0.00    +0.025 A 
ATOM     27  C   UNL     1       2.614  -5.085  -5.684  0.00  0.00    +0.014 A 
ATOM     28  C   UNL     1       2.445  -6.457  -5.658  0.00  0.00    +0.055 A 
ATOM     29  C   UNL     1       2.562  -7.150  -4.464  0.00  0.00    +0.018 A 
BRANCH  28  30
ATOM     30  C   UNL     1       2.145  -7.202  -6.933  0.00  0.00    +0.417 C 
ATOM     31  F   UNL     1       2.088  -6.297  -7.999  0.00  0.00    -0.166 F 
ATOM     32  F   UNL     1       3.154  -8.141  -7.172  0.00  0.00    -0.166 F 
ATOM     33  F   UNL     1       0.916  -7.858  -6.811  0.00  0.00    -0.166 F 
ENDBRANCH  28  30
ENDBRANCH  17  20
ENDBRANCH   3  17
BRANCH   6  34
ATOM     34  O   UNL     1      -0.973   0.599  -2.583  0.00  0.00    -0.495 OA
ATOM     35  C   UNL     1      -1.457   0.899  -3.893  0.00  0.00    +0.277 C 
ENDBRANCH   6  34
TORSDOF 5
