REMARK  Name = ZINC23192647
REMARK  8 active torsions:
REMARK  status: ('A' for Active; 'I' for Inactive)
REMARK    1  A    between atoms: C_1  and  N_2
REMARK    2  A    between atoms: N_2  and  C_3
REMARK    3  A    between atoms: N_2  and  C_4
REMARK    4  A    between atoms: C_4  and  C_6
REMARK    5  A    between atoms: C_4  and  C_28
REMARK    6  A    between atoms: C_6  and  N_7
REMARK    7  A    between atoms: C_8  and  C_10
REMARK    8  A    between atoms: C_21  and  C_23
REMARK                            x       y       z     vdW  Elec       q    Type
REMARK                         _______ _______ _______ _____ _____    ______ ____
ROOT
ATOM      1  N   UNL     1       0.322   7.606  -3.401  0.00  0.00    -0.315 N 
ATOM      2  C   UNL     1       1.215   6.647  -3.086  0.00  0.00    +0.234 C 
ATOM      3  O   UNL     1       2.380   6.936  -2.916  0.00  0.00    -0.274 OA
ATOM      4  H   UNL     1      -0.736   7.345  -3.554  0.00  0.00    +0.149 HD
ENDROOT
BRANCH   2   5
ATOM      5  C   UNL     1       0.765   5.216  -2.945  0.00  0.00    +0.167 C 
ATOM      6  C   UNL     1      -0.050   4.807  -4.171  0.00  0.00    +0.067 C 
ATOM      7  C   UNL     1      -0.771   3.508  -3.927  0.00  0.00    -0.040 A 
ATOM      8  C   UNL     1      -1.199   2.790  -5.037  0.00  0.00    +0.004 A 
ATOM      9  C   UNL     1      -1.875   1.597  -4.884  0.00  0.00    +0.000 A 
ATOM     10  C   UNL     1      -2.138   1.115  -3.616  0.00  0.00    +0.000 A 
ATOM     11  C   UNL     1      -1.711   1.823  -2.512  0.00  0.00    +0.005 A 
ATOM     12  C   UNL     1      -1.023   3.019  -2.665  0.00  0.00    -0.027 A 
ATOM     13  C   UNL     1      -0.563   3.731  -1.417  0.00  0.00    +0.144 C 
ATOM     14  N   UNL     1      -0.099   5.080  -1.761  0.00  0.00    -0.279 N 
ATOM     15  C   UNL     1      -0.451   6.151  -1.023  0.00  0.00    +0.283 C 
ATOM     16  O   UNL     1      -0.175   7.272  -1.408  0.00  0.00    -0.267 OA
BRANCH  15  17
ATOM     17  C   UNL     1      -1.164   5.966   0.245  0.00  0.00    +0.189 A 
ATOM     18  C   UNL     1      -1.665   6.959   1.036  0.00  0.00    +0.054 A 
ATOM     19  C   UNL     1      -2.265   6.333   2.140  0.00  0.00    +0.042 A 
ATOM     20  C   UNL     1      -2.105   5.001   1.976  0.00  0.00    +0.196 A 
ATOM     21  O   UNL     1      -1.446   4.784   0.831  0.00  0.00    -0.458 OA
ENDBRANCH  15  17
ENDBRANCH   2   5
BRANCH   1  22
ATOM     22  C   UNL     1       0.759   8.998  -3.537  0.00  0.00    +0.093 C 
BRANCH  22  23
ATOM     23  C   UNL     1      -0.441   9.877  -3.896  0.00  0.00    -0.020 C 
BRANCH  23  24
ATOM     24  C   UNL     1       0.028  11.285  -4.157  0.00  0.00    -0.041 A 
ATOM     25  C   UNL     1       1.316  11.513  -4.603  0.00  0.00    +0.003 A 
ATOM     26  C   UNL     1       1.746  12.805  -4.843  0.00  0.00    +0.000 A 
ATOM     27  C   UNL     1       0.887  13.869  -4.637  0.00  0.00    +0.001 A 
ATOM     28  C   UNL     1      -0.400  13.642  -4.191  0.00  0.00    +0.020 A 
ATOM     29  C   UNL     1      -0.833  12.349  -3.956  0.00  0.00    +0.043 A 
ATOM     30 CL   UNL     1      -2.454  12.063  -3.403  0.00  0.00    -0.083 Cl
ENDBRANCH  23  24
BRANCH  23  32
ATOM     31  C   UNL     1      -2.352  10.055  -5.373  0.00  0.00    -0.096 C 
ATOM     32  N   UNL     1      -1.094   9.347  -5.101  0.00  0.00    +0.382 N 
ATOM     33  C   UNL     1      -0.192   9.410  -6.259  0.00  0.00    -0.096 C 
ATOM     34  H   UNL     1      -1.334   8.289  -4.917  0.00  0.00    -0.082 HD
ENDBRANCH  23  32
ENDBRANCH  22  23
ENDBRANCH   1  22
TORSDOF 6
