REMARK  Name = ZINC59040185
REMARK  5 active torsions:
REMARK  status: ('A' for Active; 'I' for Inactive)
REMARK    1  A    between atoms: C_1  and  C_2
REMARK    2  A    between atoms: C_7  and  C_8
REMARK    3  A    between atoms: C_8  and  S_9
REMARK    4  A    between atoms: S_9  and  C_10
REMARK    5  A    between atoms: N_16  and  N_17
REMARK                            x       y       z     vdW  Elec       q    Type
REMARK                         _______ _______ _______ _____ _____    ______ ____
ROOT
ATOM      1  C   UNL     1      -1.544   0.823   4.797  0.00  0.00    +0.191 A 
ATOM      2  N   UNL     1      -2.548   1.467   5.462  0.00  0.00    -0.303 N 
ATOM      3  H   UNL     1      -3.484   1.477   5.210  0.00  0.00    +0.171 HD
ATOM      4  C   UNL     1      -2.002   2.095   6.547  0.00  0.00    +0.235 A 
ATOM      5  N   UNL     1      -0.714   1.849   6.552  0.00  0.00    -0.111 NA
ATOM      6  N   UNL     1      -0.424   1.038   5.446  0.00  0.00    -0.121 NA
ATOM      7  N   UNL     1      -2.690   2.858   7.480  0.00  0.00    -0.205 N 
ATOM      8  H   UNL     1      -3.648   2.984   7.392  0.00  0.00    +0.177 HD
ENDROOT
BRANCH   7   9
ATOM      9  N   UNL     1      -2.001   3.447   8.549  0.00  0.00    -0.189 NA
ATOM     10  C   UNL     1      -2.648   4.064   9.465  0.00  0.00    +0.037 C 
ATOM     11  C   UNL     1      -4.160   4.040   9.497  0.00  0.00    +0.052 C 
ATOM     12  C   UNL     1      -4.611   3.619  10.900  0.00  0.00    +0.006 C 
ATOM     13  C   UNL     1      -3.973   4.543  11.938  0.00  0.00    +0.001 C 
ATOM     14  C   UNL     1      -2.452   4.385  11.908  0.00  0.00    +0.006 C 
ATOM     15  C   UNL     1      -1.920   4.831  10.547  0.00  0.00    +0.052 C 
ENDBRANCH   7   9
BRANCH   1  16
ATOM     16  S   UNL     1      -1.721  -0.134   3.329  0.00  0.00    -0.081 S 
BRANCH  16  17
ATOM     17  C   UNL     1      -0.038  -0.711   2.974  0.00  0.00    +0.112 C 
BRANCH  17  24
ATOM     18  C   UNL     1       0.360   0.526   0.394  0.00  0.00    +0.044 C 
ATOM     19  C   UNL     1       0.142  -0.962   0.490  0.00  0.00    -0.046 A 
ATOM     20  C   UNL     1       0.138  -1.736  -0.655  0.00  0.00    +0.003 A 
ATOM     21  C   UNL     1      -0.062  -3.101  -0.566  0.00  0.00    +0.000 A 
ATOM     22  C   UNL     1      -0.258  -3.692   0.668  0.00  0.00    +0.000 A 
ATOM     23  C   UNL     1      -0.253  -2.918   1.813  0.00  0.00    +0.005 A 
ATOM     24  C   UNL     1      -0.049  -1.554   1.725  0.00  0.00    -0.034 A 
ENDBRANCH  17  24
ENDBRANCH  16  17
ENDBRANCH   1  16
TORSDOF 4
