REMARK  Name = ZINC21704245
REMARK  7 active torsions:
REMARK  status: ('A' for Active; 'I' for Inactive)
REMARK    1  A    between atoms: C_1  and  C_2
REMARK    2  A    between atoms: C_5  and  N_9
REMARK    3  A    between atoms: C_6  and  C_8
REMARK    4  A    between atoms: C_15  and  C_17
REMARK    5  A    between atoms: C_25  and  C_37
REMARK    6  A    between atoms: C_28  and  N_33
REMARK    7  A    between atoms: C_34  and  C_36
REMARK                            x       y       z     vdW  Elec       q    Type
REMARK                         _______ _______ _______ _____ _____    ______ ____
ROOT
ATOM      1  C   UNL     1       5.003  -2.960  -1.441  0.00  0.00    +0.078 C 
ATOM      2  C   UNL     1       3.754  -2.765  -2.305  0.00  0.00    +0.032 C 
ATOM      3  C   UNL     1       3.921  -3.537  -3.616  0.00  0.00    +0.107 C 
ATOM      4  N   UNL     1       4.121  -4.962  -3.325  0.00  0.00    -0.317 N 
ATOM      5  C   UNL     1       5.341  -5.178  -2.537  0.00  0.00    +0.107 C 
ATOM      6  C   UNL     1       5.215  -4.456  -1.193  0.00  0.00    +0.032 C 
ATOM      7  C   UNL     1       4.146  -5.710  -4.494  0.00  0.00    +0.099 A 
ATOM      8  C   UNL     1       3.058  -5.637  -5.376  0.00  0.00    +0.045 A 
ATOM      9  C   UNL     1       3.072  -6.361  -6.530  0.00  0.00    -0.038 A 
ATOM     10  C   UNL     1       4.191  -7.178  -6.795  0.00  0.00    +0.003 A 
ATOM     11  C   UNL     1       4.265  -7.953  -7.961  0.00  0.00    +0.033 A 
ATOM     12  C   UNL     1       5.374  -8.739  -8.184  0.00  0.00    +0.034 A 
ATOM     13  C   UNL     1       6.422  -8.768  -7.258  0.00  0.00    +0.025 A 
ATOM     14  C   UNL     1       6.372  -8.024  -6.121  0.00  0.00    +0.028 A 
ATOM     15  C   UNL     1       5.255  -7.212  -5.861  0.00  0.00    +0.048 A 
ATOM     16  N   UNL     1       5.188  -6.474  -4.746  0.00  0.00    -0.343 N 
ATOM     17  C   UNL     1       1.918  -6.295  -7.497  0.00  0.00    +0.044 C 
ATOM     18  H   UNL     1       6.025  -6.514  -4.034  0.00  0.00    +0.167 HD
ENDROOT
BRANCH   1  25
ATOM     19  N   UNL     1       5.674   1.720   0.181  0.00  0.00    -0.327 N 
ATOM     20  C   UNL     1       5.615   0.863   1.373  0.00  0.00    +0.124 C 
ATOM     21  C   UNL     1       4.525  -0.197   1.183  0.00  0.00    +0.126 C 
ATOM     22  N   UNL     1       4.778  -0.906  -0.081  0.00  0.00    -0.298 N 
ATOM     23  C   UNL     1       4.984  -0.106  -1.298  0.00  0.00    +0.126 C 
ATOM     24  C   UNL     1       6.056   0.951  -1.010  0.00  0.00    +0.124 C 
ATOM     25  C   UNL     1       4.819  -2.252  -0.123  0.00  0.00    +0.219 C 
ATOM     26  O   UNL     1       4.708  -2.894   0.900  0.00  0.00    -0.275 OA
BRANCH  19  31
ATOM     27  C   UNL     1       9.191   6.093   0.996  0.00  0.00    +0.044 C 
ATOM     28  C   UNL     1       8.257   4.931   0.778  0.00  0.00    -0.050 A 
ATOM     29  C   UNL     1       8.750   3.638   0.781  0.00  0.00    +0.005 A 
ATOM     30  C   UNL     1       7.897   2.572   0.578  0.00  0.00    +0.023 A 
ATOM     31  C   UNL     1       6.540   2.797   0.381  0.00  0.00    +0.033 A 
ATOM     32  C   UNL     1       6.048   4.095   0.384  0.00  0.00    -0.029 A 
ATOM     33  C   UNL     1       6.907   5.158   0.583  0.00  0.00    +0.008 A 
ATOM     34  C   UNL     1       4.577   4.345   0.171  0.00  0.00    +0.045 C 
ENDBRANCH  19  31
ENDBRANCH   1  25
BRANCH  12  35
ATOM     35  N   UNL     1       5.453  -9.515  -9.347  0.00  0.00    -0.286 N 
ATOM     36  C   UNL     1       4.335 -10.044  -9.880  0.00  0.00    +0.214 C 
ATOM     37  O   UNL     1       3.273  -9.926  -9.305  0.00  0.00    -0.276 OA
ATOM     38  C   UNL     1       4.403 -10.784 -11.192  0.00  0.00    +0.109 C 
ATOM     39  H   UNL     1       6.428  -9.692  -9.824  0.00  0.00    +0.155 HD
ENDBRANCH  12  35
TORSDOF 3
