REMARK  Name = ZINC04280702
REMARK  6 active torsions:
REMARK  status: ('A' for Active; 'I' for Inactive)
REMARK    1  A    between atoms: C_1  and  C_2
REMARK    2  A    between atoms: C_2  and  C_4
REMARK    3  A    between atoms: C_4  and  O_30
REMARK    4  A    between atoms: C_10  and  C_28
REMARK    5  A    between atoms: C_20  and  C_27
REMARK    6  A    between atoms: C_23  and  O_26
REMARK                            x       y       z     vdW  Elec       q    Type
REMARK                         _______ _______ _______ _____ _____    ______ ____
ROOT
ATOM      1  C   UNL     1       3.378  -0.308  -0.417  0.00  0.00    +0.141 C 
ATOM      2  C   UNL     1       2.715   0.957   0.160  0.00  0.00    +0.096 C 
ATOM      3  C   UNL     1       1.192   0.693   0.168  0.00  0.00    +0.022 C 
ATOM      4  C   UNL     1       1.094  -0.844   0.173  0.00  0.00    +0.003 C 
ATOM      5  C   UNL     1       2.222  -1.280  -0.776  0.00  0.00    +0.008 C 
ATOM      6  C   UNL     1       1.837  -0.986  -2.229  0.00  0.00    +0.010 C 
ATOM      7  C   UNL     1       0.506  -1.649  -2.567  0.00  0.00    +0.005 C 
ATOM      8  C   UNL     1      -0.594  -1.038  -1.690  0.00  0.00    +0.003 C 
ATOM      9  C   UNL     1      -0.276  -1.339  -0.223  0.00  0.00    +0.000 C 
ATOM     10  C   UNL     1      -1.335  -0.646   0.647  0.00  0.00    +0.031 C 
ATOM     11  C   UNL     1      -2.707  -1.041   0.190  0.00  0.00    -0.027 C 
ATOM     12  C   UNL     1      -2.965  -1.493  -0.995  0.00  0.00    -0.065 C 
ATOM     13  C   UNL     1      -1.927  -1.671  -2.069  0.00  0.00    -0.008 C 
ATOM     14  C   UNL     1      -1.764  -3.159  -2.368  0.00  0.00    +0.014 C 
ATOM     15  C   UNL     1      -3.069  -3.897  -2.072  0.00  0.00    +0.032 C 
ATOM     16  C   UNL     1      -4.280  -3.023  -2.392  0.00  0.00    +0.119 C 
ATOM     17  C   UNL     1      -4.386  -1.894  -1.356  0.00  0.00    +0.062 C 
ATOM     18  C   UNL     1      -2.434  -0.993  -3.344  0.00  0.00    +0.016 C 
ATOM     19  C   UNL     1       2.615  -2.743  -0.564  0.00  0.00    +0.015 C 
ATOM     20 BR   UNL     1       3.354   1.277   1.991  0.00  0.00    -0.085 Br
ENDROOT
BRANCH   1  22
ATOM     21  C   UNL     1       5.284  -0.864  -2.111  0.00  0.00    +0.089 C 
ATOM     22  C   UNL     1       4.167   0.038  -1.654  0.00  0.00    +0.163 C 
ATOM     23  O   UNL     1       3.903   1.037  -2.278  0.00  0.00    -0.295 OA
ENDBRANCH   1  22
BRANCH  16  24
ATOM     24  O   UNL     1      -4.129  -2.459  -3.697  0.00  0.00    -0.391 OA
ATOM     25  H   UNL     1      -4.903  -1.968  -4.005  0.00  0.00    +0.210 HD
ENDBRANCH  16  24
BRANCH   1  26
ATOM     26  O   UNL     1       4.234  -0.902   0.560  0.00  0.00    -0.379 OA
ATOM     27  H   UNL     1       4.976  -0.343   0.826  0.00  0.00    +0.211 HD
ENDBRANCH   1  26
TORSDOF 3
