REMARK  Name = ZINC51116954
REMARK  7 active torsions:
REMARK  status: ('A' for Active; 'I' for Inactive)
REMARK    1  A    between atoms: C_1  and  C_2
REMARK    2  A    between atoms: C_2  and  C_3
REMARK    3  A    between atoms: C_6  and  N_9
REMARK    4  A    between atoms: N_9  and  C_10
REMARK    5  A    between atoms: C_11  and  C_13
REMARK    6  A    between atoms: C_15  and  N_20
REMARK    7  A    between atoms: N_20  and  N_21
REMARK                            x       y       z     vdW  Elec       q    Type
REMARK                         _______ _______ _______ _____ _____    ______ ____
ROOT
ATOM      1  N   UNL     1      -5.129  -2.423  -0.038  0.00  0.00    -0.271 N 
ATOM      2  C   UNL     1      -5.642  -3.301   1.017  0.00  0.00    +0.138 C 
ATOM      3  C   UNL     1      -5.833  -2.253  -1.175  0.00  0.00    +0.251 C 
ATOM      4  O   UNL     1      -5.356  -1.619  -2.095  0.00  0.00    -0.270 OA
ENDROOT
BRANCH   3   5
ATOM      5  C   UNL     1      -7.188  -2.838  -1.302  0.00  0.00    +0.043 A 
ATOM      6  C   UNL     1      -7.758  -3.060  -2.557  0.00  0.00    +0.057 A 
ATOM      7  C   UNL     1      -9.032  -3.611  -2.630  0.00  0.00    +0.134 A 
ATOM      8  N   UNL     1      -9.698  -3.923  -1.529  0.00  0.00    -0.220 NA
ATOM      9  C   UNL     1      -9.190  -3.727  -0.327  0.00  0.00    +0.132 A 
ATOM     10  C   UNL     1      -7.928  -3.189  -0.167  0.00  0.00    +0.053 A 
ATOM     11 CL   UNL     1     -10.120  -4.159   1.075  0.00  0.00    -0.062 Cl
BRANCH   7  12
ATOM     12  N   UNL     1      -9.613  -3.837  -3.872  0.00  0.00    -0.267 N 
ATOM     13  H   UNL     1      -9.129  -3.611  -4.682  0.00  0.00    +0.167 HD
BRANCH  12  14
ATOM     14  N   UNL     1     -10.864  -4.379  -3.953  0.00  0.00    -0.255 NA
ATOM     15  H   UNL     1     -11.152  -4.484  -4.914  0.00  0.00    +0.140 HD
ATOM     16  H   UNL     1     -10.909  -5.260  -3.464  0.00  0.00    +0.140 HD
ENDBRANCH  12  14
ENDBRANCH   7  12
ENDBRANCH   3   5
BRANCH   1  20
ATOM     17  C   UNL     1      -1.495  -0.454   0.476  0.00  0.00    -0.048 A 
ATOM     18  C   UNL     1      -1.907  -1.395   1.403  0.00  0.00    +0.005 A 
ATOM     19  C   UNL     1      -3.111  -2.049   1.235  0.00  0.00    +0.024 A 
ATOM     20  C   UNL     1      -3.909  -1.762   0.135  0.00  0.00    +0.036 A 
ATOM     21  C   UNL     1      -3.493  -0.816  -0.793  0.00  0.00    +0.024 A 
ATOM     22  C   UNL     1      -2.290  -0.161  -0.617  0.00  0.00    +0.005 A 
BRANCH  17  24
ATOM     23  C   UNL     1      -0.400   1.530   1.485  0.00  0.00    +0.009 C 
ATOM     24  C   UNL     1      -0.180   0.258   0.662  0.00  0.00    +0.032 C 
ENDBRANCH  17  24
ENDBRANCH   1  20
TORSDOF 5
