REMARK  Name = ZINC13194723
REMARK  7 active torsions:
REMARK  status: ('A' for Active; 'I' for Inactive)
REMARK    1  A    between atoms: C_4  and  N_32
REMARK    2  A    between atoms: C_5  and  C_7
REMARK    3  A    between atoms: C_9  and  C_25
REMARK    4  A    between atoms: N_13  and  C_14
REMARK    5  A    between atoms: C_17  and  C_20
REMARK    6  A    between atoms: C_20  and  C_21
REMARK    7  A    between atoms: C_25  and  C_27
REMARK                            x       y       z     vdW  Elec       q    Type
REMARK                         _______ _______ _______ _____ _____    ______ ____
ROOT
ATOM      1  C   UNL     1       1.088  -1.968   0.101  0.00  0.00    +0.152 C 
ATOM      2  C   UNL     1       1.276  -2.797   1.350  0.00  0.00    +0.077 C 
ATOM      3  C   UNL     1       0.291  -3.725   1.354  0.00  0.00    +0.250 C 
ATOM      4  C   UNL     1      -0.549  -3.547   0.154  0.00  0.00    +0.292 C 
ATOM      5  O   UNL     1      -1.516  -4.228  -0.128  0.00  0.00    -0.266 OA
ATOM      6  N   UNL     1      -0.086  -2.520  -0.584  0.00  0.00    -0.253 N 
ATOM      7  O   UNL     1       0.106  -4.668   2.308  0.00  0.00    -0.282 OA
ENDROOT
BRANCH   1  12
ATOM      8  C   UNL     1      -0.253   1.110   1.829  0.00  0.00    +0.000 A 
ATOM      9  C   UNL     1       0.395   2.118   1.139  0.00  0.00    +0.002 A 
ATOM     10  C   UNL     1       1.267   1.803   0.113  0.00  0.00    +0.033 A 
ATOM     11  C   UNL     1       1.491   0.481  -0.222  0.00  0.00    +0.131 A 
ATOM     12  C   UNL     1       0.844  -0.526   0.468  0.00  0.00    +0.008 A 
ATOM     13  C   UNL     1      -0.029  -0.212   1.493  0.00  0.00    +0.008 A 
BRANCH  11  14
ATOM     14  N   UNL     1       2.424   0.144  -1.321  0.00  0.00    +0.057 N 
ATOM     15  O   UNL     1       2.918   1.025  -1.986  0.00  0.00    -0.126 OA
ATOM     16  O   UNL     1       2.691  -1.011  -1.555  0.00  0.00    -0.126 OA
ENDBRANCH  11  14
ENDBRANCH   1  12
BRANCH   6  17
ATOM     17  C   UNL     1      -0.628  -2.060  -1.788  0.00  0.00    +0.038 A 
ATOM     18  C   UNL     1      -0.044  -0.987  -2.449  0.00  0.00    +0.024 A 
ATOM     19  C   UNL     1      -0.581  -0.535  -3.638  0.00  0.00    +0.006 A 
ATOM     20  C   UNL     1      -1.700  -1.150  -4.171  0.00  0.00    -0.037 A 
ATOM     21  C   UNL     1      -2.284  -2.218  -3.515  0.00  0.00    +0.006 A 
ATOM     22  C   UNL     1      -1.748  -2.678  -2.328  0.00  0.00    +0.024 A 
BRANCH  20  23
ATOM     23  C   UNL     1      -2.285  -0.654  -5.468  0.00  0.00    +0.160 C 
BRANCH  23  24
ATOM     24  C   UNL     1      -1.645  -1.385  -6.620  0.00  0.00    +0.360 C 
ATOM     25  O   UNL     1      -0.793  -2.232  -6.407  0.00  0.00    -0.246 OA
ATOM     26  O   UNL     1      -1.979  -1.132  -7.764  0.00  0.00    -0.246 OA
ENDBRANCH  23  24
ENDBRANCH  20  23
ENDBRANCH   6  17
BRANCH   2  27
ATOM     27  C   UNL     1       2.324  -2.629   2.364  0.00  0.00    +0.202 C 
ATOM     28  O   UNL     1       2.286  -3.280   3.393  0.00  0.00    -0.286 OA
BRANCH  27  29
ATOM     29  C   UNL     1       3.416  -1.679   2.137  0.00  0.00    +0.059 A 
ATOM     30  C   UNL     1       4.408  -1.260   3.015  0.00  0.00    +0.019 A 
ATOM     31  C   UNL     1       5.304  -0.350   2.510  0.00  0.00    +0.008 A 
ATOM     32  C   UNL     1       5.168   0.069   1.226  0.00  0.00    +0.046 A 
ATOM     33  S   UNL     1       3.823  -0.765   0.661  0.00  0.00    -0.093 S 
ENDBRANCH  27  29
ENDBRANCH   2  27
TORSDOF 7
