REMARK  Name = ZINC12955321
REMARK  9 active torsions:
REMARK  status: ('A' for Active; 'I' for Inactive)
REMARK    1  A    between atoms: C_1  and  C_2
REMARK    2  A    between atoms: C_5  and  C_41
REMARK    3  A    between atoms: N_6  and  C_7
REMARK    4  A    between atoms: C_11  and  C_12
REMARK    5  A    between atoms: C_18  and  C_21
REMARK    6  A    between atoms: C_24  and  N_38
REMARK    7  A    between atoms: C_25  and  C_27
REMARK    8  A    between atoms: C_27  and  S_28
REMARK    9  A    between atoms: S_28  and  C_31
REMARK                            x       y       z     vdW  Elec       q    Type
REMARK                         _______ _______ _______ _____ _____    ______ ____
ROOT
ATOM      1  C   UNL     1       2.449   1.073   0.208  0.00  0.00    +0.104 A 
ATOM      2  C   UNL     1       1.769  -0.151   0.206  0.00  0.00    +0.078 A 
ATOM      3  C   UNL     1       0.410   0.125   0.162  0.00  0.00    +0.157 A 
ATOM      4  N   UNL     1      -0.669  -0.669   0.141  0.00  0.00    -0.236 NA
ATOM      5  C   UNL     1      -1.883  -0.168   0.098  0.00  0.00    +0.115 A 
ATOM      6  C   UNL     1      -2.077   1.216   0.072  0.00  0.00    +0.048 A 
ATOM      7  C   UNL     1      -0.978   2.050   0.097  0.00  0.00    +0.076 A 
ATOM      8  N   UNL     1       0.276   1.490   0.138  0.00  0.00    -0.213 N 
ATOM      9  N   UNL     1       1.558   2.051   0.167  0.00  0.00    -0.164 NA
ENDROOT
BRANCH   7  10
ATOM     10  C   UNL     1      -1.146   3.517   0.071  0.00  0.00    +0.001 A 
ATOM     11  C   UNL     1      -0.029   4.350  -0.013  0.00  0.00    +0.012 A 
ATOM     12  C   UNL     1      -0.193   5.719  -0.042  0.00  0.00    +0.034 A 
ATOM     13  C   UNL     1      -1.462   6.268   0.022  0.00  0.00    +0.131 A 
ATOM     14  C   UNL     1      -2.574   5.449   0.111  0.00  0.00    +0.005 A 
ATOM     15  C   UNL     1      -2.423   4.077   0.135  0.00  0.00    +0.017 A 
BRANCH  13  16
ATOM     16  N   UNL     1      -1.631   7.738  -0.004  0.00  0.00    +0.057 N 
ATOM     17  O   UNL     1      -0.911   8.422  -0.710  0.00  0.00    -0.126 OA
ATOM     18  O   UNL     1      -2.490   8.265   0.680  0.00  0.00    -0.126 OA
ENDBRANCH  13  16
BRANCH  14  19
ATOM     19  C   UNL     1      -3.951   6.055   0.180  0.00  0.00    +0.209 C 
BRANCH  19  20
ATOM     20  S   UNL     1      -4.483   6.152   1.911  0.00  0.00    +0.001 S 
ATOM     21  O   UNL     1      -4.689   4.847   2.434  0.00  0.00    -0.169 OA
ATOM     22  O   UNL     1      -3.688   7.098   2.615  0.00  0.00    -0.169 OA
BRANCH  20  23
ATOM     23  C   UNL     1      -6.090   6.872   1.852  0.00  0.00    +0.089 A 
ATOM     24  C   UNL     1      -6.236   8.245   1.922  0.00  0.00    +0.028 A 
ATOM     25  C   UNL     1      -7.496   8.809   1.870  0.00  0.00    +0.022 A 
ATOM     26  C   UNL     1      -8.613   8.000   1.759  0.00  0.00    +0.041 A 
ATOM     27  C   UNL     1      -8.467   6.626   1.695  0.00  0.00    +0.022 A 
ATOM     28  C   UNL     1      -7.205   6.062   1.741  0.00  0.00    +0.028 A 
ATOM     29 CL   UNL     1     -10.197   8.709   1.700  0.00  0.00    -0.084 Cl
ENDBRANCH  20  23
ENDBRANCH  19  20
ENDBRANCH  14  19
ENDBRANCH   7  10
BRANCH   1  34
ATOM     30  C   UNL     1       4.658   2.411   0.248  0.00  0.00    +0.063 A 
ATOM     31  C   UNL     1       6.036   2.311   0.296  0.00  0.00    +0.034 A 
ATOM     32  C   UNL     1       6.609   1.082   0.330  0.00  0.00    +0.048 A 
ATOM     33  S   UNL     1       5.193  -0.003   0.304  0.00  0.00    -0.093 S 
ATOM     34  C   UNL     1       3.916   1.244   0.249  0.00  0.00    +0.063 A 
BRANCH  30  40
ATOM     35  C   UNL     1       3.797   3.995   2.731  0.00  0.00    +0.064 C 
ATOM     36  C   UNL     1       3.632   4.396   1.288  0.00  0.00    +0.021 A 
ATOM     37  C   UNL     1       3.071   5.540   0.843  0.00  0.00    +0.023 A 
ATOM     38  C   UNL     1       3.114   5.512  -0.565  0.00  0.00    +0.023 A 
ATOM     39  C   UNL     1       3.704   4.355  -0.929  0.00  0.00    +0.021 A 
ATOM     40  N   UNL     1       4.027   3.666   0.204  0.00  0.00    -0.317 N 
ATOM     41  C   UNL     1       3.961   3.901  -2.343  0.00  0.00    +0.064 C 
ENDBRANCH  30  40
ENDBRANCH   1  34
TORSDOF 7
