REMARK  Name = ZINC19902672
REMARK  7 active torsions:
REMARK  status: ('A' for Active; 'I' for Inactive)
REMARK    1  A    between atoms: C_4  and  C_7
REMARK    2  A    between atoms: C_7  and  N_8
REMARK    3  A    between atoms: N_16  and  C_17
REMARK    4  A    between atoms: C_17  and  C_19
REMARK    5  A    between atoms: C_19  and  C_30
REMARK    6  A    between atoms: C_20  and  C_21
REMARK    7  A    between atoms: C_25  and  N_27
REMARK                            x       y       z     vdW  Elec       q    Type
REMARK                         _______ _______ _______ _____ _____    ______ ____
ROOT
ATOM      1  N   UNL     1      -2.240  14.376  -0.324  0.00  0.00    +0.386 N 
ATOM      2  C   UNL     1      -1.032  13.977  -1.061  0.00  0.00    -0.072 C 
ATOM      3  C   UNL     1      -0.477  12.664  -0.502  0.00  0.00    +0.035 C 
ATOM      4  C   UNL     1      -1.611  11.645  -0.470  0.00  0.00    +0.024 A 
ATOM      5  C   UNL     1      -2.899  12.077  -0.545  0.00  0.00    -0.004 A 
ATOM      6  S   UNL     1      -3.820  10.567  -0.472  0.00  0.00    -0.059 S 
ATOM      7  C   UNL     1      -2.458   9.493  -0.349  0.00  0.00    +0.164 A 
ATOM      8  N   UNL     1      -1.441  10.332  -0.366  0.00  0.00    -0.339 N 
ATOM      9  N   UNL     1      -2.445   8.107  -0.251  0.00  0.00    -0.152 NA
ATOM     10  C   UNL     1      -3.370  13.486  -0.657  0.00  0.00    -0.033 C 
ATOM     11  H   UNL     1      -0.427   9.912  -0.291  0.00  0.00    +0.167 HD
ATOM     12  H   UNL     1      -2.028  14.283   0.751  0.00  0.00    -0.081 HD
ENDROOT
BRANCH   9  13
ATOM     13  C   UNL     1      -1.272   7.449  -0.163  0.00  0.00    +0.280 C 
ATOM     14  O   UNL     1      -0.226   8.068  -0.170  0.00  0.00    -0.267 OA
BRANCH  13  15
ATOM     15  C   UNL     1      -1.259   5.981  -0.059  0.00  0.00    +0.116 C 
ATOM     16  C   UNL     1      -0.070   5.313   0.029  0.00  0.00    +0.032 C 
BRANCH  16  17
ATOM     17  C   UNL     1      -0.047   3.847  -0.017  0.00  0.00    -0.021 A 
ATOM     18  C   UNL     1      -1.026   3.150  -0.737  0.00  0.00    +0.008 A 
ATOM     19  C   UNL     1      -0.993   1.772  -0.780  0.00  0.00    +0.003 A 
ATOM     20  C   UNL     1      -0.002   1.078  -0.106  0.00  0.00    +0.033 A 
ATOM     21  C   UNL     1       0.969   1.759   0.607  0.00  0.00    +0.127 A 
ATOM     22  C   UNL     1       0.954   3.137   0.657  0.00  0.00    +0.040 A 
BRANCH  21  23
ATOM     23  N   UNL     1       2.026   1.006   1.319  0.00  0.00    +0.056 N 
ATOM     24  O   UNL     1       2.041  -0.211   1.276  0.00  0.00    -0.126 OA
ATOM     25  O   UNL     1       2.881   1.604   1.947  0.00  0.00    -0.126 OA
ENDBRANCH  21  23
ENDBRANCH  16  17
BRANCH  15  26
ATOM     26  C   UNL     1      -2.491   5.252  -0.051  0.00  0.00    +0.104 C 
ATOM     27  N   UNL     1      -3.469   4.674  -0.045  0.00  0.00    -0.191 NA
ENDBRANCH  15  26
ENDBRANCH  13  15
ENDBRANCH   9  13
BRANCH   1  28
ATOM     28  C   UNL     1      -2.579  15.780  -0.590  0.00  0.00    -0.043 C 
BRANCH  28  32
ATOM     29  C   UNL     1      -5.651  17.038   2.099  0.00  0.00    +0.000 A 
ATOM     30  C   UNL     1      -4.322  17.184   2.450  0.00  0.00    +0.000 A 
ATOM     31  C   UNL     1      -3.328  16.777   1.580  0.00  0.00    +0.002 A 
ATOM     32  C   UNL     1      -3.663  16.224   0.359  0.00  0.00    -0.064 A 
ATOM     33  C   UNL     1      -4.992  16.082   0.005  0.00  0.00    +0.002 A 
ATOM     34  C   UNL     1      -5.986  16.484   0.877  0.00  0.00    +0.000 A 
ENDBRANCH  28  32
ENDBRANCH   1  28
TORSDOF 7
