REMARK  Name = ZINC02667591
REMARK  8 active torsions:
REMARK  status: ('A' for Active; 'I' for Inactive)
REMARK    1  A    between atoms: C_1  and  C_2
REMARK    2  A    between atoms: C_2  and  C_3
REMARK    3  A    between atoms: C_3  and  C_4
REMARK    4  A    between atoms: C_9  and  O_10
REMARK    5  A    between atoms: O_10  and  C_11
REMARK    6  A    between atoms: C_11  and  C_12
REMARK    7  A    between atoms: C_21  and  C_36
REMARK    8  A    between atoms: C_22  and  C_25
REMARK                            x       y       z     vdW  Elec       q    Type
REMARK                         _______ _______ _______ _____ _____    ______ ____
ROOT
ATOM      1  C   UNL     1      -0.756   1.601   3.560  0.00  0.00    -0.005 A 
ATOM      2  C   UNL     1      -0.232   1.241   4.769  0.00  0.00    +0.022 A 
ATOM      3  C   UNL     1       0.917   0.452   4.818  0.00  0.00    +0.065 A 
ATOM      4  C   UNL     1       1.538   0.024   3.631  0.00  0.00    +0.142 A 
ATOM      5  C   UNL     1       0.988   0.394   2.410  0.00  0.00    +0.093 A 
ATOM      6  C   UNL     1      -0.149   1.183   2.378  0.00  0.00    +0.128 A 
ATOM      7  O   UNL     1       2.648  -0.738   3.680  0.00  0.00    -0.459 OA
ATOM      8  C   UNL     1       3.219  -1.129   4.823  0.00  0.00    +0.114 A 
ATOM      9  C   UNL     1       2.724  -0.788   6.041  0.00  0.00    +0.067 A 
ATOM     10  C   UNL     1       1.512   0.045   6.104  0.00  0.00    +0.200 A 
ATOM     11  O   UNL     1       1.023   0.382   7.169  0.00  0.00    -0.286 OA
ATOM     12  C   UNL     1       4.460  -1.982   4.758  0.00  0.00    +0.087 C 
ENDROOT
BRANCH   9  13
ATOM     13  C   UNL     1       3.393  -1.246   7.283  0.00  0.00    -0.007 A 
ATOM     14  C   UNL     1       4.681  -0.806   7.584  0.00  0.00    +0.012 A 
ATOM     15  C   UNL     1       5.304  -1.228   8.743  0.00  0.00    +0.050 A 
ATOM     16  C   UNL     1       4.649  -2.097   9.601  0.00  0.00    +0.162 A 
ATOM     17  C   UNL     1       3.368  -2.542   9.303  0.00  0.00    +0.162 A 
ATOM     18  C   UNL     1       2.736  -2.121   8.148  0.00  0.00    +0.058 A 
ATOM     19  O   UNL     1       2.735  -3.396  10.159  0.00  0.00    -0.488 OA
ATOM     20  C   UNL     1       3.284  -4.713  10.248  0.00  0.00    +0.232 C 
ATOM     21  C   UNL     1       4.436  -4.751  11.240  0.00  0.00    +0.082 C 
ATOM     22  C   UNL     1       5.616  -3.904  10.789  0.00  0.00    +0.232 C 
ATOM     23  O   UNL     1       5.260  -2.521  10.746  0.00  0.00    -0.488 OA
ENDBRANCH   9  13
BRANCH   1  24
ATOM     24  C   UNL     1      -1.998   2.454   3.505  0.00  0.00    +0.038 C 
BRANCH  24  26
ATOM     25  C   UNL     1      -4.488   2.421   3.306  0.00  0.00    +0.004 C 
ATOM     26  C   UNL     1      -3.228   1.555   3.362  0.00  0.00    +0.001 C 
ENDBRANCH  24  26
ENDBRANCH   1  24
BRANCH   6  27
ATOM     27  O   UNL     1      -0.682   1.547   1.184  0.00  0.00    -0.487 OA
BRANCH  27  28
ATOM     28  C   UNL     1      -0.013   1.086   0.008  0.00  0.00    +0.266 C 
BRANCH  28  29
ATOM     29  C   UNL     1      -0.742   1.585  -1.213  0.00  0.00    +0.008 A 
ATOM     30  C   UNL     1      -1.875   2.364  -1.071  0.00  0.00    +0.010 A 
ATOM     31  C   UNL     1      -2.544   2.822  -2.190  0.00  0.00    +0.020 A 
ATOM     32  C   UNL     1      -2.079   2.502  -3.454  0.00  0.00    +0.042 A 
ATOM     33  C   UNL     1      -0.945   1.723  -3.596  0.00  0.00    +0.040 A 
ATOM     34  C   UNL     1      -0.273   1.269  -2.475  0.00  0.00    +0.049 A 
ATOM     35 CL   UNL     1       1.154   0.296  -2.654  0.00  0.00    -0.083 Cl
ATOM     36 CL   UNL     1      -2.919   3.078  -4.859  0.00  0.00    -0.083 Cl
ENDBRANCH  28  29
ENDBRANCH  27  28
ENDBRANCH   6  27
TORSDOF 6
