REMARK  Name = ZINC41584839
REMARK  8 active torsions:
REMARK  status: ('A' for Active; 'I' for Inactive)
REMARK    1  A    between atoms: C_1  and  C_2
REMARK    2  A    between atoms: C_4  and  O_36
REMARK    3  A    between atoms: C_5  and  C_22
REMARK    4  A    between atoms: C_11  and  C_12
REMARK    5  A    between atoms: C_16  and  N_18
REMARK    6  A    between atoms: C_22  and  N_23
REMARK    7  A    between atoms: N_26  and  C_29
REMARK    8  A    between atoms: C_29  and  C_30
REMARK                            x       y       z     vdW  Elec       q    Type
REMARK                         _______ _______ _______ _____ _____    ______ ____
ROOT
ATOM      1  C   UNL     1       0.373   1.463  -0.008  0.00  0.00    +0.045 C 
ATOM      2  C   UNL     1       0.065  -0.013  -0.002  0.00  0.00    -0.033 A 
ATOM      3  C   UNL     1      -0.154  -0.671  -1.179  0.00  0.00    +0.050 A 
ATOM      4  C   UNL     1      -0.439  -2.034  -1.175  0.00  0.00    +0.122 A 
ATOM      5  C   UNL     1      -0.502  -2.737   0.017  0.00  0.00    +0.020 A 
ATOM      6  C   UNL     1      -0.282  -2.084   1.222  0.00  0.00    +0.145 A 
ATOM      7  C   UNL     1       0.009  -0.710   1.206  0.00  0.00    +0.071 A 
ATOM      8  C   UNL     1       0.197  -0.308   2.611  0.00  0.00    +0.232 C 
ATOM      9  O   UNL     1       0.460   0.801   3.042  0.00  0.00    -0.283 OA
ATOM     10  C   UNL     1      -0.004  -1.548   3.379  0.00  0.00    +0.176 C 
ATOM     11  C   UNL     1       0.069  -1.676   4.727  0.00  0.00    +0.058 C 
ATOM     12  O   UNL     1      -0.287  -2.533   2.496  0.00  0.00    -0.451 OA
ENDROOT
BRANCH  11  13
ATOM     13  C   UNL     1      -0.018  -3.007   5.344  0.00  0.00    -0.019 A 
ATOM     14  C   UNL     1      -0.004  -4.156   4.545  0.00  0.00    +0.008 A 
ATOM     15  C   UNL     1      -0.085  -5.401   5.131  0.00  0.00    +0.003 A 
ATOM     16  C   UNL     1      -0.180  -5.516   6.508  0.00  0.00    +0.033 A 
ATOM     17  C   UNL     1      -0.194  -4.386   7.306  0.00  0.00    +0.127 A 
ATOM     18  C   UNL     1      -0.108  -3.134   6.735  0.00  0.00    +0.040 A 
BRANCH  17  19
ATOM     19  N   UNL     1      -0.297  -4.521   8.776  0.00  0.00    +0.056 N 
ATOM     20  O   UNL     1      -0.368  -5.619   9.278  0.00  0.00    -0.126 OA
ATOM     21  O   UNL     1      -0.309  -3.535   9.475  0.00  0.00    -0.126 OA
ENDBRANCH  17  19
ENDBRANCH  11  13
BRANCH   4  22
ATOM     22  O   UNL     1      -0.655  -2.678  -2.350  0.00  0.00    -0.506 OA
ATOM     23  H   UNL     1       0.144  -3.045  -2.751  0.00  0.00    +0.292 HD
ENDBRANCH   4  22
BRANCH   5  24
ATOM     24  C   UNL     1      -0.811  -4.213   0.005  0.00  0.00    -0.035 C 
BRANCH  24  25
ATOM     25  N   UNL     1       0.441  -4.974  -0.093  0.00  0.00    +0.384 N 
ATOM     26  C   UNL     1       1.081  -4.699  -1.387  0.00  0.00    -0.063 C 
ATOM     27  C   UNL     1       2.394  -5.478  -1.482  0.00  0.00    +0.066 C 
ATOM     28  N   UNL     1       2.119  -6.916  -1.347  0.00  0.00    -0.302 NA
ATOM     29  C   UNL     1       1.456  -7.203  -0.068  0.00  0.00    +0.066 C 
ATOM     30  C   UNL     1       0.150  -6.410   0.016  0.00  0.00    -0.063 C 
ATOM     31  H   UNL     1       1.061  -4.699   0.653  0.00  0.00    -0.081 HD
BRANCH  28  32
ATOM     32  C   UNL     1       3.351  -7.703  -1.490  0.00  0.00    +0.119 C 
BRANCH  32  33
ATOM     33  C   UNL     1       3.003  -9.166  -1.593  0.00  0.00    -0.033 A 
ATOM     34  C   UNL     1       2.912  -9.937  -0.450  0.00  0.00    +0.005 A 
ATOM     35  C   UNL     1       2.593 -11.278  -0.544  0.00  0.00    +0.000 A 
ATOM     36  C   UNL     1       2.365 -11.849  -1.782  0.00  0.00    +0.000 A 
ATOM     37  C   UNL     1       2.456 -11.078  -2.926  0.00  0.00    +0.000 A 
ATOM     38  C   UNL     1       2.771  -9.736  -2.831  0.00  0.00    +0.005 A 
ENDBRANCH  32  33
ENDBRANCH  28  32
ENDBRANCH  24  25
ENDBRANCH   5  24
TORSDOF 7
