REMARK  Name = ZINC08881033
REMARK  12 active torsions:
REMARK  status: ('A' for Active; 'I' for Inactive)
REMARK    1  A    between atoms: C_1  and  C_2
REMARK    2  A    between atoms: C_2  and  C_3
REMARK    3  A    between atoms: C_3  and  N_4
REMARK    4  A    between atoms: C_10  and  N_16
REMARK    5  A    between atoms: C_11  and  C_12
REMARK    6  A    between atoms: C_12  and  O_14
REMARK    7  A    between atoms: O_14  and  C_15
REMARK    8  A    between atoms: C_17  and  C_19
REMARK    9  A    between atoms: C_22  and  S_25
REMARK   10  A    between atoms: S_25  and  N_28
REMARK   11  A    between atoms: N_28  and  C_29
REMARK   12  A    between atoms: N_28  and  C_30
REMARK                            x       y       z     vdW  Elec       q    Type
REMARK                         _______ _______ _______ _____ _____    ______ ____
ROOT
ATOM      1  N   UNL     1       1.468   2.083   2.486  0.00  0.00    -0.275 N 
ATOM      2  C   UNL     1       2.216   2.522   3.518  0.00  0.00    +0.249 C 
ATOM      3  O   UNL     1       3.244   3.135   3.307  0.00  0.00    -0.270 OA
ATOM      4  H   UNL     1       0.538   1.528   2.677  0.00  0.00    +0.156 HD
ENDROOT
BRANCH   1  11
ATOM      5  N   UNL     1       3.475   2.904  -3.473  0.00  0.00    +0.383 N 
ATOM      6  C   UNL     1       2.016   2.976  -3.634  0.00  0.00    -0.074 C 
ATOM      7  C   UNL     1       1.329   2.045  -2.631  0.00  0.00    +0.018 C 
ATOM      8  C   UNL     1       1.879   2.354  -1.243  0.00  0.00    -0.025 A 
ATOM      9  C   UNL     1       3.037   3.041  -1.109  0.00  0.00    -0.021 A 
ATOM     10  S   UNL     1       3.285   3.171   0.637  0.00  0.00    -0.079 S 
ATOM     11  C   UNL     1       1.872   2.330   1.185  0.00  0.00    +0.086 A 
ATOM     12  C   UNL     1       1.244   1.962   0.001  0.00  0.00    +0.091 A 
ATOM     13  C   UNL     1       3.894   3.561  -2.220  0.00  0.00    -0.035 C 
ATOM     14  H   UNL     1       3.760   1.843  -3.418  0.00  0.00    -0.081 HD
BRANCH  12  15
ATOM     15  C   UNL     1      -0.014   1.212   0.009  0.00  0.00    +0.342 C 
ATOM     16  O   UNL     1       0.002  -0.004   0.002  0.00  0.00    -0.245 OA
BRANCH  15  17
ATOM     17  O   UNL     1      -1.192   1.871   0.018  0.00  0.00    -0.464 OA
ATOM     18  C   UNL     1      -2.398   1.063   0.019  0.00  0.00    +0.280 C 
ENDBRANCH  15  17
ENDBRANCH  12  15
BRANCH   5  19
ATOM     19  C   UNL     1       4.163   3.491  -4.630  0.00  0.00    -0.079 C 
BRANCH  19  21
ATOM     20  C   UNL     1       4.426   5.553  -6.017  0.00  0.00    +0.002 C 
ATOM     21  C   UNL     1       3.710   4.942  -4.811  0.00  0.00    -0.022 C 
ENDBRANCH  19  21
ENDBRANCH   5  19
ENDBRANCH   1  11
BRANCH   2  22
ATOM     22  C   UNL     1       1.785   2.258   4.907  0.00  0.00    +0.037 A 
ATOM     23  C   UNL     1       0.601   1.560   5.154  0.00  0.00    +0.015 A 
ATOM     24  C   UNL     1       0.208   1.312   6.452  0.00  0.00    +0.029 A 
ATOM     25  C   UNL     1       0.977   1.765   7.510  0.00  0.00    +0.106 A 
ATOM     26  C   UNL     1       2.148   2.463   7.273  0.00  0.00    +0.029 A 
ATOM     27  C   UNL     1       2.556   2.712   5.979  0.00  0.00    +0.015 A 
BRANCH  25  28
ATOM     28  S   UNL     1       0.463   1.451   9.166  0.00  0.00    +0.061 S 
ATOM     29  O   UNL     1      -0.380   0.308   9.119  0.00  0.00    -0.153 OA
ATOM     30  O   UNL     1       1.633   1.503   9.971  0.00  0.00    -0.153 OA
BRANCH  28  31
ATOM     31  N   UNL     1      -0.489   2.723   9.632  0.00  0.00    -0.177 NA
ATOM     32  C   UNL     1      -1.936   2.677   9.405  0.00  0.00    +0.132 C 
BRANCH  31  33
ATOM     33  C   UNL     1       0.115   3.894  10.272  0.00  0.00    +0.080 C 
ATOM     34  C   UNL     1      -0.484   4.079  11.668  0.00  0.00    +0.020 C 
ATOM     35  C   UNL     1       0.147   5.302  12.336  0.00  0.00    +0.002 C 
ATOM     36  C   UNL     1      -0.134   6.547  11.491  0.00  0.00    +0.000 C 
ATOM     37  C   UNL     1       0.465   6.362  10.096  0.00  0.00    +0.002 C 
ATOM     38  C   UNL     1      -0.166   5.139   9.427  0.00  0.00    +0.020 C 
ENDBRANCH  31  33
ENDBRANCH  28  31
ENDBRANCH  25  28
ENDBRANCH   2  22
TORSDOF 9
