REMARK  Name = ZINC39976436
REMARK  13 active torsions:
REMARK  status: ('A' for Active; 'I' for Inactive)
REMARK    1  A    between atoms: C_1  and  C_2
REMARK    2  A    between atoms: C_2  and  C_3
REMARK    3  A    between atoms: C_2  and  C_4
REMARK    4  A    between atoms: C_2  and  C_5
REMARK    5  A    between atoms: C_7  and  N_16
REMARK    6  A    between atoms: C_9  and  C_12
REMARK    7  A    between atoms: C_10  and  O_11
REMARK    8  A    between atoms: C_12  and  C_13
REMARK    9  A    between atoms: C_12  and  C_14
REMARK   10  A    between atoms: C_12  and  C_15
REMARK   11  A    between atoms: N_16  and  C_17
REMARK   12  A    between atoms: N_20  and  S_21
REMARK   13  A    between atoms: S_21  and  C_24
REMARK                            x       y       z     vdW  Elec       q    Type
REMARK                         _______ _______ _______ _____ _____    ______ ____
ROOT
ATOM      1  C   UNL     1       3.162   0.423  -5.353  0.00  0.00    +0.237 C 
ATOM      2  C   UNL     1       2.691   1.183  -6.573  0.00  0.00    +0.192 C 
ATOM      3  N   UNL     1       1.443   1.139  -6.936  0.00  0.00    -0.110 NA
ATOM      4  N   UNL     1       3.579   1.903  -7.275  0.00  0.00    -0.226 NA
ATOM      5  C   UNL     1       4.848   1.964  -6.928  0.00  0.00    +0.089 A 
ATOM      6  C   UNL     1       5.759   2.735  -7.693  0.00  0.00    +0.030 A 
ATOM      7  C   UNL     1       7.062   2.800  -7.342  0.00  0.00    +0.002 A 
ATOM      8  C   UNL     1       7.582   2.126  -6.225  0.00  0.00    +0.002 A 
ATOM      9  C   UNL     1       6.801   1.363  -5.428  0.00  0.00    +0.027 A 
ATOM     10  C   UNL     1       5.370   1.241  -5.742  0.00  0.00    +0.063 A 
ATOM     11  N   UNL     1       4.586   0.515  -4.996  0.00  0.00    -0.359 N 
ATOM     12  H   UNL     1       4.934   0.046  -4.221  0.00  0.00    +0.162 HD
ENDROOT
BRANCH   3  13
ATOM     13  S   UNL     1       0.940   1.975  -8.274  0.00  0.00    +0.100 S 
ATOM     14  O   UNL     1       1.088   3.356  -7.969  0.00  0.00    -0.146 OA
ATOM     15  O   UNL     1       1.572   1.370  -9.393  0.00  0.00    -0.146 OA
BRANCH  13  16
ATOM     16  C   UNL     1      -0.789   1.682  -8.452  0.00  0.00    +0.113 A 
ATOM     17  C   UNL     1      -1.234   0.610  -9.201  0.00  0.00    +0.029 A 
ATOM     18  C   UNL     1      -2.590   0.380  -9.341  0.00  0.00    +0.002 A 
ATOM     19  C   UNL     1      -3.501   1.222  -8.731  0.00  0.00    +0.000 A 
ATOM     20  C   UNL     1      -3.055   2.294  -7.981  0.00  0.00    +0.002 A 
ATOM     21  C   UNL     1      -1.699   2.522  -7.837  0.00  0.00    +0.029 A 
ENDBRANCH  13  16
ENDBRANCH   3  13
BRANCH   1  22
ATOM     22  N   UNL     1       2.382   0.892  -4.205  0.00  0.00    -0.318 N 
ATOM     23  H   UNL     1       2.309   1.843  -4.024  0.00  0.00    +0.148 HD
BRANCH  22  26
ATOM     24  C   UNL     1       0.231  -0.499  -1.567  0.00  0.00    +0.001 A 
ATOM     25  C   UNL     1       0.863   0.413  -2.390  0.00  0.00    +0.030 A 
ATOM     26  C   UNL     1       1.741  -0.030  -3.371  0.00  0.00    +0.030 A 
ATOM     27  C   UNL     1       1.982  -1.389  -3.524  0.00  0.00    +0.030 A 
ATOM     28  C   UNL     1       1.349  -2.299  -2.700  0.00  0.00    +0.001 A 
ATOM     29  C   UNL     1       0.476  -1.856  -1.717  0.00  0.00    +0.124 A 
BRANCH  24  31
ATOM     30  C   UNL     1      -0.813   1.508  -0.551  0.00  0.00    +0.015 C 
ATOM     31  C   UNL     1      -0.722  -0.018  -0.503  0.00  0.00    -0.009 C 
ATOM     32  C   UNL     1      -0.212  -0.456   0.872  0.00  0.00    +0.015 C 
ATOM     33  C   UNL     1      -2.107  -0.620  -0.749  0.00  0.00    +0.015 C 
ENDBRANCH  24  31
BRANCH  28  34
ATOM     34  C   UNL     1       1.610  -3.774  -2.865  0.00  0.00    -0.009 C 
ATOM     35  C   UNL     1       2.606  -3.991  -4.006  0.00  0.00    +0.015 C 
ATOM     36  C   UNL     1       2.191  -4.338  -1.567  0.00  0.00    +0.015 C 
ATOM     37  C   UNL     1       0.298  -4.491  -3.191  0.00  0.00    +0.015 C 
ENDBRANCH  28  34
BRANCH  29  38
ATOM     38  O   UNL     1      -0.142  -2.752  -0.902  0.00  0.00    -0.506 OA
ATOM     39  H   UNL     1      -0.991  -3.069  -1.240  0.00  0.00    +0.292 HD
ENDBRANCH  29  38
ENDBRANCH  22  26
ENDBRANCH   1  22
TORSDOF 7
