REMARK  Name = ZINC08598715
REMARK  9 active torsions:
REMARK  status: ('A' for Active; 'I' for Inactive)
REMARK    1  A    between atoms: C_1  and  C_2
REMARK    2  A    between atoms: C_2  and  O_3
REMARK    3  A    between atoms: O_3  and  C_4
REMARK    4  A    between atoms: C_4  and  C_6
REMARK    5  A    between atoms: C_7  and  C_20
REMARK    6  A    between atoms: C_12  and  C_14
REMARK    7  A    between atoms: C_20  and  N_21
REMARK    8  A    between atoms: N_21  and  C_22
REMARK    9  A    between atoms: C_22  and  C_23
REMARK                            x       y       z     vdW  Elec       q    Type
REMARK                         _______ _______ _______ _____ _____    ______ ____
ROOT
ATOM      1  C   UNL     1       1.569  -2.364   2.370  0.00  0.00    +0.076 C 
ATOM      2  C   UNL     1       1.513  -3.685   2.645  0.00  0.00    +0.007 C 
ATOM      3  N   UNL     1       2.065  -4.191   3.787  0.00  0.00    -0.274 N 
ATOM      4  C   UNL     1       2.690  -3.443   4.705  0.00  0.00    +0.304 C 
ATOM      5  O   UNL     1       3.150  -3.985   5.691  0.00  0.00    -0.252 OA
ATOM      6  N   UNL     1       2.826  -2.109   4.571  0.00  0.00    -0.288 N 
ATOM      7  C   UNL     1       2.270  -1.465   3.369  0.00  0.00    +0.143 C 
ATOM      8  H   UNL     1       2.000  -5.147   3.942  0.00  0.00    +0.156 HD
ATOM      9  H   UNL     1       3.282  -1.586   5.249  0.00  0.00    +0.151 HD
ENDROOT
BRANCH   7  10
ATOM     10  C   UNL     1       1.285  -0.418   3.822  0.00  0.00    -0.023 A 
ATOM     11  C   UNL     1       0.346  -0.725   4.789  0.00  0.00    +0.006 A 
ATOM     12  C   UNL     1      -0.557   0.235   5.204  0.00  0.00    +0.000 A 
ATOM     13  C   UNL     1      -0.521   1.503   4.654  0.00  0.00    +0.000 A 
ATOM     14  C   UNL     1       0.419   1.810   3.688  0.00  0.00    +0.000 A 
ATOM     15  C   UNL     1       1.325   0.851   3.276  0.00  0.00    +0.006 A 
ENDBRANCH   7  10
BRANCH   1  16
ATOM     16  C   UNL     1       0.999  -1.838   1.188  0.00  0.00    +0.339 C 
ATOM     17  O   UNL     1       1.709  -1.567   0.238  0.00  0.00    -0.245 OA
BRANCH  16  18
ATOM     18  O   UNL     1      -0.334  -1.637   1.113  0.00  0.00    -0.462 OA
BRANCH  18  20
ATOM     19  C   UNL     1      -2.360  -0.945  -0.009  0.00  0.00    +0.048 C 
ATOM     20  C   UNL     1      -0.841  -1.103  -0.112  0.00  0.00    +0.229 C 
ENDBRANCH  18  20
ENDBRANCH  16  18
ENDBRANCH   1  16
BRANCH   2  21
ATOM     21  C   UNL     1       0.830  -4.615   1.676  0.00  0.00    -0.030 C 
BRANCH  21  22
ATOM     22  N   UNL     1       1.820  -5.534   1.099  0.00  0.00    +0.385 N 
ATOM     23  H   UNL     1       2.529  -5.005   0.614  0.00  0.00    -0.085 HD
ATOM     24  H   UNL     1       2.249  -6.073   1.837  0.00  0.00    -0.085 HD
BRANCH  22  25
ATOM     25  C   UNL     1       1.155  -6.441   0.154  0.00  0.00    -0.046 C 
BRANCH  25  26
ATOM     26  C   UNL     1       2.170  -7.384  -0.437  0.00  0.00    -0.064 A 
ATOM     27  C   UNL     1       2.844  -7.038  -1.594  0.00  0.00    +0.003 A 
ATOM     28  C   UNL     1       3.775  -7.903  -2.136  0.00  0.00    +0.020 A 
ATOM     29  C   UNL     1       4.034  -9.115  -1.522  0.00  0.00    +0.041 A 
ATOM     30  C   UNL     1       3.360  -9.461  -0.365  0.00  0.00    +0.020 A 
ATOM     31  C   UNL     1       2.432  -8.593   0.180  0.00  0.00    +0.003 A 
ATOM     32 CL   UNL     1       5.204 -10.202  -2.204  0.00  0.00    -0.084 Cl
ENDBRANCH  25  26
ENDBRANCH  22  25
ENDBRANCH  21  22
ENDBRANCH   2  21
TORSDOF 8
