REMARK  Name = ZINC21985611
REMARK  4 active torsions:
REMARK  status: ('A' for Active; 'I' for Inactive)
REMARK    1  A    between atoms: C_1  and  C_2
REMARK    2  A    between atoms: C_2  and  C_3
REMARK    3  A    between atoms: C_5  and  N_20
REMARK    4  A    between atoms: C_10  and  C_14
REMARK                            x       y       z     vdW  Elec       q    Type
REMARK                         _______ _______ _______ _____ _____    ______ ____
ROOT
ATOM      1  C   UNL     1       0.032   4.086   0.338  0.00  0.00    +0.099 C 
ATOM      2  C   UNL     1       1.235   3.264  -0.127  0.00  0.00    +0.207 C 
ATOM      3  N   UNL     1       0.973   1.838  -0.014  0.00  0.00    -0.292 N 
ATOM      4  C   UNL     1      -0.230   1.268   0.002  0.00  0.00    +0.229 C 
ATOM      5  O   UNL     1      -0.291   0.057  -0.000  0.00  0.00    -0.275 OA
ATOM      6  C   UNL     1      -1.518   2.046   0.016  0.00  0.00    +0.171 C 
ATOM      7  C   UNL     1      -1.212   3.494  -0.295  0.00  0.00    +0.156 C 
ATOM      8  O   UNL     1      -1.925   4.147  -1.019  0.00  0.00    -0.296 OA
ATOM      9  H   UNL     1       1.810   1.130   0.068  0.00  0.00    +0.151 HD
ENDROOT
BRANCH   2  10
ATOM     10  N   UNL     1       1.528   3.589  -1.526  0.00  0.00    -0.207 N 
ATOM     11  C   UNL     1       1.836   2.694  -2.485  0.00  0.00    +0.281 A 
ATOM     12  O   UNL     1       1.920   1.488  -2.346  0.00  0.00    -0.265 OA
ATOM     13  C   UNL     1       2.050   3.445  -3.732  0.00  0.00    +0.109 A 
ATOM     14  C   UNL     1       1.855   4.802  -3.421  0.00  0.00    +0.138 A 
ATOM     15  N   UNL     1       1.536   4.877  -2.071  0.00  0.00    -0.163 NA
ATOM     16  C   UNL     1       1.996   5.759  -4.415  0.00  0.00    +0.189 A 
ATOM     17  C   UNL     1       2.328   5.376  -5.704  0.00  0.00    +0.198 A 
ATOM     18  C   UNL     1       2.522   4.036  -6.013  0.00  0.00    +0.197 A 
ATOM     19  C   UNL     1       2.385   3.069  -5.035  0.00  0.00    +0.176 A 
ATOM     20  F   UNL     1       2.574   1.766  -5.337  0.00  0.00    -0.202 F 
ATOM     21  F   UNL     1       2.846   3.676  -7.274  0.00  0.00    -0.199 F 
ATOM     22  F   UNL     1       2.465   6.313  -6.668  0.00  0.00    -0.199 F 
ATOM     23  F   UNL     1       1.810   7.066  -4.125  0.00  0.00    -0.200 F 
ENDBRANCH   2  10
BRANCH   6  24
ATOM     24  C   UNL     1      -2.153   1.949   1.379  0.00  0.00    -0.028 A 
ATOM     25  C   UNL     1      -1.503   1.276   2.397  0.00  0.00    +0.005 A 
ATOM     26  C   UNL     1      -2.083   1.192   3.649  0.00  0.00    +0.000 A 
ATOM     27  C   UNL     1      -3.318   1.770   3.880  0.00  0.00    +0.000 A 
ATOM     28  C   UNL     1      -3.969   2.438   2.860  0.00  0.00    +0.000 A 
ATOM     29  C   UNL     1      -3.387   2.527   1.610  0.00  0.00    +0.005 A 
ENDBRANCH   6  24
BRANCH   1  31
ATOM     30  C   UNL     1      -1.210   4.942   2.330  0.00  0.00    +0.004 C 
ATOM     31  C   UNL     1      -0.082   4.020   1.862  0.00  0.00    +0.011 C 
ENDBRANCH   1  31
TORSDOF 3
