REMARK  Name = ZINC16225919
REMARK  8 active torsions:
REMARK  status: ('A' for Active; 'I' for Inactive)
REMARK    1  A    between atoms: C_3  and  C_10
REMARK    2  A    between atoms: C_5  and  N_7
REMARK    3  A    between atoms: C_10  and  O_11
REMARK    4  A    between atoms: O_11  and  C_12
REMARK    5  A    between atoms: C_15  and  C_18
REMARK    6  A    between atoms: C_21  and  O_35
REMARK    7  A    between atoms: C_22  and  O_34
REMARK    8  A    between atoms: C_30  and  O_33
REMARK                            x       y       z     vdW  Elec       q    Type
REMARK                         _______ _______ _______ _____ _____    ______ ____
ROOT
ATOM      1  C   UNL     1      -0.172  11.385  -2.022  0.00  0.00    +0.004 A 
ATOM      2  C   UNL     1       0.954  12.220  -1.597  0.00  0.00    +0.029 A 
ATOM      3  C   UNL     1       2.086  11.650  -1.000  0.00  0.00    +0.061 A 
ATOM      4  C   UNL     1       3.124  12.449  -0.611  0.00  0.00    +0.159 A 
ATOM      5  C   UNL     1       3.061  13.834  -0.808  0.00  0.00    +0.162 A 
ATOM      6  C   UNL     1       1.954  14.409  -1.408  0.00  0.00    +0.096 A 
ATOM      7  C   UNL     1       0.887  13.613  -1.803  0.00  0.00    +0.140 A 
ATOM      8  O   UNL     1      -0.202  14.168  -2.372  0.00  0.00    -0.455 OA
ATOM      9  C   UNL     1      -1.263  13.437  -2.772  0.00  0.00    +0.140 A 
ATOM     10  C   UNL     1      -2.349  14.067  -3.350  0.00  0.00    +0.101 A 
ATOM     11  C   UNL     1      -3.452  13.316  -3.767  0.00  0.00    +0.224 A 
ATOM     12  O   UNL     1      -4.414  13.877  -4.278  0.00  0.00    -0.284 OA
ATOM     13  C   UNL     1      -3.462  11.911  -3.601  0.00  0.00    +0.164 A 
ATOM     14  C   UNL     1      -2.398  11.283  -3.035  0.00  0.00    +0.061 A 
ATOM     15  C   UNL     1      -1.282  12.032  -2.611  0.00  0.00    +0.029 A 
ENDROOT
BRANCH   1  19
ATOM     16  C   UNL     1      -0.110   7.176  -1.486  0.00  0.00    +0.121 A 
ATOM     17  C   UNL     1      -0.117   8.015  -0.378  0.00  0.00    +0.046 A 
ATOM     18  C   UNL     1      -0.132   9.381  -0.546  0.00  0.00    +0.012 A 
ATOM     19  C   UNL     1      -0.151   9.925  -1.836  0.00  0.00    -0.016 A 
ATOM     20  C   UNL     1      -0.150   9.075  -2.949  0.00  0.00    +0.012 A 
ATOM     21  C   UNL     1      -0.129   7.711  -2.770  0.00  0.00    +0.046 A 
BRANCH  16  22
ATOM     22  O   UNL     1      -0.090   5.830  -1.315  0.00  0.00    -0.487 OA
BRANCH  22  23
ATOM     23  C   UNL     1      -0.070   5.347   0.030  0.00  0.00    +0.264 C 
BRANCH  23  26
ATOM     24  C   UNL     1       1.175   1.783   0.000  0.00  0.00    +0.003 A 
ATOM     25  C   UNL     1       1.156   3.166   0.008  0.00  0.00    +0.007 A 
ATOM     26  C   UNL     1      -0.050   3.840   0.022  0.00  0.00    -0.008 A 
ATOM     27  C   UNL     1      -1.238   3.133   0.030  0.00  0.00    +0.039 A 
ATOM     28  C   UNL     1      -1.219   1.751   0.017  0.00  0.00    +0.127 A 
ATOM     29  C   UNL     1      -0.013   1.076   0.008  0.00  0.00    +0.033 A 
BRANCH  28  30
ATOM     30  N   UNL     1      -2.491   0.993   0.019  0.00  0.00    +0.056 N 
ATOM     31  O   UNL     1      -2.474  -0.225   0.013  0.00  0.00    -0.126 OA
ATOM     32  O   UNL     1      -3.554   1.588   0.028  0.00  0.00    -0.126 OA
ENDBRANCH  28  30
ENDBRANCH  23  26
ENDBRANCH  22  23
ENDBRANCH  16  22
ENDBRANCH   1  19
BRANCH  13  33
ATOM     33  O   UNL     1      -4.539  11.188  -4.010  0.00  0.00    -0.503 OA
ATOM     34  H   UNL     1      -5.218  11.075  -3.330  0.00  0.00    +0.292 HD
ENDBRANCH  13  33
BRANCH   5  35
ATOM     35  O   UNL     1       4.098  14.617  -0.418  0.00  0.00    -0.503 OA
ATOM     36  H   UNL     1       4.770  14.748  -1.100  0.00  0.00    +0.292 HD
ENDBRANCH   5  35
BRANCH   4  37
ATOM     37  O   UNL     1       4.224  11.898  -0.031  0.00  0.00    -0.503 OA
ATOM     38  H   UNL     1       4.914  11.642  -0.658  0.00  0.00    +0.292 HD
ENDBRANCH   4  37
TORSDOF 8
