REMARK  Name = ZINC39984043
REMARK  7 active torsions:
REMARK  status: ('A' for Active; 'I' for Inactive)
REMARK    1  A    between atoms: C_1  and  C_2
REMARK    2  A    between atoms: C_5  and  S_8
REMARK    3  A    between atoms: S_8  and  N_11
REMARK    4  A    between atoms: C_13  and  N_23
REMARK    5  A    between atoms: N_23  and  C_24
REMARK    6  A    between atoms: C_29  and  C_30
REMARK    7  A    between atoms: C_30  and  O_32
REMARK                            x       y       z     vdW  Elec       q    Type
REMARK                         _______ _______ _______ _____ _____    ______ ____
ROOT
ATOM      1  N   UNL     1       1.498  -5.196  -0.268  0.00  0.00    -0.110 NA
ATOM      2  C   UNL     1       1.924  -6.420  -0.164  0.00  0.00    +0.192 C 
ATOM      3  C   UNL     1       3.404  -6.710  -0.052  0.00  0.00    +0.237 C 
ATOM      4  N   UNL     1       3.821  -8.116   0.064  0.00  0.00    -0.359 N 
ATOM      5  C   UNL     1       2.902  -9.040   0.066  0.00  0.00    +0.063 A 
ATOM      6  C   UNL     1       3.267 -10.460   0.179  0.00  0.00    +0.027 A 
ATOM      7  C   UNL     1       2.285 -11.389   0.177  0.00  0.00    +0.002 A 
ATOM      8  C   UNL     1       0.931 -11.032   0.070  0.00  0.00    +0.002 A 
ATOM      9  C   UNL     1       0.519  -9.750  -0.038  0.00  0.00    +0.030 A 
ATOM     10  C   UNL     1       1.464  -8.693  -0.047  0.00  0.00    +0.089 A 
ATOM     11  N   UNL     1       1.057  -7.444  -0.148  0.00  0.00    -0.226 NA
ATOM     12  H   UNL     1       4.760  -8.350   0.138  0.00  0.00    +0.162 HD
ENDROOT
BRANCH   1  13
ATOM     13  S   UNL     1      -0.126  -4.892  -0.383  0.00  0.00    +0.100 S 
ATOM     14  O   UNL     1      -0.700  -5.276   0.858  0.00  0.00    -0.146 OA
ATOM     15  O   UNL     1      -0.555  -5.438  -1.623  0.00  0.00    -0.146 OA
BRANCH  13  20
ATOM     16  C   UNL     1      -0.797   1.089  -0.812  0.00  0.00    +0.044 C 
ATOM     17  C   UNL     1      -0.629  -0.405  -0.705  0.00  0.00    -0.050 A 
ATOM     18  C   UNL     1      -0.482  -1.167  -1.849  0.00  0.00    +0.005 A 
ATOM     19  C   UNL     1      -0.328  -2.538  -1.750  0.00  0.00    +0.029 A 
ATOM     20  C   UNL     1      -0.321  -3.145  -0.508  0.00  0.00    +0.113 A 
ATOM     21  C   UNL     1      -0.468  -2.382   0.635  0.00  0.00    +0.029 A 
ATOM     22  C   UNL     1      -0.617  -1.011   0.537  0.00  0.00    +0.005 A 
ENDBRANCH  13  20
ENDBRANCH   1  13
BRANCH   3  23
ATOM     23  N   UNL     1       4.061  -6.146  -1.234  0.00  0.00    -0.317 N 
ATOM     24  H   UNL     1       3.663  -6.260  -2.111  0.00  0.00    +0.148 HD
BRANCH  23  25
ATOM     25  C   UNL     1       5.253  -5.447  -1.098  0.00  0.00    +0.044 A 
ATOM     26  C   UNL     1       5.900  -5.402   0.130  0.00  0.00    +0.043 A 
ATOM     27  C   UNL     1       7.085  -4.706   0.262  0.00  0.00    +0.043 A 
ATOM     28  C   UNL     1       7.639  -4.048  -0.827  0.00  0.00    +0.021 A 
ATOM     29  C   UNL     1       7.011  -4.081  -2.052  0.00  0.00    +0.018 A 
ATOM     30  C   UNL     1       5.813  -4.786  -2.203  0.00  0.00    +0.080 A 
ATOM     31 CL   UNL     1       7.888  -4.654   1.801  0.00  0.00    -0.083 Cl
BRANCH  30  32
ATOM     32  C   UNL     1       5.140  -4.830  -3.512  0.00  0.00    +0.339 C 
ATOM     33  O   UNL     1       4.046  -5.349  -3.615  0.00  0.00    -0.245 OA
BRANCH  32  34
ATOM     34  O   UNL     1       5.737  -4.295  -4.595  0.00  0.00    -0.477 OA
ATOM     35  H   UNL     1       5.220  -4.372  -5.408  0.00  0.00    +0.295 HD
ENDBRANCH  32  34
ENDBRANCH  30  32
ENDBRANCH  23  25
ENDBRANCH   3  23
TORSDOF 6
