REMARK  Name = ZINC11196001
REMARK  8 active torsions:
REMARK  status: ('A' for Active; 'I' for Inactive)
REMARK    1  A    between atoms: C_1  and  C_2
REMARK    2  A    between atoms: C_2  and  C_3
REMARK    3  A    between atoms: C_8  and  N_9
REMARK    4  A    between atoms: C_12  and  C_17
REMARK    5  A    between atoms: C_17  and  S_18
REMARK    6  A    between atoms: S_18  and  C_19
REMARK    7  A    between atoms: N_29  and  C_30
REMARK    8  A    between atoms: C_30  and  C_31
REMARK                            x       y       z     vdW  Elec       q    Type
REMARK                         _______ _______ _______ _____ _____    ______ ____
ROOT
ATOM      1  N   UNL     1       5.536   6.679   2.162  0.00  0.00    -0.283 N 
ATOM      2  C   UNL     1       4.242   6.800   1.692  0.00  0.00    +0.224 A 
ATOM      3  N   UNL     1       3.304   5.945   2.094  0.00  0.00    -0.198 NA
ATOM      4  C   UNL     1       2.068   6.057   1.640  0.00  0.00    +0.146 A 
ATOM      5  N   UNL     1       1.755   7.023   0.795  0.00  0.00    -0.199 NA
ATOM      6  C   UNL     1       2.686   7.886   0.393  0.00  0.00    +0.217 A 
ATOM      7  N   UNL     1       3.932   7.773   0.843  0.00  0.00    -0.181 NA
ATOM      8  N   UNL     1       2.359   8.894  -0.489  0.00  0.00    -0.327 N 
ATOM      9  H   UNL     1       5.744   6.023   2.846  0.00  0.00    +0.155 HD
ATOM     10  H   UNL     1       1.450   8.976  -0.817  0.00  0.00    +0.145 HD
ATOM     11  H   UNL     1       3.038   9.522  -0.782  0.00  0.00    +0.145 HD
ENDROOT
BRANCH   1  17
ATOM     12  C   UNL     1       7.676   7.768   2.411  0.00  0.00    -0.026 A 
ATOM     13  C   UNL     1       8.672   8.580   1.904  0.00  0.00    +0.005 A 
ATOM     14  C   UNL     1       8.542   9.128   0.641  0.00  0.00    +0.000 A 
ATOM     15  C   UNL     1       7.417   8.865  -0.118  0.00  0.00    +0.002 A 
ATOM     16  C   UNL     1       6.420   8.050   0.381  0.00  0.00    +0.023 A 
ATOM     17  C   UNL     1       6.545   7.502   1.652  0.00  0.00    +0.037 A 
BRANCH  12  19
ATOM     18  C   UNL     1       8.405   5.762   3.675  0.00  0.00    +0.009 C 
ATOM     19  C   UNL     1       7.818   7.171   3.788  0.00  0.00    +0.033 C 
ENDBRANCH  12  19
ENDBRANCH   1  17
BRANCH   4  20
ATOM     20  C   UNL     1       1.011   5.083   2.093  0.00  0.00    +0.153 C 
BRANCH  20  21
ATOM     21  S   UNL     1       0.969   3.670   0.962  0.00  0.00    -0.080 S 
BRANCH  21  22
ATOM     22  C   UNL     1      -0.315   2.720   1.707  0.00  0.00    +0.173 A 
ATOM     23  N   UNL     1      -0.895   3.190   2.784  0.00  0.00    -0.223 NA
ATOM     24  C   UNL     1      -1.879   2.513   3.409  0.00  0.00    +0.079 A 
ATOM     25  C   UNL     1      -2.494   3.012   4.561  0.00  0.00    +0.028 A 
ATOM     26  C   UNL     1      -3.489   2.293   5.162  0.00  0.00    +0.002 A 
ATOM     27  C   UNL     1      -3.900   1.071   4.645  0.00  0.00    +0.001 A 
ATOM     28  C   UNL     1      -3.319   0.558   3.518  0.00  0.00    +0.015 A 
ATOM     29  C   UNL     1      -2.301   1.270   2.885  0.00  0.00    +0.065 A 
ATOM     30  C   UNL     1      -1.640   0.767   1.673  0.00  0.00    +0.262 A 
ATOM     31  O   UNL     1      -1.959  -0.296   1.175  0.00  0.00    -0.267 OA
ATOM     32  N   UNL     1      -0.663   1.532   1.131  0.00  0.00    -0.285 N 
BRANCH  32  33
ATOM     33  C   UNL     1       0.029   1.079  -0.078  0.00  0.00    +0.159 C 
BRANCH  33  34
ATOM     34  C   UNL     1      -0.711   1.596  -1.313  0.00  0.00    +0.138 C 
ATOM     35  C   UNL     1      -0.036   1.069  -2.604  0.00  0.00    +0.035 C 
ATOM     36  C   UNL     1      -1.222   1.131  -3.604  0.00  0.00    +0.031 C 
ATOM     37  C   UNL     1      -2.429   0.796  -2.702  0.00  0.00    +0.160 C 
ATOM     38  O   UNL     1      -2.048   1.073  -1.349  0.00  0.00    -0.375 OA
ENDBRANCH  33  34
ENDBRANCH  32  33
ENDBRANCH  21  22
ENDBRANCH  20  21
ENDBRANCH   4  20
TORSDOF 7
