REMARK  Name = ZINC67567053
REMARK  5 active torsions:
REMARK  status: ('A' for Active; 'I' for Inactive)
REMARK    1  A    between atoms: C_1  and  N_2
REMARK    2  A    between atoms: N_2  and  C_3
REMARK    3  A    between atoms: C_3  and  C_4
REMARK    4  A    between atoms: N_16  and  C_17
REMARK    5  A    between atoms: C_20  and  C_22
REMARK                            x       y       z     vdW  Elec       q    Type
REMARK                         _______ _______ _______ _____ _____    ______ ____
ROOT
ATOM      1  C   UNL     1      -0.018   1.461   0.010  0.00  0.00    +0.134 C 
ATOM      2  N   UNL     1       0.002  -0.004   0.002  0.00  0.00    -0.284 N 
ATOM      3  C   UNL     1       0.000  -0.672  -1.169  0.00  0.00    +0.302 C 
ATOM      4  O   UNL     1       0.017  -1.887  -1.175  0.00  0.00    -0.253 OA
ATOM      5  N   UNL     1      -0.020   0.009  -2.332  0.00  0.00    -0.296 N 
ATOM      6  H   UNL     1      -0.033   0.978  -2.327  0.00  0.00    +0.151 HD
ENDROOT
BRANCH   5   7
ATOM      7  C   UNL     1      -0.022  -0.717  -3.605  0.00  0.00    +0.082 C 
ATOM      8  C   UNL     1       0.899  -0.203  -4.713  0.00  0.00    +0.033 C 
ATOM      9  C   UNL     1      -0.615  -0.006  -4.823  0.00  0.00    +0.041 C 
BRANCH   9  10
ATOM     10  C   UNL     1      -1.355  -0.849  -5.829  0.00  0.00    -0.040 A 
ATOM     11  C   UNL     1      -0.704  -1.882  -6.478  0.00  0.00    +0.004 A 
ATOM     12  C   UNL     1      -1.382  -2.656  -7.401  0.00  0.00    +0.003 A 
ATOM     13  C   UNL     1      -2.711  -2.397  -7.677  0.00  0.00    +0.038 A 
ATOM     14  C   UNL     1      -3.365  -1.364  -7.028  0.00  0.00    +0.124 A 
ATOM     15  C   UNL     1      -2.686  -0.593  -6.099  0.00  0.00    +0.042 A 
ATOM     16  F   UNL     1      -4.664  -1.110  -7.298  0.00  0.00    -0.205 F 
ENDBRANCH   9  10
ENDBRANCH   5   7
BRANCH   2  17
ATOM     17  C   UNL     1       0.024  -0.743   1.267  0.00  0.00    +0.144 C 
BRANCH  17  18
ATOM     18  C   UNL     1      -1.389  -1.016   1.714  0.00  0.00    -0.026 A 
ATOM     19  C   UNL     1      -2.046  -0.104   2.518  0.00  0.00    +0.009 A 
ATOM     20  C   UNL     1      -3.342  -0.351   2.932  0.00  0.00    +0.050 A 
ATOM     21  C   UNL     1      -3.986  -1.516   2.539  0.00  0.00    +0.162 A 
ATOM     22  C   UNL     1      -3.326  -2.431   1.728  0.00  0.00    +0.162 A 
ATOM     23  C   UNL     1      -2.027  -2.175   1.314  0.00  0.00    +0.054 A 
ATOM     24  O   UNL     1      -3.942  -3.576   1.326  0.00  0.00    -0.485 OA
ATOM     25  C   UNL     1      -5.107  -3.972   2.058  0.00  0.00    +0.270 C 
ATOM     26  C   UNL     1      -6.003  -2.739   2.240  0.00  0.00    +0.270 C 
ATOM     27  O   UNL     1      -5.260  -1.747   2.958  0.00  0.00    -0.485 OA
ENDBRANCH  17  18
ENDBRANCH   2  17
TORSDOF 4
