REMARK  Name = ZINC35714732
REMARK  11 active torsions:
REMARK  status: ('A' for Active; 'I' for Inactive)
REMARK    1  A    between atoms: C_1  and  C_2
REMARK    2  A    between atoms: C_2  and  N_3
REMARK    3  A    between atoms: N_3  and  C_4
REMARK    4  A    between atoms: N_3  and  C_6
REMARK    5  A    between atoms: C_4  and  C_5
REMARK    6  A    between atoms: C_6  and  C_7
REMARK    7  A    between atoms: C_7  and  N_8
REMARK    8  A    between atoms: N_8  and  C_9
REMARK    9  A    between atoms: C_9  and  C_10
REMARK   10  A    between atoms: C_22  and  C_25
REMARK   11  A    between atoms: C_32  and  C_34
REMARK                            x       y       z     vdW  Elec       q    Type
REMARK                         _______ _______ _______ _____ _____    ______ ____
ROOT
ATOM      1  C   UNL     1       1.490  -5.369   3.123  0.00  0.00    +0.233 C 
ATOM      2  O   UNL     1       1.418  -4.708   4.138  0.00  0.00    -0.274 OA
ATOM      3  N   UNL     1       2.561  -6.157   2.906  0.00  0.00    -0.299 N 
ATOM      4  C   UNL     1       3.606  -6.184   3.930  0.00  0.00    +0.109 C 
ATOM      5  C   UNL     1       3.374  -7.399   4.805  0.00  0.00    +0.038 C 
ATOM      6  C   UNL     1       4.054  -8.629   4.198  0.00  0.00    +0.108 C 
ATOM      7  N   UNL     1       3.895  -8.700   2.737  0.00  0.00    -0.312 N 
ATOM      8  C   UNL     1       2.643  -8.417   2.058  0.00  0.00    +0.125 C 
ATOM      9  C   UNL     1       2.595  -6.910   1.701  0.00  0.00    +0.126 C 
ATOM     10  C   UNL     1       4.998  -9.054   1.969  0.00  0.00    +0.144 A 
ATOM     11  C   UNL     1       6.145  -9.559   2.584  0.00  0.00    +0.047 A 
ATOM     12  C   UNL     1       7.218  -9.898   1.779  0.00  0.00    +0.033 A 
ATOM     13  C   UNL     1       7.086  -9.713   0.398  0.00  0.00    +0.093 A 
ATOM     14  N   UNL     1       5.956  -9.227  -0.097  0.00  0.00    -0.147 NA
ATOM     15  N   UNL     1       4.960  -8.918   0.652  0.00  0.00    -0.134 NA
ENDROOT
BRANCH  13  16
ATOM     16  C   UNL     1       8.207 -10.061  -0.509  0.00  0.00    +0.002 A 
ATOM     17  C   UNL     1       9.392 -10.577   0.011  0.00  0.00    +0.013 A 
ATOM     18  C   UNL     1      10.432 -10.899  -0.836  0.00  0.00    +0.039 A 
ATOM     19  C   UNL     1      10.299 -10.709  -2.203  0.00  0.00    +0.123 A 
ATOM     20  C   UNL     1       9.123 -10.196  -2.724  0.00  0.00    +0.039 A 
ATOM     21  C   UNL     1       8.075  -9.877  -1.884  0.00  0.00    +0.013 A 
ATOM     22  F   UNL     1      11.320 -11.025  -3.029  0.00  0.00    -0.205 F 
ENDBRANCH  13  16
BRANCH   1  23
ATOM     23  C   UNL     1       0.381  -5.308   2.105  0.00  0.00    +0.203 C 
BRANCH  23  24
ATOM     24  N   UNL     1      -0.660  -4.387   2.570  0.00  0.00    -0.294 N 
ATOM     25  C   UNL     1      -1.680  -4.847   3.321  0.00  0.00    +0.219 C 
ATOM     26  O   UNL     1      -1.737  -6.024   3.612  0.00  0.00    -0.275 OA
BRANCH  25  27
ATOM     27  C   UNL     1      -2.750  -3.901   3.800  0.00  0.00    +0.075 C 
ATOM     28  C   UNL     1      -2.812  -3.605   5.300  0.00  0.00    +0.013 C 
ATOM     29  C   UNL     1      -3.881  -4.484   4.649  0.00  0.00    +0.013 C 
ENDBRANCH  25  27
BRANCH  24  30
ATOM     30  C   UNL     1      -0.591  -2.966   2.219  0.00  0.00    +0.090 C 
BRANCH  30  31
ATOM     31  C   UNL     1      -1.331  -2.730   0.901  0.00  0.00    -0.060 C 
BRANCH  31  32
ATOM     32  N   UNL     1      -1.262  -1.306   0.549  0.00  0.00    +0.380 N 
ATOM     33  H   UNL     1      -1.618  -0.753   1.315  0.00  0.00    -0.082 HD
BRANCH  32  35
ATOM     34  C   UNL     1       0.225   0.577   0.057  0.00  0.00    -0.017 C 
ATOM     35  C   UNL     1       0.134  -0.934   0.283  0.00  0.00    -0.082 C 
ENDBRANCH  32  35
BRANCH  32  36
ATOM     36  C   UNL     1      -2.072  -1.058  -0.651  0.00  0.00    -0.082 C 
ATOM     37  C   UNL     1      -3.547  -1.308  -0.331  0.00  0.00    -0.017 C 
ENDBRANCH  32  36
ENDBRANCH  31  32
ENDBRANCH  30  31
ENDBRANCH  24  30
ENDBRANCH  23  24
ENDBRANCH   1  23
TORSDOF 9
