REMARK  Name = ZINC02645512
REMARK  6 active torsions:
REMARK  status: ('A' for Active; 'I' for Inactive)
REMARK    1  A    between atoms: C_2  and  C_31
REMARK    2  A    between atoms: C_4  and  O_11
REMARK    3  A    between atoms: C_6  and  C_7
REMARK    4  A    between atoms: O_11  and  C_12
REMARK    5  A    between atoms: C_19  and  C_21
REMARK    6  A    between atoms: C_21  and  N_58
REMARK                            x       y       z     vdW  Elec       q    Type
REMARK                         _______ _______ _______ _____ _____    ______ ____
ROOT
ATOM      1  C   UNL     1       6.514   0.336   1.612  0.00  0.00    +0.232 A 
ATOM      2  C   UNL     1       6.698   1.486   2.427  0.00  0.00    +0.073 A 
ATOM      3  C   UNL     1       7.888   2.328   2.568  0.00  0.00    -0.023 A 
ATOM      4  C   UNL     1       7.801   3.371   3.417  0.00  0.00    -0.004 A 
ATOM      5  S   UNL     1       6.154   3.300   4.072  0.00  0.00    -0.073 S 
ATOM      6  C   UNL     1       5.583   1.864   3.202  0.00  0.00    +0.116 A 
ATOM      7  N   UNL     1       4.454   1.185   3.161  0.00  0.00    -0.227 NA
ATOM      8  C   UNL     1       4.343   0.125   2.384  0.00  0.00    +0.118 A 
ATOM      9  N   UNL     1       5.350  -0.289   1.635  0.00  0.00    -0.199 NA
ATOM     10  C   UNL     1       8.868   4.373   3.736  0.00  0.00    +0.043 C 
ATOM     11  C   UNL     1      10.212   3.827   3.233  0.00  0.00    +0.005 C 
ATOM     12  C   UNL     1      10.030   3.322   1.798  0.00  0.00    +0.005 C 
ATOM     13  C   UNL     1       9.177   2.054   1.799  0.00  0.00    +0.037 C 
ENDROOT
BRANCH   1  14
ATOM     14  O   UNL     1       7.521  -0.117   0.827  0.00  0.00    -0.437 OA
BRANCH  14  18
ATOM     15  C   UNL     1       6.928  -3.635  -1.243  0.00  0.00    +0.025 A 
ATOM     16  C   UNL     1       6.346  -2.464  -1.692  0.00  0.00    +0.059 A 
ATOM     17  C   UNL     1       6.543  -1.285  -1.000  0.00  0.00    +0.058 A 
ATOM     18  C   UNL     1       7.326  -1.276   0.145  0.00  0.00    +0.131 A 
ATOM     19  C   UNL     1       7.914  -2.451   0.590  0.00  0.00    +0.058 A 
ATOM     20  C   UNL     1       7.709  -3.629  -0.102  0.00  0.00    +0.059 A 
BRANCH  20  21
ATOM     21  C   UNL     1       8.342  -4.907   0.384  0.00  0.00    +0.418 C 
ATOM     22  F   UNL     1       9.606  -5.053  -0.198  0.00  0.00    -0.166 F 
ATOM     23  F   UNL     1       8.472  -4.864   1.776  0.00  0.00    -0.166 F 
ATOM     24  F   UNL     1       7.536  -5.993   0.025  0.00  0.00    -0.166 F 
ENDBRANCH  20  21
BRANCH  16  25
ATOM     25  C   UNL     1       5.496  -2.475  -2.936  0.00  0.00    +0.418 C 
ATOM     26  F   UNL     1       5.020  -1.183  -3.187  0.00  0.00    -0.166 F 
ATOM     27  F   UNL     1       6.264  -2.908  -4.022  0.00  0.00    -0.166 F 
ATOM     28  F   UNL     1       4.414  -3.343  -2.754  0.00  0.00    -0.166 F 
ENDBRANCH  16  25
ENDBRANCH  14  18
ENDBRANCH   1  14
BRANCH   8  29
ATOM     29  C   UNL     1       3.042  -0.634   2.353  0.00  0.00    -0.001 C 
BRANCH  29  35
ATOM     30  C   UNL     1       0.815  -0.627   1.403  0.00  0.00    -0.078 C 
ATOM     31  C   UNL     1      -0.019  -0.137   0.217  0.00  0.00    -0.019 C 
ATOM     32  C   UNL     1      -0.067   1.393   0.231  0.00  0.00    -0.004 C 
ATOM     33  C   UNL     1       1.362   1.941   0.180  0.00  0.00    -0.019 C 
ATOM     34  C   UNL     1       2.156   1.391   1.367  0.00  0.00    -0.078 C 
ATOM     35  N   UNL     1       2.185  -0.084   1.282  0.00  0.00    +0.384 N 
ATOM     36  H   UNL     1       2.573  -0.358   0.372  0.00  0.00    -0.081 HD
ENDBRANCH  29  35
ENDBRANCH   8  29
TORSDOF 6
