REMARK  Name = ZINC21123639
REMARK  10 active torsions:
REMARK  status: ('A' for Active; 'I' for Inactive)
REMARK    1  A    between atoms: C_1  and  C_2
REMARK    2  A    between atoms: C_2  and  C_3
REMARK    3  A    between atoms: C_2  and  O_4
REMARK    4  A    between atoms: O_4  and  C_5
REMARK    5  A    between atoms: C_5  and  C_7
REMARK    6  A    between atoms: C_10  and  N_13
REMARK    7  A    between atoms: C_14  and  C_16
REMARK    8  A    between atoms: C_17  and  C_18
REMARK    9  A    between atoms: C_23  and  O_24
REMARK   10  A    between atoms: O_24  and  C_25
REMARK                            x       y       z     vdW  Elec       q    Type
REMARK                         _______ _______ _______ _____ _____    ______ ____
ROOT
ATOM      1  N   UNL     1       1.231  -2.078  -0.021  0.00  0.00    -0.282 N 
ATOM      2  C   UNL     1       2.400  -2.738  -0.138  0.00  0.00    +0.241 C 
ATOM      3  O   UNL     1       3.450  -2.122  -0.144  0.00  0.00    -0.270 OA
ATOM      4  H   UNL     1       0.289  -2.639   0.072  0.00  0.00    +0.155 HD
ENDROOT
BRANCH   1   8
ATOM      5  C   UNL     1       1.185   2.086  -0.014  0.00  0.00    +0.059 A 
ATOM      6  C   UNL     1       2.129   1.397  -0.781  0.00  0.00    +0.017 A 
ATOM      7  C   UNL     1       2.141   0.021  -0.781  0.00  0.00    +0.024 A 
ATOM      8  C   UNL     1       1.215  -0.685  -0.019  0.00  0.00    +0.034 A 
ATOM      9  C   UNL     1       0.274  -0.003   0.746  0.00  0.00    +0.024 A 
ATOM     10  C   UNL     1       0.256   1.373   0.750  0.00  0.00    +0.017 A 
BRANCH   5  11
ATOM     11  C   UNL     1       1.168   3.560  -0.011  0.00  0.00    +0.339 C 
ATOM     12  O   UNL     1       1.976   4.178  -0.676  0.00  0.00    -0.245 OA
BRANCH  11  13
ATOM     13  O   UNL     1       0.258   4.223   0.729  0.00  0.00    -0.458 OA
BRANCH  13  15
ATOM     14  C   UNL     1      -1.107   6.232   0.900  0.00  0.00    +0.052 C 
ATOM     15  C   UNL     1       0.301   5.673   0.684  0.00  0.00    +0.171 C 
ATOM     16  C   UNL     1       1.229   6.190   1.785  0.00  0.00    +0.052 C 
ENDBRANCH  13  15
ENDBRANCH  11  13
ENDBRANCH   5  11
ENDBRANCH   1   8
BRANCH   2  17
ATOM     17  C   UNL     1       2.408  -4.195  -0.256  0.00  0.00    +0.068 C 
ATOM     18  C   UNL     1       3.579  -4.857  -0.373  0.00  0.00    +0.016 C 
BRANCH  18  19
ATOM     19  C   UNL     1       3.587  -6.322  -0.492  0.00  0.00    +0.019 A 
ATOM     20  C   UNL     1       2.383  -7.035  -0.479  0.00  0.00    +0.027 A 
ATOM     21  C   UNL     1       2.397  -8.408  -0.598  0.00  0.00    +0.020 A 
ATOM     22  C   UNL     1       3.600  -9.088  -0.717  0.00  0.00    +0.034 A 
ATOM     23  C   UNL     1       4.796  -8.396  -0.725  0.00  0.00    +0.061 A 
ATOM     24  C   UNL     1       4.802  -7.014  -0.614  0.00  0.00    +0.141 A 
ATOM     25 BR   UNL     1       6.429  -9.336  -0.890  0.00  0.00    -0.046 Br
ATOM     26 BR   UNL     1       0.770  -9.371  -0.588  0.00  0.00    -0.050 Br
BRANCH  24  27
ATOM     27  O   UNL     1       5.976  -6.334  -0.621  0.00  0.00    -0.493 OA
ATOM     28  C   UNL     1       6.605  -6.112   0.642  0.00  0.00    +0.277 C 
ENDBRANCH  24  27
ENDBRANCH  18  19
ENDBRANCH   2  17
TORSDOF 7
