REMARK  Name = ZINC39596749
REMARK  7 active torsions:
REMARK  status: ('A' for Active; 'I' for Inactive)
REMARK    1  A    between atoms: C_1  and  C_2
REMARK    2  A    between atoms: C_2  and  C_4
REMARK    3  A    between atoms: C_2  and  N_10
REMARK    4  A    between atoms: C_11  and  C_13
REMARK    5  A    between atoms: C_24  and  C_26
REMARK    6  A    between atoms: C_29  and  O_32
REMARK    7  A    between atoms: O_32  and  C_33
REMARK                            x       y       z     vdW  Elec       q    Type
REMARK                         _______ _______ _______ _____ _____    ______ ____
ROOT
ATOM      1  C   UNL     1      -4.043  -1.423  -0.875  0.00  0.00    +0.100 C 
ATOM      2  C   UNL     1      -4.679  -0.290  -0.039  0.00  0.00    +0.121 C 
ATOM      3  N   UNL     1      -5.230   0.652  -1.042  0.00  0.00    -0.296 N 
ATOM      4  C   UNL     1      -5.793  -0.223  -2.098  0.00  0.00    +0.115 C 
ATOM      5  C   UNL     1      -4.779  -1.378  -2.225  0.00  0.00    -0.004 C 
ATOM      6  C   UNL     1      -5.508  -2.695  -2.473  0.00  0.00    -0.010 C 
ATOM      7  C   UNL     1      -6.184  -2.649  -3.846  0.00  0.00    -0.082 C 
ATOM      8  N   UNL     1      -5.171  -2.423  -4.885  0.00  0.00    +0.379 N 
ATOM      9  C   UNL     1      -4.540  -1.112  -4.692  0.00  0.00    -0.082 C 
ATOM     10  C   UNL     1      -3.794  -1.094  -3.355  0.00  0.00    -0.010 C 
ATOM     11  C   UNL     1      -5.223   1.999  -1.002  0.00  0.00    +0.247 C 
ATOM     12  O   UNL     1      -4.611   2.578  -0.125  0.00  0.00    -0.270 OA
ATOM     13  H   UNL     1      -4.468  -3.145  -4.830  0.00  0.00    -0.086 HD
ATOM     14  H   UNL     1      -5.610  -2.454  -5.793  0.00  0.00    -0.086 HD
ENDROOT
BRANCH  11  15
ATOM     15  C   UNL     1      -5.959   2.771  -2.022  0.00  0.00    +0.037 A 
ATOM     16  C   UNL     1      -6.994   2.171  -2.744  0.00  0.00    +0.016 A 
ATOM     17  C   UNL     1      -7.678   2.895  -3.694  0.00  0.00    +0.047 A 
ATOM     18  C   UNL     1      -7.340   4.221  -3.936  0.00  0.00    +0.130 A 
ATOM     19  C   UNL     1      -6.311   4.822  -3.220  0.00  0.00    +0.047 A 
ATOM     20  C   UNL     1      -5.626   4.107  -2.264  0.00  0.00    +0.016 A 
BRANCH  18  21
ATOM     21  O   UNL     1      -8.017   4.932  -4.875  0.00  0.00    -0.406 OA
BRANCH  21  22
ATOM     22  C   UNL     1      -7.618   6.290  -5.072  0.00  0.00    +0.575 C 
ATOM     23  F   UNL     1      -6.276   6.329  -5.466  0.00  0.00    -0.133 F 
ATOM     24  F   UNL     1      -8.413   6.869  -6.067  0.00  0.00    -0.133 F 
ATOM     25  F   UNL     1      -7.774   7.000  -3.878  0.00  0.00    -0.133 F 
ENDBRANCH  21  22
ENDBRANCH  18  21
ENDBRANCH  11  15
BRANCH   1  27
ATOM     26  N   UNL     1      -1.737  -2.194  -1.331  0.00  0.00    -0.308 N 
ATOM     27  C   UNL     1      -2.571  -1.167  -1.072  0.00  0.00    +0.219 C 
ATOM     28  O   UNL     1      -2.136  -0.037  -0.997  0.00  0.00    -0.275 OA
ATOM     29  H   UNL     1      -2.085  -3.098  -1.391  0.00  0.00    +0.149 HD
BRANCH  26  31
ATOM     30  C   UNL     1       0.392  -1.914  -0.161  0.00  0.00    +0.033 C 
ATOM     31  C   UNL     1      -0.306  -1.945  -1.522  0.00  0.00    +0.100 C 
BRANCH  31  32
ATOM     32  C   UNL     1       0.286  -3.045  -2.366  0.00  0.00    -0.027 A 
ATOM     33  C   UNL     1      -0.114  -4.354  -2.175  0.00  0.00    +0.005 A 
ATOM     34  C   UNL     1       0.430  -5.363  -2.948  0.00  0.00    +0.000 A 
ATOM     35  C   UNL     1       1.373  -5.062  -3.913  0.00  0.00    +0.000 A 
ATOM     36  C   UNL     1       1.772  -3.752  -4.105  0.00  0.00    +0.000 A 
ATOM     37  C   UNL     1       1.225  -2.743  -3.334  0.00  0.00    +0.005 A 
ENDBRANCH  31  32
ENDBRANCH  26  31
ENDBRANCH   1  27
TORSDOF 6
