REMARK  Name = ZINC34830421
REMARK  6 active torsions:
REMARK  status: ('A' for Active; 'I' for Inactive)
REMARK    1  A    between atoms: C_1  and  C_2
REMARK    2  A    between atoms: C_7  and  C_8
REMARK    3  A    between atoms: N_17  and  C_18
REMARK    4  A    between atoms: C_18  and  C_20
REMARK    5  A    between atoms: C_18  and  C_21
REMARK    6  A    between atoms: C_30  and  C_32
REMARK                            x       y       z     vdW  Elec       q    Type
REMARK                         _______ _______ _______ _____ _____    ______ ____
ROOT
ATOM      1  C   UNL     1       2.217  -1.616   3.691  0.00  0.00    +0.018 C 
ATOM      2  C   UNL     1       3.029  -2.684   4.425  0.00  0.00    -0.004 C 
ENDROOT
BRANCH   1   3
ATOM      3  C   UNL     1       2.059  -2.010   2.244  0.00  0.00    +0.202 C 
ATOM      4  O   UNL     1       1.060  -2.591   1.880  0.00  0.00    -0.277 OA
ATOM      5  N   UNL     1       3.029  -1.715   1.356  0.00  0.00    -0.301 N 
ATOM      6  C   UNL     1       2.865  -1.968  -0.033  0.00  0.00    +0.109 C 
ATOM      7  C   UNL     1       3.200  -3.431  -0.472  0.00  0.00    +0.038 C 
ATOM      8  C   UNL     1       4.438  -3.895   0.364  0.00  0.00    +0.109 C 
ATOM      9  N   UNL     1       5.414  -2.887   0.587  0.00  0.00    -0.296 N 
ATOM     10  C   UNL     1       5.340  -2.148   1.874  0.00  0.00    +0.127 C 
ATOM     11  C   UNL     1       4.315  -1.106   1.785  0.00  0.00    +0.126 C 
ATOM     12  C   UNL     1       6.365  -2.614  -0.328  0.00  0.00    +0.247 C 
ATOM     13  O   UNL     1       6.333  -3.152  -1.417  0.00  0.00    -0.270 OA
BRANCH  12  14
ATOM     14  C   UNL     1       7.447  -1.659  -0.006  0.00  0.00    +0.040 A 
ATOM     15  C   UNL     1       8.731  -1.857  -0.516  0.00  0.00    +0.013 A 
ATOM     16  C   UNL     1       9.737  -0.963  -0.213  0.00  0.00    +0.004 A 
ATOM     17  C   UNL     1       9.477   0.130   0.594  0.00  0.00    +0.038 A 
ATOM     18  C   UNL     1       8.205   0.334   1.104  0.00  0.00    +0.124 A 
ATOM     19  C   UNL     1       7.187  -0.552   0.803  0.00  0.00    +0.051 A 
ATOM     20  F   UNL     1       7.957   1.403   1.892  0.00  0.00    -0.205 F 
ENDBRANCH  12  14
ENDBRANCH   1   3
BRANCH   1  29
ATOM     21  C   UNL     1       1.037  -0.904   5.648  0.00  0.00    -0.005 C 
ATOM     22  C   UNL     1      -0.329  -0.877   6.327  0.00  0.00    -0.047 A 
ATOM     23  C   UNL     1      -0.646  -0.058   7.407  0.00  0.00    +0.010 A 
ATOM     24  C   UNL     1      -1.887  -0.099   7.946  0.00  0.00    +0.045 A 
ATOM     25  S   UNL     1      -2.691  -1.328   6.928  0.00  0.00    -0.101 S 
ATOM     26  C   UNL     1      -1.320  -1.693   5.870  0.00  0.00    -0.010 A 
ATOM     27  C   UNL     1      -1.222  -2.658   4.735  0.00  0.00    +0.024 C 
ATOM     28  C   UNL     1       0.270  -2.824   4.395  0.00  0.00    -0.071 C 
ATOM     29  N   UNL     1       0.892  -1.495   4.312  0.00  0.00    +0.395 N 
ATOM     30  H   UNL     1       0.313  -0.894   3.745  0.00  0.00    -0.079 HD
BRANCH  21  37
ATOM     31  C   UNL     1       2.578   0.254   7.800  0.00  0.00    +0.044 C 
ATOM     32  C   UNL     1       2.305   1.056   6.553  0.00  0.00    -0.049 A 
ATOM     33  C   UNL     1       2.796   2.343   6.437  0.00  0.00    +0.003 A 
ATOM     34  C   UNL     1       2.545   3.077   5.293  0.00  0.00    +0.000 A 
ATOM     35  C   UNL     1       1.803   2.525   4.266  0.00  0.00    +0.000 A 
ATOM     36  C   UNL     1       1.313   1.238   4.382  0.00  0.00    +0.002 A 
ATOM     37  C   UNL     1       1.567   0.502   5.524  0.00  0.00    -0.054 A 
ENDBRANCH  21  37
ENDBRANCH   1  29
TORSDOF 4
