REMARK  Name = ZINC09462236
REMARK  4 active torsions:
REMARK  status: ('A' for Active; 'I' for Inactive)
REMARK    1  A    between atoms: C_1  and  C_2
REMARK    2  A    between atoms: C_2  and  C_3
REMARK    3  A    between atoms: C_3  and  N_54
REMARK    4  A    between atoms: C_13  and  C_15
REMARK                            x       y       z     vdW  Elec       q    Type
REMARK                         _______ _______ _______ _____ _____    ______ ____
ROOT
ATOM      1  C   UNL     1      -0.621   3.022   1.329  0.00  0.00    -0.073 C 
ATOM      2  C   UNL     1      -1.472   3.490   2.511  0.00  0.00    +0.052 C 
ATOM      3  C   UNL     1      -0.970   2.826   3.792  0.00  0.00    +0.189 C 
ATOM      4  C   UNL     1      -1.002   1.307   3.634  0.00  0.00    +0.052 C 
ATOM      5  C   UNL     1      -0.165   0.905   2.417  0.00  0.00    -0.073 C 
ATOM      6  N   UNL     1       0.395   3.271   4.085  0.00  0.00    -0.207 N 
ATOM      7  C   UNL     1       1.073   2.860   5.336  0.00  0.00    +0.136 C 
ATOM      8  C   UNL     1       2.240   3.852   5.431  0.00  0.00    +0.086 C 
ATOM      9  C   UNL     1       2.260   4.511   4.066  0.00  0.00    +0.068 C 
ATOM     10  N   UNL     1       1.229   4.126   3.387  0.00  0.00    -0.185 NA
ATOM     11  C   UNL     1       0.074   3.055   6.446  0.00  0.00    +0.018 A 
ATOM     12  C   UNL     1       0.515   3.069   7.757  0.00  0.00    +0.024 A 
ATOM     13  C   UNL     1      -0.386   3.200   8.796  0.00  0.00    +0.018 A 
ATOM     14  C   UNL     1      -1.737   3.319   8.520  0.00  0.00    +0.019 A 
ATOM     15  C   UNL     1      -2.179   3.316   7.215  0.00  0.00    +0.047 A 
ATOM     16  C   UNL     1      -1.275   3.193   6.160  0.00  0.00    +0.129 A 
ATOM     17  O   UNL     1      -1.780   3.222   4.899  0.00  0.00    -0.467 OA
ATOM     18 BR   UNL     1       0.223   3.218  10.586  0.00  0.00    -0.050 Br
ATOM     19  N   UNL     1      -0.729   1.552   1.213  0.00  0.00    +0.380 N 
ATOM     20  H   UNL     1      -1.720   1.297   1.131  0.00  0.00    -0.082 HD
ENDROOT
BRANCH   9  21
ATOM     21  C   UNL     1       3.294   5.448   3.588  0.00  0.00    -0.002 A 
ATOM     22  C   UNL     1       4.362   5.796   4.417  0.00  0.00    +0.011 A 
ATOM     23  C   UNL     1       5.328   6.669   3.962  0.00  0.00    +0.020 A 
ATOM     24  C   UNL     1       5.235   7.207   2.689  0.00  0.00    +0.041 A 
ATOM     25  C   UNL     1       4.175   6.870   1.864  0.00  0.00    +0.020 A 
ATOM     26  C   UNL     1       3.205   5.995   2.306  0.00  0.00    +0.011 A 
ATOM     27 CL   UNL     1       6.452   8.310   2.126  0.00  0.00    -0.084 Cl
ENDBRANCH   9  21
BRANCH  19  28
ATOM     28  C   UNL     1      -0.013   1.086   0.008  0.00  0.00    -0.079 C 
BRANCH  28  30
ATOM     29  C   UNL     1      -0.037   1.099  -2.490  0.00  0.00    +0.002 C 
ATOM     30  C   UNL     1      -0.753   1.593  -1.232  0.00  0.00    -0.022 C 
ENDBRANCH  28  30
ENDBRANCH  19  28
TORSDOF 3
