REMARK  Name = ZINC45513228
REMARK  5 active torsions:
REMARK  status: ('A' for Active; 'I' for Inactive)
REMARK    1  A    between atoms: C_1  and  C_2
REMARK    2  A    between atoms: C_2  and  C_4
REMARK    3  A    between atoms: C_2  and  N_20
REMARK    4  A    between atoms: C_9  and  C_12
REMARK    5  A    between atoms: C_23  and  N_26
REMARK                            x       y       z     vdW  Elec       q    Type
REMARK                         _______ _______ _______ _____ _____    ______ ____
ROOT
ATOM      1  C   UNL     1       0.014   1.319   0.771  0.00  0.00    -0.004 C 
ATOM      2  C   UNL     1       0.002  -0.004   0.002  0.00  0.00    +0.016 C 
ENDROOT
BRANCH   2   3
ATOM      3  C   UNL     1      -1.363  -0.634   0.107  0.00  0.00    +0.205 C 
ATOM      4  O   UNL     1      -1.596  -1.434   0.988  0.00  0.00    -0.277 OA
ATOM      5  N   UNL     1      -2.325  -0.308  -0.779  0.00  0.00    -0.266 N 
ATOM      6  C   UNL     1      -3.584  -0.889  -0.683  0.00  0.00    +0.165 A 
ATOM      7  N   UNL     1      -4.647  -0.710  -1.445  0.00  0.00    -0.225 NA
ATOM      8  C   UNL     1      -5.780  -1.354  -1.207  0.00  0.00    +0.080 A 
ATOM      9  C   UNL     1      -5.850  -2.220  -0.151  0.00  0.00    +0.076 A 
ATOM     10  S   UNL     1      -4.191  -2.083   0.501  0.00  0.00    -0.060 S 
ATOM     11  H   UNL     1      -2.139   0.332  -1.484  0.00  0.00    +0.157 HD
BRANCH   8  12
ATOM     12  C   UNL     1      -6.961  -1.136  -2.076  0.00  0.00    +0.004 A 
ATOM     13  C   UNL     1      -8.153  -1.811  -1.818  0.00  0.00    +0.013 A 
ATOM     14  C   UNL     1      -9.251  -1.606  -2.629  0.00  0.00    +0.042 A 
ATOM     15  C   UNL     1      -9.170  -0.731  -3.700  0.00  0.00    +0.158 A 
ATOM     16  C   UNL     1      -7.986  -0.057  -3.962  0.00  0.00    +0.159 A 
ATOM     17  C   UNL     1      -6.884  -0.252  -3.151  0.00  0.00    +0.051 A 
ATOM     18  F   UNL     1      -7.912   0.795  -5.008  0.00  0.00    -0.202 F 
ATOM     19  F   UNL     1     -10.247  -0.534  -4.491  0.00  0.00    -0.202 F 
ENDBRANCH   8  12
ENDBRANCH   2   3
BRANCH   2  20
ATOM     20  N   UNL     1       1.005  -0.912   0.574  0.00  0.00    +0.387 N 
ATOM     21  C   UNL     1       2.328  -0.278   0.513  0.00  0.00    -0.076 C 
ATOM     22  C   UNL     1       3.364  -1.185   1.181  0.00  0.00    +0.006 C 
ATOM     23  C   UNL     1       3.405  -2.529   0.448  0.00  0.00    +0.089 C 
ATOM     24  C   UNL     1       2.004  -3.146   0.454  0.00  0.00    +0.006 C 
ATOM     25  C   UNL     1       1.018  -2.167  -0.187  0.00  0.00    -0.076 C 
ATOM     26  H   UNL     1       0.772  -1.106   1.537  0.00  0.00    -0.081 HD
BRANCH  23  27
ATOM     27  N   UNL     1       4.340  -3.429   1.129  0.00  0.00    -0.289 N 
ATOM     28  C   UNL     1       5.480  -3.998   0.566  0.00  0.00    +0.070 A 
ATOM     29  C   UNL     1       6.060  -3.921  -0.691  0.00  0.00    +0.028 A 
ATOM     30  C   UNL     1       7.222  -4.619  -0.956  0.00  0.00    +0.002 A 
ATOM     31  C   UNL     1       7.809  -5.396   0.028  0.00  0.00    +0.002 A 
ATOM     32  C   UNL     1       7.238  -5.479   1.283  0.00  0.00    +0.028 A 
ATOM     33  C   UNL     1       6.072  -4.782   1.558  0.00  0.00    +0.067 A 
ATOM     34  N   UNL     1       5.274  -4.664   2.693  0.00  0.00    -0.306 N 
ATOM     35  H   UNL     1       5.433  -5.097   3.547  0.00  0.00    +0.170 HD
ATOM     36  C   UNL     1       4.247  -3.842   2.407  0.00  0.00    +0.328 A 
ATOM     37  O   UNL     1       3.366  -3.524   3.184  0.00  0.00    -0.247 OA
ENDBRANCH  23  27
ENDBRANCH   2  20
TORSDOF 4
