REMARK  Name = ZINC39715250
REMARK  9 active torsions:
REMARK  status: ('A' for Active; 'I' for Inactive)
REMARK    1  A    between atoms: C_1  and  C_2
REMARK    2  A    between atoms: C_5  and  C_35
REMARK    3  A    between atoms: C_6  and  S_8
REMARK    4  A    between atoms: S_8  and  C_9
REMARK    5  A    between atoms: C_9  and  C_20
REMARK    6  A    between atoms: C_10  and  C_11
REMARK    7  A    between atoms: C_14  and  C_17
REMARK    8  A    between atoms: C_25  and  C_34
REMARK    9  A    between atoms: C_26  and  C_31
REMARK                            x       y       z     vdW  Elec       q    Type
REMARK                         _______ _______ _______ _____ _____    ______ ____
ROOT
ATOM      1  C   UNL     1      -0.222  -1.635   3.847  0.00  0.00    +0.055 C 
ATOM      2  C   UNL     1       0.100  -0.392   3.407  0.00  0.00    +0.026 C 
ENDROOT
BRANCH   1   3
ATOM      3  C   UNL     1      -0.570  -1.849   5.264  0.00  0.00    +0.161 C 
ATOM      4  N   UNL     1      -0.708  -0.791   6.045  0.00  0.00    -0.156 NA
ATOM      5  C   UNL     1      -1.021  -0.886   7.338  0.00  0.00    +0.272 C 
ATOM      6  O   UNL     1      -1.141   0.112   8.030  0.00  0.00    -0.268 OA
ATOM      7  C   UNL     1      -1.221  -2.254   7.915  0.00  0.00    +0.071 C 
ATOM      8  C   UNL     1      -1.537  -2.583   9.175  0.00  0.00    -0.034 C 
ATOM      9  C   UNL     1      -1.683  -4.051   9.505  0.00  0.00    +0.192 C 
ATOM     10  S   UNL     1      -1.331  -4.835   7.879  0.00  0.00    -0.086 S 
ATOM     11  C   UNL     1      -1.040  -3.355   6.943  0.00  0.00    +0.112 C 
ATOM     12  N   UNL     1      -0.736  -3.100   5.696  0.00  0.00    -0.222 NA
ATOM     13  C   UNL     1      -1.740  -1.525  10.229  0.00  0.00    +0.041 C 
BRANCH   9  14
ATOM     14  C   UNL     1      -3.084  -4.365   9.964  0.00  0.00    +0.373 C 
ATOM     15  O   UNL     1      -3.909  -4.775   9.166  0.00  0.00    -0.245 OA
ATOM     16  O   UNL     1      -3.392  -4.208  11.133  0.00  0.00    -0.245 OA
ENDBRANCH   9  14
ENDBRANCH   1   3
BRANCH   2  17
ATOM     17  C   UNL     1       0.415   0.668   4.371  0.00  0.00    -0.024 A 
ATOM     18  C   UNL     1       1.265   0.402   5.454  0.00  0.00    +0.009 A 
ATOM     19  C   UNL     1       1.558   1.388   6.349  0.00  0.00    +0.016 A 
ATOM     20  C   UNL     1       1.010   2.666   6.188  0.00  0.00    +0.063 A 
ATOM     21  C   UNL     1       0.160   2.933   5.107  0.00  0.00    +0.016 A 
ATOM     22  C   UNL     1      -0.129   1.949   4.207  0.00  0.00    +0.009 A 
BRANCH  20  23
ATOM     23  C   UNL     1       1.326   3.730   7.156  0.00  0.00    +0.387 C 
ATOM     24  O   UNL     1       2.067   3.497   8.101  0.00  0.00    -0.241 OA
ATOM     25  O   UNL     1       0.847   4.847   7.015  0.00  0.00    -0.241 OA
ENDBRANCH  20  23
ENDBRANCH   2  17
BRANCH   1  26
ATOM     26  S   UNL     1      -0.225  -2.993   2.724  0.00  0.00    -0.086 S 
BRANCH  26  32
ATOM     27  C   UNL     1      -5.206  -2.560   4.267  0.00  0.00    +0.044 C 
ATOM     28  C   UNL     1      -4.183  -3.238   3.392  0.00  0.00    -0.049 A 
ATOM     29  C   UNL     1      -4.573  -4.243   2.526  0.00  0.00    +0.004 A 
ATOM     30  C   UNL     1      -3.639  -4.868   1.720  0.00  0.00    +0.005 A 
ATOM     31  C   UNL     1      -2.312  -4.489   1.778  0.00  0.00    -0.037 A 
ATOM     32  C   UNL     1      -1.916  -3.479   2.647  0.00  0.00    +0.016 A 
ATOM     33  C   UNL     1      -2.860  -2.850   3.451  0.00  0.00    +0.018 A 
ATOM     34  C   UNL     1      -1.294  -5.171   0.900  0.00  0.00    +0.045 C 
ENDBRANCH  26  32
ENDBRANCH   1  26
TORSDOF 6
