REMARK  Name = ZINC12467453
REMARK  14 active torsions:
REMARK  status: ('A' for Active; 'I' for Inactive)
REMARK    1  A    between atoms: C_1  and  C_2
REMARK    2  A    between atoms: C_6  and  N_9
REMARK    3  A    between atoms: C_7  and  C_8
REMARK    4  A    between atoms: N_9  and  C_10
REMARK    5  A    between atoms: C_10  and  C_12
REMARK    6  A    between atoms: C_10  and  C_18
REMARK    7  A    between atoms: C_15  and  C_17
REMARK    8  A    between atoms: N_20  and  C_21
REMARK    9  A    between atoms: C_21  and  C_22
REMARK   10  A    between atoms: C_22  and  O_23
REMARK   11  A    between atoms: O_23  and  C_24
REMARK   12  A    between atoms: C_25  and  C_27
REMARK   13  A    between atoms: C_28  and  N_35
REMARK   14  A    between atoms: C_29  and  C_32
REMARK                            x       y       z     vdW  Elec       q    Type
REMARK                         _______ _______ _______ _____ _____    ______ ____
ROOT
ATOM      1  N   UNL     1       1.707   1.626   2.297  0.00  0.00    -0.248 N 
ATOM      2  C   UNL     1       2.532   0.566   2.187  0.00  0.00    +0.262 C 
ATOM      3  O   UNL     1       3.720   0.738   1.987  0.00  0.00    -0.269 OA
ENDROOT
BRANCH   1   9
ATOM      4  C   UNL     1      -2.014   1.063   5.459  0.00  0.00    +0.044 C 
ATOM      5  C   UNL     1      -1.490   1.151   4.049  0.00  0.00    -0.046 A 
ATOM      6  C   UNL     1      -2.360   1.036   2.980  0.00  0.00    +0.004 A 
ATOM      7  C   UNL     1      -1.881   1.110   1.685  0.00  0.00    +0.002 A 
ATOM      8  C   UNL     1      -0.534   1.306   1.455  0.00  0.00    +0.024 A 
ATOM      9  C   UNL     1       0.342   1.428   2.526  0.00  0.00    +0.041 A 
ATOM     10  C   UNL     1      -0.142   1.352   3.826  0.00  0.00    -0.026 A 
ATOM     11  C   UNL     1       0.804   1.484   4.992  0.00  0.00    +0.046 C 
ENDBRANCH   1   9
BRANCH   2  12
ATOM     12  C   UNL     1       2.000  -0.792   2.308  0.00  0.00    +0.116 A 
ATOM     13  C   UNL     1       2.668  -2.015   2.228  0.00  0.00    +0.076 A 
ATOM     14  C   UNL     1       1.812  -3.104   2.397  0.00  0.00    +0.155 A 
ATOM     15  N   UNL     1       0.532  -2.890   2.603  0.00  0.00    -0.203 NA
ATOM     16  S   UNL     1       0.327  -1.327   2.605  0.00  0.00    +0.019 S 
BRANCH  14  17
ATOM     17  C   UNL     1       2.338  -4.480   2.344  0.00  0.00    +0.262 C 
ATOM     18  O   UNL     1       3.524  -4.671   2.153  0.00  0.00    -0.269 OA
ATOM     19  N   UNL     1       1.505  -5.527   2.507  0.00  0.00    -0.324 N 
ATOM     20  H   UNL     1       0.559  -5.375   2.660  0.00  0.00    +0.145 HD
ATOM     21  H   UNL     1       1.851  -6.432   2.473  0.00  0.00    +0.145 HD
ENDBRANCH  14  17
BRANCH  13  22
ATOM     22  N   UNL     1       4.034  -2.135   2.006  0.00  0.00    -0.355 N 
ATOM     23  H   UNL     1       4.579  -1.340   1.896  0.00  0.00    +0.142 HD
ATOM     24  H   UNL     1       4.443  -3.014   1.960  0.00  0.00    +0.142 HD
ENDBRANCH  13  22
ENDBRANCH   2  12
BRANCH   1  25
ATOM     25  C   UNL     1       2.240   2.985   2.175  0.00  0.00    +0.233 C 
BRANCH  25  26
ATOM     26  C   UNL     1       1.830   3.794   3.379  0.00  0.00    +0.135 A 
ATOM     27  C   UNL     1       2.652   4.526   4.151  0.00  0.00    +0.047 A 
ATOM     28  C   UNL     1       1.853   5.116   5.157  0.00  0.00    +0.045 A 
ATOM     29  C   UNL     1       0.591   4.703   4.943  0.00  0.00    +0.102 A 
ATOM     30  O   UNL     1       0.583   3.902   3.865  0.00  0.00    -0.462 OA
ATOM     31  C   UNL     1      -0.611   5.074   5.774  0.00  0.00    +0.086 C 
ENDBRANCH  25  26
BRANCH  25  32
ATOM     32  C   UNL     1       1.693   3.629   0.927  0.00  0.00    +0.242 C 
ATOM     33  O   UNL     1       0.730   3.149   0.369  0.00  0.00    -0.273 OA
ATOM     34  N   UNL     1       2.276   4.739   0.431  0.00  0.00    -0.311 N 
ATOM     35  H   UNL     1       3.046   5.123   0.878  0.00  0.00    +0.149 HD
BRANCH  34  36
ATOM     36  C   UNL     1       1.745   5.365  -0.782  0.00  0.00    +0.132 C 
BRANCH  36  37
ATOM     37  C   UNL     1       2.581   6.599  -1.127  0.00  0.00    +0.178 C 
BRANCH  37  38
ATOM     38  O   UNL     1       3.911   6.194  -1.461  0.00  0.00    -0.381 OA
ATOM     39  C   UNL     1       4.779   7.277  -1.802  0.00  0.00    +0.194 C 
ENDBRANCH  37  38
ENDBRANCH  36  37
ENDBRANCH  34  36
ENDBRANCH  25  32
ENDBRANCH   1  25
TORSDOF 10
