REMARK  Name = ZINC47646733
REMARK  9 active torsions:
REMARK  status: ('A' for Active; 'I' for Inactive)
REMARK    1  A    between atoms: C_1  and  C_2
REMARK    2  A    between atoms: C_2  and  C_3
REMARK    3  A    between atoms: C_4  and  C_27
REMARK    4  A    between atoms: C_6  and  C_8
REMARK    5  A    between atoms: N_10  and  N_11
REMARK    6  A    between atoms: C_12  and  C_14
REMARK    7  A    between atoms: C_14  and  C_16
REMARK    8  A    between atoms: C_14  and  N_17
REMARK    9  A    between atoms: N_20  and  C_21
REMARK                            x       y       z     vdW  Elec       q    Type
REMARK                         _______ _______ _______ _____ _____    ______ ____
ROOT
ATOM      1  N   UNL     1       5.841  -2.262   4.159  0.00  0.00    -0.233 N 
ATOM      2  C   UNL     1       7.080  -2.298   3.631  0.00  0.00    +0.249 C 
ATOM      3  O   UNL     1       7.257  -1.974   2.476  0.00  0.00    -0.272 OA
ATOM      4  H   UNL     1       5.700  -2.521   5.083  0.00  0.00    +0.173 HD
ENDROOT
BRANCH   1   7
ATOM      5  C   UNL     1       3.517  -1.816   3.901  0.00  0.00    +0.267 C 
ATOM      6  O   UNL     1       3.340  -2.141   5.061  0.00  0.00    -0.268 OA
ATOM      7  N   UNL     1       4.756  -1.851   3.373  0.00  0.00    -0.230 N 
ATOM      8  H   UNL     1       4.897  -1.592   2.449  0.00  0.00    +0.173 HD
BRANCH   5  12
ATOM      9  C   UNL     1       0.721  -0.552   1.210  0.00  0.00    -0.007 A 
ATOM     10  C   UNL     1       0.203  -0.842   2.429  0.00  0.00    -0.040 A 
ATOM     11  C   UNL     1       1.043  -1.279   3.425  0.00  0.00    +0.024 A 
ATOM     12  C   UNL     1       2.382  -1.386   3.079  0.00  0.00    +0.076 A 
ATOM     13  S   UNL     1       2.362  -0.869   1.373  0.00  0.00    -0.088 S 
ATOM     14  C   UNL     1      -1.273  -0.686   2.689  0.00  0.00    +0.044 C 
BRANCH   9  16
ATOM     15  C   UNL     1      -0.036   1.467  -0.016  0.00  0.00    +0.009 C 
ATOM     16  C   UNL     1      -0.011  -0.063  -0.014  0.00  0.00    +0.039 C 
ENDBRANCH   9  16
ENDBRANCH   5  12
ENDBRANCH   1   7
BRANCH   2  17
ATOM     17  C   UNL     1       8.247  -2.740   4.476  0.00  0.00    +0.159 C 
ATOM     18  C   UNL     1       8.386  -1.808   5.682  0.00  0.00    +0.038 C 
BRANCH  17  19
ATOM     19  N   UNL     1       9.475  -2.691   3.678  0.00  0.00    -0.288 N 
ATOM     20  C   UNL     1      10.521  -3.477   4.002  0.00  0.00    +0.304 C 
ATOM     21  O   UNL     1      10.446  -4.226   4.956  0.00  0.00    -0.252 OA
ATOM     22  N   UNL     1      11.650  -3.432   3.267  0.00  0.00    -0.269 N 
ATOM     23  H   UNL     1       9.534  -2.093   2.916  0.00  0.00    +0.151 HD
ATOM     24  H   UNL     1      11.687  -2.885   2.467  0.00  0.00    +0.156 HD
BRANCH  22  25
ATOM     25  C   UNL     1      12.769  -4.175   3.659  0.00  0.00    +0.035 A 
ATOM     26  C   UNL     1      14.046  -3.668   3.458  0.00  0.00    +0.023 A 
ATOM     27  C   UNL     1      15.149  -4.403   3.846  0.00  0.00    +0.002 A 
ATOM     28  C   UNL     1      14.982  -5.643   4.435  0.00  0.00    +0.000 A 
ATOM     29  C   UNL     1      13.712  -6.151   4.637  0.00  0.00    +0.002 A 
ATOM     30  C   UNL     1      12.605  -5.418   4.256  0.00  0.00    +0.023 A 
ENDBRANCH  22  25
ENDBRANCH  17  19
ENDBRANCH   2  17
TORSDOF 6
