REMARK  Name = ZINC49356556
REMARK  7 active torsions:
REMARK  status: ('A' for Active; 'I' for Inactive)
REMARK    1  A    between atoms: CB_1  and  CA_2
REMARK    2  A    between atoms: CA_2  and  C_4
REMARK    3  A    between atoms: CA_2  and  N_7
REMARK    4  A    between atoms: C_8  and  C_10
REMARK    5  A    between atoms: C_10  and  C_11
REMARK    6  A    between atoms: C_11  and  C_16
REMARK    7  A    between atoms: C_16  and  C_17
REMARK                            x       y       z     vdW  Elec       q    Type
REMARK                         _______ _______ _______ _____ _____    ______ ____
ROOT
ATOM      1  C   UNK A   0       0.731  -1.171  -3.575  0.00  0.00    +0.103 C 
ENDROOT
BRANCH   1   2
ATOM      2  C   UNK A   0      -0.168  -1.146  -4.813  0.00  0.00    -0.011 C 
ATOM      3  C   UNK A   0      -0.563   0.306  -5.150  0.00  0.00    +0.008 C 
ATOM      4  C   UNK A   0       0.467   0.741  -6.222  0.00  0.00    +0.001 C 
ATOM      5  C   UNK A   0       0.644  -0.545  -7.067  0.00  0.00    +0.001 C 
ATOM      6  C   UNK A   0       0.600  -1.687  -6.032  0.00  0.00    +0.008 C 
BRANCH   2   7
ATOM      7  C   UNK A   0      -1.421  -1.988  -4.566  0.00  0.00    +0.132 C 
BRANCH   7   8
ATOM      8  C   UNK A   0      -2.249  -1.350  -3.481  0.00  0.00    +0.357 C 
ATOM      9  O   UNK A   0      -1.841  -0.354  -2.908  0.00  0.00    -0.246 OA
ATOM     10  O   UNK A   0      -3.328  -1.829  -3.176  0.00  0.00    -0.246 OA
ENDBRANCH   7   8
ENDBRANCH   2   7
ENDBRANCH   1   2
BRANCH   1  12
ATOM     11  N   ALA A   1       2.172  -2.802  -2.400  0.00  0.00    -0.302 N 
ATOM     12  C   UNK A   0       1.276  -2.562  -3.377  0.00  0.00    +0.214 C 
ATOM     13  O   UNK A   0       0.908  -3.465  -4.097  0.00  0.00    -0.276 OA
ATOM     14  H   ALA A   1       2.467  -2.079  -1.823  0.00  0.00    +0.150 HD
BRANCH  11  16
ATOM     15  CB  ALA A   1       1.744  -4.956  -1.324  0.00  0.00    +0.040 C 
ATOM     16  CA  ALA A   1       2.702  -4.154  -2.207  0.00  0.00    +0.183 C 
BRANCH  16  17
ATOM     17  C   ALA A   1       4.052  -4.075  -1.542  0.00  0.00    +0.376 C 
ATOM     18  O   ALA A   1       4.748  -5.072  -1.455  0.00  0.00    -0.244 OA
ATOM     19  OXT ALA A   1       4.448  -3.014  -1.090  0.00  0.00    -0.244 OA
ENDBRANCH  16  17
ENDBRANCH  11  16
ENDBRANCH   1  12
TORSDOF 6
