REMARK  Name = ZINC64817044
REMARK  10 active torsions:
REMARK  status: ('A' for Active; 'I' for Inactive)
REMARK    1  A    between atoms: C_1  and  C_2
REMARK    2  A    between atoms: C_2  and  O_3
REMARK    3  A    between atoms: O_3  and  C_4
REMARK    4  A    between atoms: C_9  and  N_10
REMARK    5  A    between atoms: C_11  and  C_13
REMARK    6  A    between atoms: C_13  and  S_14
REMARK    7  A    between atoms: S_14  and  C_15
REMARK    8  A    between atoms: N_20  and  C_32
REMARK    9  A    between atoms: N_24  and  C_25
REMARK   10  A    between atoms: C_25  and  C_26
REMARK                            x       y       z     vdW  Elec       q    Type
REMARK                         _______ _______ _______ _____ _____    ______ ____
ROOT
ATOM      1  C   UNL     1       4.270  -0.884   8.117  0.00  0.00    +0.173 A 
ATOM      2  N   UNL     1       4.097   0.388   7.847  0.00  0.00    -0.220 NA
ATOM      3  C   UNL     1       4.488   1.346   8.723  0.00  0.00    +0.117 A 
ATOM      4  C   UNL     1       4.437   2.753   8.712  0.00  0.00    +0.163 A 
ATOM      5  N   UNL     1       4.959   3.201   9.822  0.00  0.00    -0.177 NA
ATOM      6  N   UNL     1       5.375   2.120  10.611  0.00  0.00    -0.260 N 
ATOM      7  C   UNL     1       5.085   0.967   9.932  0.00  0.00    +0.151 A 
ATOM      8  C   UNL     1       5.261  -0.407  10.203  0.00  0.00    +0.281 A 
ATOM      9  O   UNL     1       5.775  -0.776  11.245  0.00  0.00    -0.265 OA
ATOM     10  N   UNL     1       4.841  -1.304   9.284  0.00  0.00    -0.282 N 
ATOM     11  C   UNL     1       6.008   2.209  11.929  0.00  0.00    +0.173 C 
ENDROOT
BRANCH   1  12
ATOM     12  S   UNL     1       3.742  -2.086   6.942  0.00  0.00    -0.078 S 
BRANCH  12  13
ATOM     13  C   UNL     1       3.061  -1.099   5.580  0.00  0.00    +0.173 C 
BRANCH  13  15
ATOM     14  N   UNL     1       2.017  -1.504   3.375  0.00  0.00    -0.282 N 
ATOM     15  C   UNL     1       2.567  -2.018   4.493  0.00  0.00    +0.228 C 
ATOM     16  O   UNL     1       2.665  -3.220   4.623  0.00  0.00    -0.275 OA
ATOM     17  H   UNL     1       2.012  -0.544   3.234  0.00  0.00    +0.155 HD
BRANCH  14  23
ATOM     18  C   UNL     1       1.353  -1.944   1.089  0.00  0.00    +0.142 A 
ATOM     19  C   UNL     1       0.799  -2.793   0.144  0.00  0.00    +0.047 A 
ATOM     20  C   UNL     1       0.342  -4.042   0.520  0.00  0.00    +0.004 A 
ATOM     21  C   UNL     1       0.437  -4.449   1.838  0.00  0.00    +0.002 A 
ATOM     22  C   UNL     1       0.988  -3.609   2.787  0.00  0.00    +0.027 A 
ATOM     23  C   UNL     1       1.453  -2.356   2.416  0.00  0.00    +0.076 A 
BRANCH  18  24
ATOM     24  O   UNL     1       1.802  -0.715   0.721  0.00  0.00    -0.490 OA
BRANCH  24  26
ATOM     25  C   UNL     1       2.223   1.048  -0.878  0.00  0.00    +0.048 C 
ATOM     26  C   UNL     1       1.667  -0.360  -0.657  0.00  0.00    +0.226 C 
ENDBRANCH  24  26
ENDBRANCH  18  24
ENDBRANCH  14  23
ENDBRANCH  13  15
ENDBRANCH  12  13
ENDBRANCH   1  12
BRANCH  10  27
ATOM     27  C   UNL     1       5.004  -2.738   9.539  0.00  0.00    +0.162 C 
BRANCH  27  28
ATOM     28  C   UNL     1       6.342  -3.192   9.013  0.00  0.00    -0.028 A 
ATOM     29  C   UNL     1       6.456  -3.640   7.710  0.00  0.00    +0.005 A 
ATOM     30  C   UNL     1       7.682  -4.057   7.228  0.00  0.00    +0.000 A 
ATOM     31  C   UNL     1       8.795  -4.025   8.048  0.00  0.00    +0.000 A 
ATOM     32  C   UNL     1       8.681  -3.575   9.350  0.00  0.00    +0.000 A 
ATOM     33  C   UNL     1       7.455  -3.155   9.832  0.00  0.00    +0.005 A 
ENDBRANCH  27  28
ENDBRANCH  10  27
TORSDOF 8
