REMARK  Name = ZINC12032834
REMARK  11 active torsions:
REMARK  status: ('A' for Active; 'I' for Inactive)
REMARK    1  A    between atoms: C_1  and  C_2
REMARK    2  A    between atoms: C_2  and  N_3
REMARK    3  A    between atoms: C_5  and  O_32
REMARK    4  A    between atoms: N_12  and  C_13
REMARK    5  A    between atoms: C_13  and  C_15
REMARK    6  A    between atoms: C_20  and  N_21
REMARK    7  A    between atoms: N_21  and  S_22
REMARK    8  A    between atoms: S_22  and  C_25
REMARK    9  A    between atoms: C_28  and  C_31
REMARK   10  A    between atoms: O_32  and  C_33
REMARK   11  A    between atoms: C_33  and  C_34
REMARK                            x       y       z     vdW  Elec       q    Type
REMARK                         _______ _______ _______ _____ _____    ______ ____
ROOT
ATOM      1  C   UNL     1      -0.562   0.532   0.328  0.00  0.00    +0.061 A 
ATOM      2  C   UNL     1       0.635  -0.154   0.116  0.00  0.00    +0.015 A 
ATOM      3  C   UNL     1       0.623  -1.523  -0.046  0.00  0.00    +0.001 A 
ATOM      4  C   UNL     1      -0.573  -2.222  -0.012  0.00  0.00    +0.002 A 
ATOM      5  C   UNL     1      -1.765  -1.556   0.192  0.00  0.00    +0.025 A 
ATOM      6  C   UNL     1      -1.771  -0.177   0.363  0.00  0.00    +0.060 A 
ENDROOT
BRANCH   1   7
ATOM      7  C   UNL     1      -0.556   1.999   0.509  0.00  0.00    +0.271 C 
ATOM      8  O   UNL     1      -1.604   2.596   0.684  0.00  0.00    -0.268 OA
BRANCH   7  18
ATOM      9  N   UNL     1       1.666   4.846   0.636  0.00  0.00    -0.318 N 
ATOM     10  C   UNL     1       1.468   6.203   0.824  0.00  0.00    +0.100 A 
ATOM     11  C   UNL     1       2.445   7.219   0.851  0.00  0.00    +0.145 A 
ATOM     12  C   UNL     1       2.090   8.536   1.049  0.00  0.00    +0.048 A 
ATOM     13  C   UNL     1       0.767   8.902   1.228  0.00  0.00    +0.005 A 
ATOM     14  C   UNL     1      -0.212   7.926   1.207  0.00  0.00    +0.017 A 
ATOM     15  C   UNL     1       0.140   6.610   1.009  0.00  0.00    +0.042 A 
ATOM     16  S   UNL     1      -0.774   5.090   0.906  0.00  0.00    -0.052 S 
ATOM     17  C   UNL     1       0.606   3.990   0.638  0.00  0.00    +0.167 A 
ATOM     18  N   UNL     1       0.600   2.672   0.475  0.00  0.00    -0.152 NA
BRANCH   9  20
ATOM     19  C   UNL     1       3.145   2.954   1.098  0.00  0.00    +0.027 C 
ATOM     20  C   UNL     1       3.021   4.327   0.435  0.00  0.00    +0.121 C 
ENDBRANCH   9  20
BRANCH  11  21
ATOM     21  O   UNL     1       3.755   6.896   0.678  0.00  0.00    -0.490 OA
BRANCH  21  22
ATOM     22  C   UNL     1       4.698   7.968   0.714  0.00  0.00    +0.226 C 
ATOM     23  C   UNL     1       6.109   7.414   0.503  0.00  0.00    +0.048 C 
ENDBRANCH  21  22
ENDBRANCH  11  21
ENDBRANCH   7  18
ENDBRANCH   1   7
BRANCH   6  24
ATOM     24  N   UNL     1      -2.970   0.495   0.567  0.00  0.00    -0.216 N 
ATOM     25  H   UNL     1      -3.099   1.381   0.193  0.00  0.00    +0.174 HD
BRANCH  24  26
ATOM     26  S   UNL     1      -4.178  -0.215   1.449  0.00  0.00    +0.072 S 
ATOM     27  O   UNL     1      -5.211   0.753   1.577  0.00  0.00    -0.150 OA
ATOM     28  O   UNL     1      -4.401  -1.496   0.876  0.00  0.00    -0.150 OA
BRANCH  26  29
ATOM     29  C   UNL     1      -3.546  -0.492   3.070  0.00  0.00    +0.109 A 
ATOM     30  C   UNL     1      -2.913  -1.684   3.371  0.00  0.00    +0.029 A 
ATOM     31  C   UNL     1      -2.413  -1.900   4.641  0.00  0.00    +0.005 A 
ATOM     32  C   UNL     1      -2.554  -0.928   5.614  0.00  0.00    -0.050 A 
ATOM     33  C   UNL     1      -3.191   0.262   5.315  0.00  0.00    +0.005 A 
ATOM     34  C   UNL     1      -3.687   0.480   4.043  0.00  0.00    +0.029 A 
ATOM     35  C   UNL     1      -2.013  -1.165   7.000  0.00  0.00    +0.044 C 
ENDBRANCH  26  29
ENDBRANCH  24  26
ENDBRANCH   6  24
TORSDOF 8
