REMARK  Name = ZINC01944602
REMARK  11 active torsions:
REMARK  status: ('A' for Active; 'I' for Inactive)
REMARK    1  A    between atoms: C_1  and  C_2
REMARK    2  A    between atoms: C_2  and  C_3
REMARK    3  A    between atoms: C_2  and  C_4
REMARK    4  A    between atoms: C_2  and  C_5
REMARK    5  A    between atoms: C_12  and  N_18
REMARK    6  A    between atoms: C_13  and  C_14
REMARK    7  A    between atoms: C_14  and  O_16
REMARK    8  A    between atoms: O_16  and  C_17
REMARK    9  A    between atoms: C_19  and  C_21
REMARK   10  A    between atoms: C_21  and  O_22
REMARK   11  A    between atoms: O_22  and  C_23
REMARK                            x       y       z     vdW  Elec       q    Type
REMARK                         _______ _______ _______ _____ _____    ______ ____
ROOT
ATOM      1  C   UNL     1       0.002  -0.004   0.002  0.00  0.00    -0.000 C 
ATOM      2  C   UNL     1       0.742  -0.514   1.242  0.00  0.00    +0.009 C 
ATOM      3  C   UNL     1       0.557  -2.027   1.373  0.00  0.00    +0.037 C 
ATOM      4  C   UNL     1       0.942  -2.684   0.053  0.00  0.00    -0.021 A 
ATOM      5  C   UNL     1       1.009  -1.966  -1.089  0.00  0.00    -0.004 A 
ATOM      6  S   UNL     1       1.485  -3.133  -2.332  0.00  0.00    -0.077 S 
ATOM      7  C   UNL     1       1.594  -4.557  -1.351  0.00  0.00    +0.086 A 
ATOM      8  C   UNL     1       1.259  -4.096  -0.085  0.00  0.00    +0.091 A 
ATOM      9  C   UNL     1       0.736  -0.502  -1.252  0.00  0.00    +0.046 C 
ENDROOT
BRANCH   1  11
ATOM     10  C   UNL     1       1.417   2.055  -0.000  0.00  0.00    +0.011 C 
ATOM     11  C   UNL     1      -0.019   1.526   0.010  0.00  0.00    -0.035 C 
ATOM     12  C   UNL     1      -0.759   2.033  -1.229  0.00  0.00    +0.011 C 
ATOM     13  C   UNL     1      -0.735   2.019   1.269  0.00  0.00    +0.011 C 
ENDBRANCH   1  11
BRANCH   7  14
ATOM     14  N   UNL     1       1.932  -5.845  -1.737  0.00  0.00    -0.277 N 
ATOM     15  C   UNL     1       2.230  -6.106  -3.026  0.00  0.00    +0.255 C 
ATOM     16  O   UNL     1       2.202  -5.214  -3.847  0.00  0.00    -0.272 OA
ATOM     17  H   UNL     1       1.958  -6.654  -0.992  0.00  0.00    +0.155 HD
BRANCH  15  18
ATOM     18  C   UNL     1       2.598  -7.505  -3.446  0.00  0.00    +0.325 C 
BRANCH  18  19
ATOM     19  O   UNL     1       2.868  -7.527  -4.849  0.00  0.00    -0.482 OA
BRANCH  19  20
ATOM     20  C   UNL     1       3.217  -8.723  -5.392  0.00  0.00    +0.135 A 
ATOM     21  C   UNL     1       3.298  -9.852  -4.591  0.00  0.00    +0.047 A 
ATOM     22  C   UNL     1       3.652 -11.067  -5.146  0.00  0.00    +0.004 A 
ATOM     23  C   UNL     1       3.926 -11.158  -6.498  0.00  0.00    +0.001 A 
ATOM     24  C   UNL     1       3.846 -10.034  -7.299  0.00  0.00    +0.019 A 
ATOM     25  C   UNL     1       3.487  -8.817  -6.750  0.00  0.00    +0.059 A 
ATOM     26 BR   UNL     1       3.371  -7.281  -7.847  0.00  0.00    -0.047 Br
ENDBRANCH  19  20
ENDBRANCH  18  19
ENDBRANCH  15  18
ENDBRANCH   7  14
BRANCH   8  27
ATOM     27  C   UNL     1       1.227  -4.998   1.068  0.00  0.00    +0.342 C 
ATOM     28  O   UNL     1       0.200  -5.582   1.356  0.00  0.00    -0.245 OA
BRANCH  27  29
ATOM     29  O   UNL     1       2.338  -5.181   1.812  0.00  0.00    -0.464 OA
ATOM     30  C   UNL     1       2.233  -6.089   2.940  0.00  0.00    +0.280 C 
ENDBRANCH  27  29
ENDBRANCH   8  27
TORSDOF 7
