REMARK  Name = ZINC08629250
REMARK  13 active torsions:
REMARK  status: ('A' for Active; 'I' for Inactive)
REMARK    1  A    between atoms: C_1  and  C_2
REMARK    2  A    between atoms: C_2  and  C_4
REMARK    3  A    between atoms: C_2  and  O_14
REMARK    4  A    between atoms: N_6  and  C_7
REMARK    5  A    between atoms: C_7  and  C_8
REMARK    6  A    between atoms: C_7  and  C_9
REMARK    7  A    between atoms: C_7  and  C_11
REMARK    8  A    between atoms: C_11  and  C_12
REMARK    9  A    between atoms: C_11  and  C_13
REMARK   10  A    between atoms: O_14  and  C_15
REMARK   11  A    between atoms: C_15  and  C_17
REMARK   12  A    between atoms: C_30  and  C_31
REMARK   13  A    between atoms: C_34  and  O_37
REMARK                            x       y       z     vdW  Elec       q    Type
REMARK                         _______ _______ _______ _____ _____    ______ ____
ROOT
ATOM      1  C   UNL     1       0.352  -1.170  -3.625  0.00  0.00    +0.073 A 
ATOM      2  C   UNL     1       0.503  -2.598  -3.908  0.00  0.00    +0.015 A 
ATOM      3  C   UNL     1       0.006  -3.574  -3.039  0.00  0.00    +0.011 A 
ATOM      4  C   UNL     1       0.169  -4.893  -3.345  0.00  0.00    +0.001 A 
ATOM      5  C   UNL     1       0.825  -5.279  -4.511  0.00  0.00    +0.002 A 
ATOM      6  C   UNL     1       1.320  -4.355  -5.378  0.00  0.00    +0.028 A 
ATOM      7  C   UNL     1       1.171  -2.983  -5.098  0.00  0.00    +0.072 A 
ATOM      8  N   UNL     1       1.645  -2.056  -5.927  0.00  0.00    -0.247 NA
ATOM      9  C   UNL     1       1.524  -0.752  -5.698  0.00  0.00    +0.072 A 
ATOM     10  C   UNL     1       0.873  -0.274  -4.548  0.00  0.00    -0.007 A 
ATOM     11  C   UNL     1       0.875   1.234  -4.551  0.00  0.00    +0.043 C 
ATOM     12  C   UNL     1       1.597   1.662  -5.835  0.00  0.00    +0.042 C 
ATOM     13  C   UNL     1       1.996   0.378  -6.520  0.00  0.00    -0.021 C 
ATOM     14  C   UNL     1       2.655   0.281  -7.689  0.00  0.00    +0.013 C 
ENDROOT
BRANCH  14  15
ATOM     15  C   UNL     1       2.943   1.493  -8.474  0.00  0.00    -0.024 A 
ATOM     16  C   UNL     1       3.468   1.383  -9.766  0.00  0.00    +0.011 A 
ATOM     17  C   UNL     1       3.736   2.519 -10.497  0.00  0.00    +0.046 A 
ATOM     18  C   UNL     1       3.486   3.773  -9.952  0.00  0.00    +0.117 A 
ATOM     19  C   UNL     1       2.965   3.888  -8.669  0.00  0.00    +0.046 A 
ATOM     20  C   UNL     1       2.688   2.757  -7.933  0.00  0.00    +0.011 A 
BRANCH  18  21
ATOM     21  O   UNL     1       3.753   4.891 -10.677  0.00  0.00    -0.507 OA
ATOM     22  H   UNL     1       3.011   5.195 -11.217  0.00  0.00    +0.292 HD
ENDBRANCH  18  21
ENDBRANCH  14  15
BRANCH   1  23
ATOM     23  C   UNL     1      -0.333  -0.699  -2.403  0.00  0.00    +0.341 C 
ATOM     24  O   UNL     1      -1.532  -0.505  -2.416  0.00  0.00    -0.245 OA
BRANCH  23  25
ATOM     25  O   UNL     1       0.372  -0.486  -1.275  0.00  0.00    -0.449 OA
BRANCH  25  27
ATOM     26  C   UNL     1      -0.389   1.498  -0.124  0.00  0.00    +0.062 C 
ATOM     27  C   UNL     1      -0.356  -0.031  -0.132  0.00  0.00    +0.259 C 
BRANCH  27  28
ATOM     28  C   UNL     1       0.319  -0.526   1.122  0.00  0.00    +0.255 C 
ATOM     29  O   UNL     1       1.372  -1.123   1.049  0.00  0.00    -0.272 OA
ATOM     30  N   UNL     1      -0.248  -0.304   2.324  0.00  0.00    -0.294 N 
ATOM     31  H   UNL     1      -1.090   0.174   2.383  0.00  0.00    +0.150 HD
BRANCH  30  32
ATOM     32  C   UNL     1       0.407  -0.785   3.543  0.00  0.00    +0.121 C 
ATOM     33  C   UNL     1       0.552  -2.307   3.478  0.00  0.00    +0.048 C 
BRANCH  32  34
ATOM     34  C   UNL     1      -0.438  -0.405   4.761  0.00  0.00    +0.020 C 
ATOM     35  C   UNL     1       0.181  -1.013   6.021  0.00  0.00    +0.010 C 
ATOM     36  C   UNL     1      -0.479   1.119   4.897  0.00  0.00    +0.010 C 
ENDBRANCH  32  34
BRANCH  32  37
ATOM     37  C   UNL     1       1.740  -0.169   3.659  0.00  0.00    +0.088 C 
ATOM     38  N   UNL     1       2.768   0.306   3.748  0.00  0.00    -0.194 NA
ENDBRANCH  32  37
ENDBRANCH  30  32
ENDBRANCH  27  28
ENDBRANCH  25  27
ENDBRANCH  23  25
ENDBRANCH   1  23
TORSDOF 9
