REMARK  Name = ZINC67218847
REMARK  10 active torsions:
REMARK  status: ('A' for Active; 'I' for Inactive)
REMARK    1  A    between atoms: C_1  and  C_2
REMARK    2  A    between atoms: C_6  and  C_8
REMARK    3  A    between atoms: C_10  and  C_13
REMARK    4  A    between atoms: N_20  and  C_23
REMARK    5  A    between atoms: C_23  and  C_24
REMARK    6  A    between atoms: N_26  and  C_27
REMARK    7  A    between atoms: C_27  and  C_29
REMARK    8  A    between atoms: C_27  and  C_30
REMARK    9  A    between atoms: C_30  and  C_31
REMARK   10  A    between atoms: C_31  and  C_32
REMARK                            x       y       z     vdW  Elec       q    Type
REMARK                         _______ _______ _______ _____ _____    ______ ____
ROOT
ATOM      1  C   UNL     1       0.112  -5.892   4.383  0.00  0.00    +0.084 A 
ATOM      2  C   UNL     1       0.134  -6.981   3.529  0.00  0.00    +0.018 A 
ATOM      3  C   UNL     1       0.158  -8.277   4.065  0.00  0.00    +0.019 A 
ATOM      4  C   UNL     1       0.160  -8.486   5.395  0.00  0.00    +0.098 A 
ATOM      5  N   UNL     1       0.138  -7.447   6.289  0.00  0.00    -0.250 N 
ATOM      6  C   UNL     1       0.120  -6.142   5.834  0.00  0.00    +0.174 A 
ATOM      7  N   UNL     1       0.108  -5.339   6.867  0.00  0.00    -0.148 NA
ATOM      8  N   UNL     1       0.125  -6.128   8.025  0.00  0.00    -0.203 N 
ATOM      9  C   UNL     1       0.134  -7.420   7.638  0.00  0.00    +0.351 A 
ATOM     10  O   UNL     1       0.151  -8.391   8.375  0.00  0.00    -0.244 OA
ENDROOT
BRANCH   1  13
ATOM     11  C   UNL     1       0.053  -2.846   2.464  0.00  0.00    +0.202 A 
ATOM     12  N   UNL     1       0.077  -4.181   2.582  0.00  0.00    -0.187 NA
ATOM     13  C   UNL     1       0.086  -4.519   3.854  0.00  0.00    +0.262 A 
ATOM     14  O   UNL     1       0.068  -3.390   4.587  0.00  0.00    -0.332 OA
ATOM     15  N   UNL     1       0.052  -2.313   3.662  0.00  0.00    -0.056 NA
BRANCH  11  21
ATOM     16  C   UNL     1      -0.018   1.503   0.010  0.00  0.00    +0.044 C 
ATOM     17  C   UNL     1       0.002  -0.004   0.002  0.00  0.00    -0.050 A 
ATOM     18  C   UNL     1       0.006  -0.688  -1.200  0.00  0.00    +0.003 A 
ATOM     19  C   UNL     1       0.025  -2.071  -1.215  0.00  0.00    +0.001 A 
ATOM     20  C   UNL     1       0.041  -2.776  -0.029  0.00  0.00    +0.012 A 
ATOM     21  C   UNL     1       0.037  -2.092   1.185  0.00  0.00    +0.023 A 
ATOM     22  C   UNL     1       0.023  -0.699   1.194  0.00  0.00    +0.015 A 
ENDBRANCH  11  21
ENDBRANCH   1  13
BRANCH   8  23
ATOM     23  C   UNL     1       0.120  -5.638   9.406  0.00  0.00    +0.244 C 
BRANCH  23  24
ATOM     24  C   UNL     1       1.539  -5.446   9.875  0.00  0.00    +0.235 C 
ATOM     25  O   UNL     1       2.463  -5.693   9.130  0.00  0.00    -0.274 OA
ATOM     26  N   UNL     1       1.781  -4.999  11.124  0.00  0.00    -0.311 N 
ATOM     27  H   UNL     1       1.042  -4.801  11.720  0.00  0.00    +0.149 HD
BRANCH  26  28
ATOM     28  C   UNL     1       3.161  -4.811  11.580  0.00  0.00    +0.070 C 
ATOM     29  C   UNL     1       3.708  -6.139  12.107  0.00  0.00    +0.028 C 
BRANCH  28  30
ATOM     30  C   UNL     1       3.191  -3.767  12.698  0.00  0.00    +0.026 C 
BRANCH  30  31
ATOM     31  C   UNL     1       2.761  -2.409  12.139  0.00  0.00    +0.037 C 
BRANCH  31  32
ATOM     32  C   UNL     1       2.791  -1.381  13.240  0.00  0.00    -0.047 A 
ATOM     33  C   UNL     1       1.666  -1.165  14.014  0.00  0.00    +0.003 A 
ATOM     34  C   UNL     1       1.693  -0.221  15.025  0.00  0.00    +0.000 A 
ATOM     35  C   UNL     1       2.845   0.505  15.261  0.00  0.00    +0.000 A 
ATOM     36  C   UNL     1       3.970   0.288  14.488  0.00  0.00    +0.000 A 
ATOM     37  C   UNL     1       3.945  -0.658  13.480  0.00  0.00    +0.003 A 
ENDBRANCH  31  32
ENDBRANCH  30  31
ENDBRANCH  28  30
ENDBRANCH  26  28
ENDBRANCH  23  24
ENDBRANCH   8  23
TORSDOF 8
