REMARK  Name = ZINC21313709
REMARK  3 active torsions:
REMARK  status: ('A' for Active; 'I' for Inactive)
REMARK    1  A    between atoms: C_3  and  O_20
REMARK    2  A    between atoms: C_6  and  C_7
REMARK    3  A    between atoms: N_13  and  C_14
REMARK                            x       y       z     vdW  Elec       q    Type
REMARK                         _______ _______ _______ _____ _____    ______ ____
ROOT
ATOM      1  C   UNL     1      -2.137   3.976   0.042  0.00  0.00    +0.028 C 
ATOM      2  C   UNL     1      -1.138   3.071   0.192  0.00  0.00    +0.078 C 
ATOM      3  C   UNL     1      -1.210   1.599   0.264  0.00  0.00    +0.256 C 
ATOM      4  O   UNL     1      -2.273   1.010   0.187  0.00  0.00    -0.269 OA
ATOM      5  N   UNL     1      -0.070   0.948   0.418  0.00  0.00    -0.260 N 
ATOM      6  C   UNL     1       1.125   1.635   0.496  0.00  0.00    +0.161 C 
ATOM      7  N   UNL     1       2.329   1.154   0.642  0.00  0.00    -0.260 NA
ATOM      8  S   UNL     1       0.622   3.342   0.349  0.00  0.00    -0.049 S 
ATOM      9  H   UNL     1      -0.067  -0.150   0.485  0.00  0.00    +0.157 HD
ENDROOT
BRANCH   1  15
ATOM     10  C   UNL     1      -0.667   5.846   0.764  0.00  0.00    +0.011 A 
ATOM     11  C   UNL     1      -0.402   7.193   0.864  0.00  0.00    +0.046 A 
ATOM     12  C   UNL     1      -1.312   8.122   0.374  0.00  0.00    +0.117 A 
ATOM     13  C   UNL     1      -2.493   7.697  -0.225  0.00  0.00    +0.046 A 
ATOM     14  C   UNL     1      -2.765   6.352  -0.335  0.00  0.00    +0.011 A 
ATOM     15  C   UNL     1      -1.852   5.412   0.157  0.00  0.00    -0.024 A 
BRANCH  12  16
ATOM     16  O   UNL     1      -1.048   9.450   0.480  0.00  0.00    -0.507 OA
ATOM     17  H   UNL     1      -1.768  10.186   0.093  0.00  0.00    +0.292 HD
ENDBRANCH  12  16
ENDBRANCH   1  15
BRANCH   7  18
ATOM     18  C   UNL     1       3.478   2.061   0.703  0.00  0.00    +0.108 C 
ATOM     19  C   UNL     1       4.493   1.704  -0.402  0.00  0.00    +0.027 C 
ATOM     20  C   UNL     1       5.873   1.938   0.260  0.00  0.00    +0.002 C 
ATOM     21  C   UNL     1       5.647   1.439   1.709  0.00  0.00    +0.002 C 
ATOM     22  C   UNL     1       4.211   1.893   2.046  0.00  0.00    +0.027 C 
ENDBRANCH   7  18
TORSDOF 3
