REMARK  Name = ZINC39963246
REMARK  7 active torsions:
REMARK  status: ('A' for Active; 'I' for Inactive)
REMARK    1  A    between atoms: C_1  and  C_2
REMARK    2  A    between atoms: C_2  and  C_3
REMARK    3  A    between atoms: C_3  and  C_4
REMARK    4  A    between atoms: C_6  and  C_18
REMARK    5  A    between atoms: C_8  and  C_16
REMARK    6  A    between atoms: C_9  and  N_15
REMARK    7  A    between atoms: C_23  and  O_24
REMARK                            x       y       z     vdW  Elec       q    Type
REMARK                         _______ _______ _______ _____ _____    ______ ____
ROOT
ATOM      1  C   UNL     1      -1.413  -2.041   0.005  0.00  0.00    +0.069 C 
ATOM      2  C   UNL     1      -1.491  -2.797   1.073  0.00  0.00    +0.030 C 
ATOM      3  C   UNL     1      -1.750  -2.513   2.527  0.00  0.00    +0.101 C 
ATOM      4  C   UNL     1      -2.702  -3.600   2.991  0.00  0.00    +0.098 C 
ATOM      5  C   UNL     1      -3.003  -4.659   2.211  0.00  0.00    +0.195 C 
ATOM      6  O   UNL     1      -2.557  -4.891   0.964  0.00  0.00    -0.448 OA
ATOM      7  C   UNL     1      -1.356  -4.230   0.557  0.00  0.00    +0.343 C 
ATOM      8  N   UNL     1      -1.298  -4.027  -0.894  0.00  0.00    -0.138 NA
ATOM      9  N   UNL     1      -1.316  -2.809  -1.110  0.00  0.00    -0.155 NA
ENDROOT
BRANCH   3  10
ATOM     10  C   UNL     1      -0.462  -2.576   3.307  0.00  0.00    +0.008 A 
ATOM     11  C   UNL     1       0.277  -3.744   3.328  0.00  0.00    +0.023 A 
ATOM     12  C   UNL     1       1.459  -3.802   4.044  0.00  0.00    +0.018 A 
ATOM     13  C   UNL     1       1.904  -2.693   4.740  0.00  0.00    +0.019 A 
ATOM     14  C   UNL     1       1.169  -1.524   4.721  0.00  0.00    +0.047 A 
ATOM     15  C   UNL     1      -0.015  -1.461   4.000  0.00  0.00    +0.121 A 
ATOM     16 BR   UNL     1       2.468  -5.402   4.071  0.00  0.00    -0.050 Br
BRANCH  15  17
ATOM     17  O   UNL     1      -0.737  -0.310   3.976  0.00  0.00    -0.506 OA
ATOM     18  H   UNL     1      -1.392  -0.242   4.685  0.00  0.00    +0.292 HD
ENDBRANCH  15  17
ENDBRANCH   3  10
BRANCH   5  19
ATOM     19  N   UNL     1      -3.852  -5.595   2.746  0.00  0.00    -0.329 N 
ATOM     20  H   UNL     1      -4.202  -5.477   3.642  0.00  0.00    +0.145 HD
ATOM     21  H   UNL     1      -4.101  -6.376   2.227  0.00  0.00    +0.145 HD
ENDBRANCH   5  19
BRANCH   4  22
ATOM     22  C   UNL     1      -3.295  -3.500   4.291  0.00  0.00    +0.101 C 
ATOM     23  N   UNL     1      -3.765  -3.420   5.322  0.00  0.00    -0.191 NA
ENDBRANCH   4  22
BRANCH   1  24
ATOM     24  C   UNL     1      -1.433  -0.534   0.013  0.00  0.00    +0.057 C 
BRANCH  24  26
ATOM     25  C   UNL     1      -0.019   1.526   0.010  0.00  0.00    +0.004 C 
ATOM     26  C   UNL     1       0.002  -0.004   0.002  0.00  0.00    +0.003 C 
ENDBRANCH  24  26
ENDBRANCH   1  24
TORSDOF 6
