REMARK  Name = ZINC39933302
REMARK  9 active torsions:
REMARK  status: ('A' for Active; 'I' for Inactive)
REMARK    1  A    between atoms: C_1  and  C_2
REMARK    2  A    between atoms: C_4  and  C_16
REMARK    3  A    between atoms: C_5  and  C_15
REMARK    4  A    between atoms: N_6  and  C_7
REMARK    5  A    between atoms: N_11  and  C_12
REMARK    6  A    between atoms: C_12  and  C_13
REMARK    7  A    between atoms: C_12  and  C_14
REMARK    8  A    between atoms: C_17  and  C_18
REMARK    9  A    between atoms: C_23  and  N_26
REMARK                            x       y       z     vdW  Elec       q    Type
REMARK                         _______ _______ _______ _____ _____    ______ ____
ROOT
ATOM      1  C   UNL     1       0.048  -4.439  -3.613  0.00  0.00    +0.239 C 
ATOM      2  O   UNL     1       0.162  -5.535  -3.093  0.00  0.00    -0.271 OA
ATOM      3  N   UNL     1      -0.061  -4.338  -4.953  0.00  0.00    -0.298 N 
ATOM      4  C   UNL     1      -0.166  -5.541  -5.789  0.00  0.00    +0.110 C 
ATOM      5  C   UNL     1       0.917  -5.485  -6.871  0.00  0.00    +0.044 C 
ATOM      6  C   UNL     1       0.792  -4.170  -7.644  0.00  0.00    +0.095 C 
ATOM      7  C   UNL     1       1.003  -2.993  -6.689  0.00  0.00    +0.044 C 
ATOM      8  C   UNL     1      -0.084  -3.021  -5.604  0.00  0.00    +0.110 C 
ENDROOT
BRANCH   6   9
ATOM      9  N   UNL     1       1.806  -4.128  -8.701  0.00  0.00    -0.289 N 
ATOM     10  C   UNL     1       1.555  -4.013 -10.066  0.00  0.00    +0.070 A 
ATOM     11  C   UNL     1       0.392  -3.910 -10.815  0.00  0.00    +0.028 A 
ATOM     12  C   UNL     1       0.466  -3.807 -12.190  0.00  0.00    +0.002 A 
ATOM     13  C   UNL     1       1.697  -3.807 -12.824  0.00  0.00    +0.002 A 
ATOM     14  C   UNL     1       2.860  -3.909 -12.088  0.00  0.00    +0.028 A 
ATOM     15  C   UNL     1       2.796  -4.012 -10.706  0.00  0.00    +0.067 A 
ATOM     16  N   UNL     1       3.762  -4.126  -9.710  0.00  0.00    -0.306 N 
ATOM     17  H   UNL     1       4.722  -4.153  -9.850  0.00  0.00    +0.170 HD
ATOM     18  C   UNL     1       3.138  -4.188  -8.518  0.00  0.00    +0.328 A 
ATOM     19  O   UNL     1       3.694  -4.287  -7.441  0.00  0.00    -0.247 OA
ENDBRANCH   6   9
BRANCH   1  21
ATOM     20  C   UNL     1       0.037  -3.379  -1.462  0.00  0.00    +0.015 C 
ATOM     21  C   UNL     1       0.029  -3.272  -2.810  0.00  0.00    +0.068 C 
BRANCH  20  25
ATOM     22  C   UNL     1      -0.049   1.501   0.013  0.00  0.00    +0.064 C 
ATOM     23  C   UNL     1      -0.020  -0.006   0.004  0.00  0.00    +0.023 A 
ATOM     24  C   UNL     1      -0.011  -0.778  -1.096  0.00  0.00    +0.031 A 
ATOM     25  C   UNL     1       0.018  -2.170  -0.630  0.00  0.00    -0.004 A 
ATOM     26  C   UNL     1       0.023  -2.111   0.749  0.00  0.00    +0.029 A 
ATOM     27  N   UNL     1       0.005  -0.804   1.113  0.00  0.00    -0.305 N 
ATOM     28  C   UNL     1       0.050  -3.291   1.686  0.00  0.00    +0.064 C 
BRANCH  27  29
ATOM     29  C   UNL     1       0.009  -0.342   2.431  0.00  0.00    +0.117 C 
ATOM     30  C   UNL     1      -1.010  -0.474   3.271  0.00  0.00    +0.033 C 
ATOM     31  C   UNL     1      -0.582   0.162   4.576  0.00  0.00    +0.132 C 
ATOM     32  N   UNL     1       0.789   0.643   4.316  0.00  0.00    -0.235 NA
ATOM     33  N   UNL     1       1.076   0.305   3.025  0.00  0.00    -0.249 N 
ATOM     34  H   UNL     1       1.448   0.220   4.952  0.00  0.00    +0.145 HD
BRANCH  33  35
ATOM     35  C   UNL     1       2.347   0.593   2.356  0.00  0.00    +0.086 C 
ATOM     36  C   UNL     1       2.583   2.105   2.340  0.00  0.00    +0.029 C 
ATOM     37  C   UNL     1       3.487  -0.094   3.110  0.00  0.00    +0.029 C 
ENDBRANCH  33  35
ENDBRANCH  27  29
ENDBRANCH  20  25
ENDBRANCH   1  21
TORSDOF 5
