REMARK  Name = ZINC37607192
REMARK  8 active torsions:
REMARK  status: ('A' for Active; 'I' for Inactive)
REMARK    1  A    between atoms: C_1  and  C_2
REMARK    2  A    between atoms: C_6  and  C_8
REMARK    3  A    between atoms: C_12  and  O_24
REMARK    4  A    between atoms: C_19  and  C_21
REMARK    5  A    between atoms: O_24  and  C_25
REMARK    6  A    between atoms: C_25  and  C_26
REMARK    7  A    between atoms: C_29  and  C_31
REMARK    8  A    between atoms: N_33  and  C_34
REMARK                            x       y       z     vdW  Elec       q    Type
REMARK                         _______ _______ _______ _____ _____    ______ ____
ROOT
ATOM      1  C   UNL     1       0.035  -2.846   2.467  0.00  0.00    +0.137 C 
ATOM      2  C   UNL     1      -1.372  -3.225   2.855  0.00  0.00    -0.016 A 
ATOM      3  C   UNL     1      -2.220  -2.213   3.280  0.00  0.00    +0.051 A 
ATOM      4  C   UNL     1      -3.527  -2.497   3.639  0.00  0.00    +0.121 A 
ATOM      5  C   UNL     1      -3.988  -3.804   3.572  0.00  0.00    +0.046 A 
ATOM      6  C   UNL     1      -3.141  -4.807   3.153  0.00  0.00    +0.007 A 
ATOM      7  C   UNL     1      -1.827  -4.524   2.798  0.00  0.00    -0.040 A 
ATOM      8  C   UNL     1      -0.955  -5.677   2.377  0.00  0.00    +0.054 C 
ATOM      9  C   UNL     1       0.252  -5.184   1.580  0.00  0.00    +0.113 C 
ATOM     10  N   UNL     1       0.848  -4.057   2.314  0.00  0.00    -0.290 N 
ATOM     11  C   UNL     1       2.093  -4.135   2.824  0.00  0.00    +0.219 C 
ATOM     12  O   UNL     1       2.563  -3.191   3.424  0.00  0.00    -0.275 OA
ENDROOT
BRANCH   1  18
ATOM     13  C   UNL     1       1.198   1.220  -0.209  0.00  0.00    +0.044 C 
ATOM     14  C   UNL     1       0.566  -0.144  -0.116  0.00  0.00    -0.050 A 
ATOM     15  C   UNL     1      -0.038  -0.703  -1.228  0.00  0.00    +0.003 A 
ATOM     16  C   UNL     1      -0.618  -1.955  -1.143  0.00  0.00    +0.001 A 
ATOM     17  C   UNL     1      -0.594  -2.648   0.053  0.00  0.00    +0.006 A 
ATOM     18  C   UNL     1       0.010  -2.090   1.164  0.00  0.00    -0.022 A 
ATOM     19  C   UNL     1       0.594  -0.840   1.078  0.00  0.00    +0.009 A 
ENDBRANCH   1  18
BRANCH  11  20
ATOM     20  C   UNL     1       2.902  -5.394   2.648  0.00  0.00    +0.075 C 
ATOM     21  C   UNL     1       3.184  -6.232   3.897  0.00  0.00    +0.013 C 
ATOM     22  C   UNL     1       4.309  -5.420   3.251  0.00  0.00    +0.013 C 
ENDBRANCH  11  20
BRANCH   4  23
ATOM     23  O   UNL     1      -4.353  -1.501   4.057  0.00  0.00    -0.484 OA
BRANCH  23  24
ATOM     24  C   UNL     1      -5.687  -1.871   4.411  0.00  0.00    +0.303 C 
BRANCH  24  25
ATOM     25  C   UNL     1      -6.449  -0.646   4.845  0.00  0.00    +0.143 A 
ATOM     26  C   UNL     1      -7.173   0.159   4.036  0.00  0.00    +0.049 A 
ATOM     27  C   UNL     1      -7.715   1.174   4.840  0.00  0.00    +0.055 A 
ATOM     28  C   UNL     1      -7.288   0.934   6.115  0.00  0.00    +0.190 A 
ATOM     29  O   UNL     1      -6.525  -0.178   6.098  0.00  0.00    -0.452 OA
BRANCH  28  30
ATOM     30  C   UNL     1      -7.608   1.742   7.297  0.00  0.00    +0.284 C 
ATOM     31  O   UNL     1      -8.315   2.727   7.188  0.00  0.00    -0.266 OA
ATOM     32  N   UNL     1      -7.119   1.393   8.503  0.00  0.00    -0.279 N 
ATOM     33  H   UNL     1      -6.496   0.654   8.579  0.00  0.00    +0.155 HD
BRANCH  32  34
ATOM     34  C   UNL     1      -7.512   2.098   9.647  0.00  0.00    +0.034 A 
ATOM     35  C   UNL     1      -6.609   2.300  10.683  0.00  0.00    +0.026 A 
ATOM     36  C   UNL     1      -6.999   2.996  11.811  0.00  0.00    +0.040 A 
ATOM     37  C   UNL     1      -8.288   3.492  11.909  0.00  0.00    +0.124 A 
ATOM     38  C   UNL     1      -9.190   3.291  10.877  0.00  0.00    +0.040 A 
ATOM     39  C   UNL     1      -8.803   2.600   9.745  0.00  0.00    +0.026 A 
ATOM     40  F   UNL     1      -8.667   4.172  13.013  0.00  0.00    -0.205 F 
ENDBRANCH  32  34
ENDBRANCH  28  30
ENDBRANCH  24  25
ENDBRANCH  23  24
ENDBRANCH   4  23
TORSDOF 7
