REMARK  Name = ZINC38671523
REMARK  6 active torsions:
REMARK  status: ('A' for Active; 'I' for Inactive)
REMARK    1  A    between atoms: C_1  and  N_2
REMARK    2  A    between atoms: C_9  and  C_11
REMARK    3  A    between atoms: C_11  and  C_13
REMARK    4  A    between atoms: C_11  and  N_31
REMARK    5  A    between atoms: C_13  and  N_14
REMARK    6  A    between atoms: C_15  and  C_17
REMARK                            x       y       z     vdW  Elec       q    Type
REMARK                         _______ _______ _______ _____ _____    ______ ____
ROOT
ATOM      1  C   UNL     1       1.510  -3.854   4.719  0.00  0.00    +0.093 C 
ENDROOT
BRANCH   1   2
ATOM      2  N   UNL     1       1.891  -2.536   5.233  0.00  0.00    -0.316 N 
ATOM      3  C   UNL     1       3.154  -2.314   5.648  0.00  0.00    +0.225 C 
ATOM      4  O   UNL     1       3.975  -3.206   5.596  0.00  0.00    -0.275 OA
ATOM      5  H   UNL     1       1.235  -1.823   5.274  0.00  0.00    +0.149 HD
BRANCH   3   6
ATOM      6  C   UNL     1       3.547  -0.959   6.176  0.00  0.00    +0.142 C 
ATOM      7  C   UNL     1       2.686  -0.619   7.362  0.00  0.00    +0.011 A 
ATOM      8  C   UNL     1       1.390  -0.180   7.157  0.00  0.00    +0.008 A 
ATOM      9  C   UNL     1       0.585   0.138   8.234  0.00  0.00    +0.001 A 
ATOM     10  C   UNL     1       1.072   0.017   9.523  0.00  0.00    +0.004 A 
ATOM     11  C   UNL     1       2.364  -0.421   9.733  0.00  0.00    +0.046 A 
ATOM     12  C   UNL     1       3.177  -0.741   8.652  0.00  0.00    +0.133 A 
ATOM     13  O   UNL     1       4.443  -1.168   8.879  0.00  0.00    -0.455 OA
ATOM     14  C   UNL     1       5.373  -1.083   7.898  0.00  0.00    +0.133 A 
ATOM     15  C   UNL     1       5.000  -0.980   6.568  0.00  0.00    +0.011 A 
ATOM     16  C   UNL     1       5.969  -0.894   5.584  0.00  0.00    +0.008 A 
ATOM     17  C   UNL     1       7.308  -0.910   5.924  0.00  0.00    +0.001 A 
ATOM     18  C   UNL     1       7.684  -1.013   7.251  0.00  0.00    +0.004 A 
ATOM     19  C   UNL     1       6.721  -1.099   8.236  0.00  0.00    +0.046 A 
ENDBRANCH   3   6
ENDBRANCH   1   2
BRANCH   1  20
ATOM     20  C   UNL     1       0.077  -3.797   4.183  0.00  0.00    -0.020 C 
BRANCH  20  29
ATOM     21  C   UNL     1      -0.159   0.880  -0.653  0.00  0.00    +0.129 C 
ATOM     22  N   UNL     1      -0.106  -0.574  -0.477  0.00  0.00    -0.332 N 
ATOM     23  C   UNL     1      -0.083  -1.552  -1.568  0.00  0.00    +0.109 C 
ATOM     24  C   UNL     1      -0.028  -2.924  -0.877  0.00  0.00    +0.056 C 
ATOM     25  C   UNL     1      -0.024  -2.606   0.601  0.00  0.00    -0.025 A 
ATOM     26  C   UNL     1      -0.065  -1.228   0.755  0.00  0.00    +0.033 A 
ATOM     27  C   UNL     1      -0.064  -0.691   2.044  0.00  0.00    +0.023 A 
ATOM     28  C   UNL     1      -0.018  -1.521   3.144  0.00  0.00    +0.004 A 
ATOM     29  C   UNL     1       0.027  -2.893   2.979  0.00  0.00    -0.059 A 
ATOM     30  C   UNL     1       0.017  -3.433   1.706  0.00  0.00    +0.007 A 
ENDBRANCH  20  29
BRANCH  20  31
ATOM     31  N   UNL     1      -0.815  -3.274   5.226  0.00  0.00    +0.385 N 
ATOM     32  C   UNL     1      -0.736  -4.134   6.413  0.00  0.00    -0.078 C 
ATOM     33  C   UNL     1      -1.602  -3.549   7.531  0.00  0.00    -0.019 C 
ATOM     34  C   UNL     1      -3.055  -3.466   7.054  0.00  0.00    -0.004 C 
ATOM     35  C   UNL     1      -3.114  -2.627   5.774  0.00  0.00    -0.019 C 
ATOM     36  C   UNL     1      -2.193  -3.247   4.721  0.00  0.00    -0.078 C 
ATOM     37  H   UNL     1      -0.530  -2.338   5.473  0.00  0.00    -0.081 HD
ENDBRANCH  20  31
ENDBRANCH   1  20
TORSDOF 5
