REMARK  Name = ZINC59404522
REMARK  12 active torsions:
REMARK  status: ('A' for Active; 'I' for Inactive)
REMARK    1  A    between atoms: C_1  and  C_2
REMARK    2  A    between atoms: C_2  and  C_4
REMARK    3  A    between atoms: C_2  and  N_14
REMARK    4  A    between atoms: C_7  and  C_10
REMARK    5  A    between atoms: C_10  and  C_11
REMARK    6  A    between atoms: C_11  and  C_12
REMARK    7  A    between atoms: C_11  and  C_13
REMARK    8  A    between atoms: C_15  and  C_17
REMARK    9  A    between atoms: C_17  and  N_18
REMARK   10  A    between atoms: C_21  and  C_24
REMARK   11  A    between atoms: N_26  and  C_27
REMARK   12  A    between atoms: C_27  and  C_28
REMARK                            x       y       z     vdW  Elec       q    Type
REMARK                         _______ _______ _______ _____ _____    ______ ____
ROOT
ATOM      1  N   UNL     1      -0.242  -1.150  -4.714  0.00  0.00    +0.385 N 
ATOM      2  C   UNL     1      -1.273  -2.155  -4.425  0.00  0.00    -0.077 C 
ATOM      3  C   UNL     1      -2.314  -2.160  -5.546  0.00  0.00    -0.006 C 
ATOM      4  C   UNL     1      -1.627  -2.499  -6.872  0.00  0.00    +0.071 C 
ATOM      5  C   UNL     1      -0.505  -1.489  -7.127  0.00  0.00    -0.006 C 
ATOM      6  C   UNL     1       0.470  -1.508  -5.947  0.00  0.00    -0.077 C 
ATOM      7  H   UNL     1      -0.678  -0.247  -4.829  0.00  0.00    -0.081 HD
ENDROOT
BRANCH   4   8
ATOM      8  C   UNL     1      -2.632  -2.430  -7.993  0.00  0.00    +0.216 C 
ATOM      9  O   UNL     1      -3.785  -2.138  -7.756  0.00  0.00    -0.276 OA
ATOM     10  N   UNL     1      -2.249  -2.693  -9.258  0.00  0.00    -0.311 N 
ATOM     11  H   UNL     1      -1.327  -2.926  -9.447  0.00  0.00    +0.149 HD
BRANCH  10  12
ATOM     12  C   UNL     1      -3.226  -2.625 -10.348  0.00  0.00    +0.139 C 
BRANCH  12  13
ATOM     13  C   UNL     1      -2.548  -2.959 -11.652  0.00  0.00    -0.030 A 
ATOM     14  C   UNL     1      -1.972  -1.955 -12.408  0.00  0.00    +0.008 A 
ATOM     15  C   UNL     1      -1.350  -2.261 -13.603  0.00  0.00    +0.038 A 
ATOM     16  C   UNL     1      -1.303  -3.572 -14.044  0.00  0.00    +0.123 A 
ATOM     17  C   UNL     1      -1.880  -4.577 -13.285  0.00  0.00    +0.038 A 
ATOM     18  C   UNL     1      -2.497  -4.270 -12.088  0.00  0.00    +0.008 A 
ATOM     19  F   UNL     1      -0.695  -3.872 -15.213  0.00  0.00    -0.205 F 
ENDBRANCH  12  13
ENDBRANCH  10  12
ENDBRANCH   4   8
BRANCH   1  20
ATOM     20  C   UNL     1       0.712  -1.094  -3.598  0.00  0.00    +0.019 C 
BRANCH  20  22
ATOM     21  N   UNL     1       0.688  -0.476  -1.203  0.00  0.00    -0.310 N 
ATOM     22  C   UNL     1       0.006  -0.608  -2.358  0.00  0.00    +0.197 C 
ATOM     23  O   UNL     1      -1.175  -0.336  -2.400  0.00  0.00    -0.278 OA
ATOM     24  H   UNL     1       1.632  -0.695  -1.170  0.00  0.00    +0.149 HD
BRANCH  21  26
ATOM     25  C   UNL     1      -0.019   1.526   0.010  0.00  0.00    +0.033 C 
ATOM     26  C   UNL     1       0.002  -0.004   0.002  0.00  0.00    +0.100 C 
BRANCH  26  27
ATOM     27  C   UNL     1       0.731  -0.503   1.223  0.00  0.00    -0.027 A 
ATOM     28  C   UNL     1       2.113  -0.514   1.247  0.00  0.00    +0.006 A 
ATOM     29  C   UNL     1       2.782  -0.972   2.366  0.00  0.00    +0.004 A 
ATOM     30  C   UNL     1       2.068  -1.419   3.463  0.00  0.00    -0.047 A 
ATOM     31  C   UNL     1       0.686  -1.407   3.439  0.00  0.00    +0.004 A 
ATOM     32  C   UNL     1       0.017  -0.945   2.321  0.00  0.00    +0.006 A 
BRANCH  30  33
ATOM     33  C   UNL     1       2.797  -1.919   4.683  0.00  0.00    +0.038 C 
BRANCH  33  34
ATOM     34  C   UNL     1       3.046  -0.753   5.642  0.00  0.00    -0.013 C 
ATOM     35  C   UNL     1       1.707  -0.223   6.159  0.00  0.00    +0.007 C 
ATOM     36  C   UNL     1       3.893  -1.234   6.822  0.00  0.00    +0.007 C 
ENDBRANCH  33  34
ENDBRANCH  30  33
ENDBRANCH  26  27
ENDBRANCH  21  26
ENDBRANCH  20  22
ENDBRANCH   1  20
TORSDOF 9
