REMARK  Name = ZINC04733165
REMARK  2 active torsions:
REMARK  status: ('A' for Active; 'I' for Inactive)
REMARK    1  A    between atoms: C_4  and  C_7
REMARK    2  A    between atoms: C_10  and  C_26
REMARK                            x       y       z     vdW  Elec       q    Type
REMARK                         _______ _______ _______ _____ _____    ______ ____
ROOT
ATOM      1  C   UNL     1      -0.103   5.529  -0.078  0.00  0.00    +0.050 C 
ATOM      2  C   UNL     1      -0.917   6.053   1.097  0.00  0.00    +0.005 C 
ATOM      3  C   UNL     1      -2.237   5.754   1.129  0.00  0.00    +0.040 C 
ATOM      4  N   UNL     1      -2.699   4.949   0.082  0.00  0.00    -0.276 N 
ATOM      5  C   UNL     1      -3.499   3.822   0.107  0.00  0.00    +0.057 A 
ATOM      6  C   UNL     1      -4.459   3.402   1.017  0.00  0.00    +0.025 A 
ATOM      7  C   UNL     1      -5.063   2.173   0.789  0.00  0.00    +0.002 A 
ATOM      8  C   UNL     1      -4.715   1.386  -0.289  0.00  0.00    +0.002 A 
ATOM      9  C   UNL     1      -3.757   1.785  -1.209  0.00  0.00    +0.025 A 
ATOM     10  C   UNL     1      -3.159   3.023  -1.005  0.00  0.00    +0.050 A 
ATOM     11  N   UNL     1      -2.259   3.712  -1.819  0.00  0.00    -0.321 N 
ATOM     12  C   UNL     1      -2.258   5.090  -1.308  0.00  0.00    +0.107 C 
ATOM     13  C   UNL     1      -0.905   5.766  -1.324  0.00  0.00    +0.042 C 
ATOM     14  C   UNL     1      -0.265   5.697  -2.681  0.00  0.00    +0.008 C 
ATOM     15  C   UNL     1      -1.194   6.436  -3.665  0.00  0.00    +0.001 C 
ATOM     16  C   UNL     1      -2.610   5.872  -3.613  0.00  0.00    +0.004 C 
ATOM     17  C   UNL     1      -3.193   5.926  -2.190  0.00  0.00    +0.046 C 
ATOM     18  H   UNL     1      -1.744   3.358  -2.561  0.00  0.00    +0.148 HD
ENDROOT
BRANCH   1  22
ATOM     19  C   UNL     1       0.615   1.345   0.406  0.00  0.00    +0.000 A 
ATOM     20  C   UNL     1       1.393   2.084  -0.467  0.00  0.00    +0.000 A 
ATOM     21  C   UNL     1       1.158   3.437  -0.627  0.00  0.00    +0.004 A 
ATOM     22  C   UNL     1       0.151   4.053   0.093  0.00  0.00    -0.040 A 
ATOM     23  C   UNL     1      -0.623   3.316   0.970  0.00  0.00    +0.004 A 
ATOM     24  C   UNL     1      -0.391   1.962   1.126  0.00  0.00    +0.000 A 
ENDBRANCH   1  22
BRANCH   3  25
ATOM     25  C   UNL     1      -3.132   6.247   2.201  0.00  0.00    -0.004 A 
ATOM     26  C   UNL     1      -4.362   6.820   1.877  0.00  0.00    +0.010 A 
ATOM     27  C   UNL     1      -5.195   7.272   2.881  0.00  0.00    +0.001 A 
ATOM     28  C   UNL     1      -4.806   7.168   4.205  0.00  0.00    +0.000 A 
ATOM     29  C   UNL     1      -3.586   6.606   4.531  0.00  0.00    +0.001 A 
ATOM     30  C   UNL     1      -2.747   6.145   3.537  0.00  0.00    +0.010 A 
ENDBRANCH   3  25
TORSDOF 2
