REMARK  Name = ZINC44453299
REMARK  15 active torsions:
REMARK  status: ('A' for Active; 'I' for Inactive)
REMARK    1  A    between atoms: C_1  and  C_2
REMARK    2  A    between atoms: C_2  and  C_3
REMARK    3  A    between atoms: C_3  and  C_4
REMARK    4  A    between atoms: C_4  and  N_5
REMARK    5  A    between atoms: N_5  and  C_6
REMARK    6  A    between atoms: N_5  and  S_10
REMARK    7  A    between atoms: C_6  and  C_7
REMARK    8  A    between atoms: C_7  and  C_8
REMARK    9  A    between atoms: C_8  and  C_9
REMARK   10  A    between atoms: S_10  and  C_13
REMARK   11  A    between atoms: C_16  and  C_19
REMARK   12  A    between atoms: N_21  and  C_22
REMARK   13  A    between atoms: C_23  and  C_27
REMARK   14  A    between atoms: N_29  and  N_30
REMARK   15  A    between atoms: C_31  and  C_33
REMARK                            x       y       z     vdW  Elec       q    Type
REMARK                         _______ _______ _______ _____ _____    ______ ____
ROOT
ATOM      1  C   UNL     1       3.978  -1.430   2.715  0.00  0.00    +0.106 A 
ATOM      2  C   UNL     1       4.327  -0.550   1.706  0.00  0.00    +0.029 A 
ATOM      3  C   UNL     1       5.029   0.600   2.002  0.00  0.00    +0.015 A 
ATOM      4  C   UNL     1       5.386   0.876   3.323  0.00  0.00    +0.037 A 
ATOM      5  C   UNL     1       5.030  -0.016   4.336  0.00  0.00    +0.015 A 
ATOM      6  C   UNL     1       4.325  -1.161   4.027  0.00  0.00    +0.029 A 
ENDROOT
BRANCH   4   7
ATOM      7  C   UNL     1       6.138   2.106   3.647  0.00  0.00    +0.249 C 
ATOM      8  O   UNL     1       6.446   2.881   2.762  0.00  0.00    -0.270 OA
ATOM      9  N   UNL     1       6.481   2.369   4.923  0.00  0.00    -0.275 N 
ATOM     10  H   UNL     1       6.235   1.752   5.629  0.00  0.00    +0.156 HD
BRANCH   9  11
ATOM     11  C   UNL     1       7.186   3.523   5.227  0.00  0.00    +0.084 A 
ATOM     12  C   UNL     1       7.625   3.951   6.472  0.00  0.00    +0.067 A 
ATOM     13  C   UNL     1       8.345   5.204   6.507  0.00  0.00    +0.022 A 
ATOM     14  C   UNL     1       8.510   5.819   5.322  0.00  0.00    +0.048 A 
ATOM     15  S   UNL     1       7.710   4.719   4.174  0.00  0.00    -0.081 S 
BRANCH  12  16
ATOM     16  C   UNL     1       7.371   3.174   7.689  0.00  0.00    +0.262 C 
ATOM     17  O   UNL     1       6.761   2.123   7.623  0.00  0.00    -0.269 OA
ATOM     18  N   UNL     1       7.814   3.622   8.880  0.00  0.00    -0.230 N 
ATOM     19  H   UNL     1       8.300   4.460   8.932  0.00  0.00    +0.173 HD
BRANCH  18  20
ATOM     20  N   UNL     1       7.572   2.879  10.042  0.00  0.00    -0.234 N 
ATOM     21  C   UNL     1       8.014   3.328  11.234  0.00  0.00    +0.226 C 
ATOM     22  O   UNL     1       8.622   4.375  11.299  0.00  0.00    -0.275 OA
ATOM     23  C   UNL     1       7.753   2.528  12.484  0.00  0.00    +0.110 C 
ATOM     24  H   UNL     1       7.085   2.041   9.990  0.00  0.00    +0.173 HD
ENDBRANCH  18  20
ENDBRANCH  12  16
ENDBRANCH   9  11
ENDBRANCH   4   7
BRANCH   1  25
ATOM     25  S   UNL     1       3.083  -2.898   2.328  0.00  0.00    +0.061 S 
ATOM     26  O   UNL     1       3.346  -3.822   3.375  0.00  0.00    -0.153 OA
ATOM     27  O   UNL     1       3.354  -3.192   0.965  0.00  0.00    -0.153 OA
BRANCH  25  28
ATOM     28  N   UNL     1       1.471  -2.526   2.420  0.00  0.00    -0.177 NA
BRANCH  28  29
ATOM     29  C   UNL     1       0.763  -2.041   1.233  0.00  0.00    +0.109 C 
BRANCH  29  30
ATOM     30  C   UNL     1       0.742  -0.511   1.242  0.00  0.00    +0.017 C 
BRANCH  30  32
ATOM     31  C   UNL     1      -0.019   1.526   0.010  0.00  0.00    +0.004 C 
ATOM     32  C   UNL     1       0.002  -0.004   0.002  0.00  0.00    -0.002 C 
ENDBRANCH  30  32
ENDBRANCH  29  30
ENDBRANCH  28  29
BRANCH  28  33
ATOM     33  C   UNL     1       0.755  -2.683   3.688  0.00  0.00    +0.109 C 
BRANCH  33  34
ATOM     34  C   UNL     1       0.067  -4.049   3.720  0.00  0.00    +0.017 C 
BRANCH  34  35
ATOM     35  C   UNL     1      -0.681  -4.213   5.044  0.00  0.00    -0.002 C 
ATOM     36  C   UNL     1      -1.369  -5.579   5.076  0.00  0.00    +0.004 C 
ENDBRANCH  34  35
ENDBRANCH  33  34
ENDBRANCH  28  33
ENDBRANCH  25  28
ENDBRANCH   1  25
TORSDOF 12
