REMARK  Name = ZINC36313714
REMARK  17 active torsions:
REMARK  status: ('A' for Active; 'I' for Inactive)
REMARK    1  A    between atoms: C_1  and  C_2
REMARK    2  A    between atoms: C_2  and  C_3
REMARK    3  A    between atoms: C_3  and  C_4
REMARK    4  A    between atoms: C_4  and  O_5
REMARK    5  A    between atoms: O_5  and  C_6
REMARK    6  A    between atoms: C_6  and  C_7
REMARK    7  A    between atoms: C_7  and  C_9
REMARK    8  A    between atoms: C_7  and  O_39
REMARK    9  A    between atoms: C_9  and  N_10
REMARK   10  A    between atoms: N_10  and  C_11
REMARK   11  A    between atoms: N_10  and  C_32
REMARK   12  A    between atoms: C_11  and  C_12
REMARK   13  A    between atoms: C_13  and  C_31
REMARK   14  A    between atoms: N_15  and  C_25
REMARK   15  A    between atoms: C_16  and  O_17
REMARK   16  A    between atoms: O_17  and  C_18
REMARK   17  A    between atoms: C_32  and  C_33
REMARK                            x       y       z     vdW  Elec       q    Type
REMARK                         _______ _______ _______ _____ _____    ______ ____
ROOT
ATOM      1  C   UNL     1       3.783  -7.863   7.166  0.00  0.00    +0.021 A 
ATOM      2  C   UNL     1       5.118  -7.814   7.580  0.00  0.00    +0.065 A 
ATOM      3  N   UNL     1       5.144  -7.604   8.871  0.00  0.00    -0.168 NA
ATOM      4  N   UNL     1       3.824  -7.510   9.331  0.00  0.00    -0.200 N 
ATOM      5  C   UNL     1       2.999  -7.668   8.260  0.00  0.00    +0.225 A 
ATOM      6  C   UNL     1       6.323  -7.976   6.690  0.00  0.00    +0.068 C 
ENDROOT
BRANCH   4   7
ATOM      7  C   UNL     1       3.424  -7.288  10.655  0.00  0.00    +0.069 A 
ATOM      8  C   UNL     1       2.326  -6.482  10.925  0.00  0.00    +0.028 A 
ATOM      9  C   UNL     1       1.934  -6.266  12.231  0.00  0.00    +0.002 A 
ATOM     10  C   UNL     1       2.634  -6.851  13.271  0.00  0.00    +0.000 A 
ATOM     11  C   UNL     1       3.727  -7.654  13.005  0.00  0.00    +0.002 A 
ATOM     12  C   UNL     1       4.121  -7.879  11.701  0.00  0.00    +0.028 A 
ENDBRANCH   4   7
BRANCH   1  13
ATOM     13  C   UNL     1       3.300  -8.086   5.757  0.00  0.00    -0.036 C 
BRANCH  13  14
ATOM     14  N   UNL     1       3.168  -6.792   5.074  0.00  0.00    +0.386 N 
ATOM     15  H   UNL     1       2.535  -6.201   5.591  0.00  0.00    -0.081 HD
BRANCH  14  16
ATOM     16  C   UNL     1       2.642  -7.005   3.719  0.00  0.00    -0.044 C 
BRANCH  16  17
ATOM     17  C   UNL     1       1.197  -7.501   3.805  0.00  0.00    +0.124 C 
BRANCH  17  18
ATOM     18  O   UNL     1       1.178  -8.815   4.367  0.00  0.00    -0.391 OA
ATOM     19  H   UNL     1       1.675  -9.469   3.856  0.00  0.00    +0.210 HD
ENDBRANCH  17  18
BRANCH  17  20
ATOM     20  C   UNL     1       0.586  -7.538   2.403  0.00  0.00    +0.189 C 
BRANCH  20  21
ATOM     21  O   UNL     1      -0.796  -7.889   2.494  0.00  0.00    -0.377 OA
BRANCH  21  22
ATOM     22  C   UNL     1      -1.465  -7.952   1.233  0.00  0.00    +0.160 C 
BRANCH  22  23
ATOM     23  C   UNL     1      -2.930  -8.335   1.451  0.00  0.00    +0.028 C 
BRANCH  23  25
ATOM     24  C   UNL     1      -5.111  -8.784   0.319  0.00  0.00    +0.004 C 
ATOM     25  C   UNL     1      -3.646  -8.401   0.101  0.00  0.00    -0.001 C 
ENDBRANCH  23  25
ENDBRANCH  22  23
ENDBRANCH  21  22
ENDBRANCH  20  21
ENDBRANCH  17  20
ENDBRANCH  16  17
ENDBRANCH  14  16
BRANCH  14  26
ATOM     26  C   UNL     1       4.485  -6.146   4.992  0.00  0.00    -0.046 C 
BRANCH  26  27
ATOM     27  C   UNL     1       4.328  -4.740   4.407  0.00  0.00    +0.102 C 
ATOM     28  C   UNL     1       5.715  -4.082   4.247  0.00  0.00    +0.032 C 
ATOM     29  C   UNL     1       5.433  -2.613   4.664  0.00  0.00    +0.030 C 
ATOM     30  C   UNL     1       4.357  -2.820   5.760  0.00  0.00    +0.160 C 
ATOM     31  O   UNL     1       3.561  -3.926   5.301  0.00  0.00    -0.378 OA
ENDBRANCH  26  27
ENDBRANCH  14  26
ENDBRANCH  13  14
ENDBRANCH   1  13
BRANCH   5  32
ATOM     32  O   UNL     1       1.643  -7.639   8.281  0.00  0.00    -0.436 OA
BRANCH  32  33
ATOM     33  C   UNL     1       0.985  -8.787   8.593  0.00  0.00    +0.149 A 
ATOM     34  C   UNL     1       1.697  -9.912   8.982  0.00  0.00    +0.048 A 
ATOM     35  C   UNL     1       1.026 -11.077   9.299  0.00  0.00    +0.004 A 
ATOM     36  C   UNL     1      -0.354 -11.123   9.229  0.00  0.00    +0.002 A 
ATOM     37  C   UNL     1      -1.067 -10.004   8.842  0.00  0.00    +0.024 A 
ATOM     38  C   UNL     1      -0.401  -8.833   8.529  0.00  0.00    +0.083 A 
ATOM     39 CL   UNL     1      -1.297  -7.426   8.050  0.00  0.00    -0.080 Cl
ENDBRANCH  32  33
ENDBRANCH   5  32
TORSDOF 15
