REMARK  Name = ZINC16682439
REMARK  12 active torsions:
REMARK  status: ('A' for Active; 'I' for Inactive)
REMARK    1  A    between atoms: C_1  and  C_2
REMARK    2  A    between atoms: C_2  and  O_3
REMARK    3  A    between atoms: O_3  and  C_4
REMARK    4  A    between atoms: C_4  and  C_6
REMARK    5  A    between atoms: C_7  and  C_35
REMARK    6  A    between atoms: C_14  and  C_15
REMARK    7  A    between atoms: C_18  and  O_21
REMARK    8  A    between atoms: C_23  and  C_25
REMARK    9  A    between atoms: C_28  and  O_31
REMARK   10  A    between atoms: O_31  and  C_32
REMARK   11  A    between atoms: C_32  and  C_33
REMARK   12  A    between atoms: C_32  and  C_34
REMARK                            x       y       z     vdW  Elec       q    Type
REMARK                         _______ _______ _______ _____ _____    ______ ____
ROOT
ATOM      1  C   UNL     1      -3.851   2.284   1.093  0.00  0.00    +0.085 C 
ATOM      2  C   UNL     1      -3.783   3.606   0.751  0.00  0.00    +0.053 C 
ATOM      3  N   UNL     1      -2.629   4.150   0.387  0.00  0.00    -0.228 NA
ATOM      4  C   UNL     1      -1.489   3.510   0.320  0.00  0.00    +0.178 A 
ATOM      5  N   UNL     1      -1.337   2.175   0.617  0.00  0.00    -0.275 N 
ATOM      6  C   UNL     1      -0.118   1.630   0.516  0.00  0.00    +0.268 A 
ATOM      7  O   UNL     1       0.066   0.454   0.772  0.00  0.00    -0.266 OA
ATOM      8  C   UNL     1       0.990   2.492   0.082  0.00  0.00    +0.081 A 
ATOM      9  C   UNL     1       2.301   2.186  -0.102  0.00  0.00    +0.028 C 
ATOM     10  S   UNL     1       0.146   4.050  -0.138  0.00  0.00    -0.046 S 
ATOM     11  C   UNL     1      -2.578   1.470   1.043  0.00  0.00    +0.162 C 
ATOM     12  C   UNL     1      -5.029   4.452   0.788  0.00  0.00    +0.066 C 
ENDROOT
BRANCH   9  13
ATOM     13  C   UNL     1       2.746   0.789  -0.030  0.00  0.00    -0.024 A 
ATOM     14  C   UNL     1       3.934   0.463   0.635  0.00  0.00    +0.011 A 
ATOM     15  C   UNL     1       4.344  -0.849   0.705  0.00  0.00    +0.046 A 
ATOM     16  C   UNL     1       3.586  -1.849   0.105  0.00  0.00    +0.117 A 
ATOM     17  C   UNL     1       2.409  -1.530  -0.562  0.00  0.00    +0.046 A 
ATOM     18  C   UNL     1       1.986  -0.222  -0.632  0.00  0.00    +0.011 A 
BRANCH  16  19
ATOM     19  O   UNL     1       3.998  -3.141   0.171  0.00  0.00    -0.507 OA
ATOM     20  H   UNL     1       4.571  -3.409  -0.560  0.00  0.00    +0.292 HD
ENDBRANCH  16  19
ENDBRANCH   9  13
BRANCH  11  21
ATOM     21  C   UNL     1      -2.341   0.897   2.416  0.00  0.00    -0.020 A 
ATOM     22  C   UNL     1      -1.777   1.682   3.404  0.00  0.00    +0.009 A 
ATOM     23  C   UNL     1      -1.564   1.160   4.666  0.00  0.00    +0.046 A 
ATOM     24  C   UNL     1      -1.905  -0.157   4.937  0.00  0.00    +0.121 A 
ATOM     25  C   UNL     1      -2.466  -0.945   3.942  0.00  0.00    +0.046 A 
ATOM     26  C   UNL     1      -2.683  -0.416   2.684  0.00  0.00    +0.009 A 
BRANCH  24  27
ATOM     27  O   UNL     1      -1.691  -0.675   6.175  0.00  0.00    -0.489 OA
BRANCH  27  28
ATOM     28  C   UNL     1      -1.096   0.189   7.145  0.00  0.00    +0.167 C 
ATOM     29  C   UNL     1      -2.176   1.072   7.772  0.00  0.00    +0.051 C 
ATOM     30  C   UNL     1      -0.428  -0.651   8.235  0.00  0.00    +0.051 C 
ENDBRANCH  27  28
ENDBRANCH  24  27
ENDBRANCH  11  21
BRANCH   1  31
ATOM     31  C   UNL     1      -5.068   1.700   1.479  0.00  0.00    +0.339 C 
ATOM     32  O   UNL     1      -6.083   2.372   1.512  0.00  0.00    -0.245 OA
BRANCH  31  33
ATOM     33  O   UNL     1      -5.113   0.392   1.813  0.00  0.00    -0.462 OA
BRANCH  33  35
ATOM     34  C   UNL     1      -6.237  -1.622   2.536  0.00  0.00    +0.048 C 
ATOM     35  C   UNL     1      -6.384  -0.137   2.196  0.00  0.00    +0.229 C 
ENDBRANCH  33  35
ENDBRANCH  31  33
ENDBRANCH   1  31
TORSDOF 8
