REMARK  Name = ZINC14811113
REMARK  7 active torsions:
REMARK  status: ('A' for Active; 'I' for Inactive)
REMARK    1  A    between atoms: C_9  and  C_11
REMARK    2  A    between atoms: C_12  and  C_13
REMARK    3  A    between atoms: C_13  and  O_15
REMARK    4  A    between atoms: O_15  and  C_16
REMARK    5  A    between atoms: C_16  and  C_17
REMARK    6  A    between atoms: N_19  and  C_20
REMARK    7  A    between atoms: C_23  and  N_27
REMARK                            x       y       z     vdW  Elec       q    Type
REMARK                         _______ _______ _______ _____ _____    ______ ____
ROOT
ATOM      1  O   UNL     1      -4.776   1.190  -0.279  0.00  0.00    -0.452 OA
ENDROOT
BRANCH   1   2
ATOM      2  C   UNL     1      -6.023   1.695  -0.379  0.00  0.00    +0.332 C 
ATOM      3  O   UNL     1      -6.193   2.900  -0.385  0.00  0.00    -0.246 OA
BRANCH   2   5
ATOM      4  C   UNL     1      -8.386   1.328  -0.576  0.00  0.00    +0.017 C 
ATOM      5  C   UNL     1      -7.136   0.822  -0.476  0.00  0.00    +0.092 C 
BRANCH   4  14
ATOM      6  C   UNL     1     -10.448  -1.809  -0.769  0.00  0.00    +0.001 A 
ATOM      7  C   UNL     1     -11.722  -1.336  -0.870  0.00  0.00    +0.010 A 
ATOM      8  C   UNL     1     -11.975   0.045  -0.881  0.00  0.00    +0.001 A 
ATOM      9  C   UNL     1     -13.285   0.550  -0.987  0.00  0.00    +0.011 A 
ATOM     10  C   UNL     1     -13.454   1.906  -0.992  0.00  0.00    +0.020 A 
ATOM     11  C   UNL     1     -12.347   2.745  -0.895  0.00  0.00    +0.111 A 
ATOM     12  N   UNL     1     -11.127   2.268  -0.797  0.00  0.00    -0.254 NA
ATOM     13  C   UNL     1     -10.896   0.957  -0.786  0.00  0.00    +0.078 A 
ATOM     14  C   UNL     1      -9.537   0.425  -0.677  0.00  0.00    +0.001 A 
ATOM     15  C   UNL     1      -9.359  -0.956  -0.677  0.00  0.00    +0.010 A 
ENDBRANCH   4  14
ENDBRANCH   2   5
ENDBRANCH   1   2
BRANCH   1  16
ATOM     16  C   UNL     1      -3.702   2.128  -0.184  0.00  0.00    +0.328 C 
BRANCH  16  17
ATOM     17  C   UNL     1      -2.394   1.385  -0.081  0.00  0.00    +0.255 C 
ATOM     18  O   UNL     1      -2.384   0.173  -0.088  0.00  0.00    -0.272 OA
ATOM     19  N   UNL     1      -1.237   2.069   0.019  0.00  0.00    -0.282 N 
ATOM     20  H   UNL     1      -1.251   3.035   0.105  0.00  0.00    +0.155 HD
BRANCH  19  21
ATOM     21  C   UNL     1      -0.016   1.385  -0.001  0.00  0.00    +0.048 A 
ATOM     22  C   UNL     1       0.076   0.144  -0.617  0.00  0.00    +0.026 A 
ATOM     23  C   UNL     1       1.283  -0.526  -0.640  0.00  0.00    +0.034 A 
ATOM     24  C   UNL     1       2.401   0.038  -0.052  0.00  0.00    +0.127 A 
ATOM     25  C   UNL     1       2.313   1.274   0.561  0.00  0.00    +0.049 A 
ATOM     26  C   UNL     1       1.108   1.950   0.589  0.00  0.00    +0.041 A 
ATOM     27 BR   UNL     1       0.989   3.640   1.428  0.00  0.00    -0.048 Br
BRANCH  24  28
ATOM     28  N   UNL     1       3.693  -0.682  -0.080  0.00  0.00    +0.056 N 
ATOM     29  O   UNL     1       3.772  -1.771  -0.620  0.00  0.00    -0.126 OA
ATOM     30  O   UNL     1       4.678  -0.187   0.437  0.00  0.00    -0.126 OA
ENDBRANCH  24  28
ENDBRANCH  19  21
ENDBRANCH  16  17
ENDBRANCH   1  16
TORSDOF 7
