REMARK  Name = ZINC60093584
REMARK  9 active torsions:
REMARK  status: ('A' for Active; 'I' for Inactive)
REMARK    1  A    between atoms: C_1  and  C_2
REMARK    2  A    between atoms: C_5  and  C_9
REMARK    3  A    between atoms: C_7  and  C_8
REMARK    4  A    between atoms: C_15  and  C_17
REMARK    5  A    between atoms: C_17  and  C_18
REMARK    6  A    between atoms: C_18  and  C_19
REMARK    7  A    between atoms: C_21  and  C_24
REMARK    8  A    between atoms: C_24  and  N_31
REMARK    9  A    between atoms: C_32  and  C_34
REMARK                            x       y       z     vdW  Elec       q    Type
REMARK                         _______ _______ _______ _____ _____    ______ ____
ROOT
ATOM      1  C   UNL     1       4.518  -4.661  -2.216  0.00  0.00    +0.108 C 
ENDROOT
BRANCH   1   2
ATOM      2  C   UNL     1       5.303  -5.221  -3.374  0.00  0.00    +0.228 A 
ATOM      3  N   UNL     1       5.507  -4.628  -4.517  0.00  0.00    -0.194 NA
ATOM      4  C   UNL     1       6.245  -5.408  -5.314  0.00  0.00    +0.195 A 
ATOM      5  N   UNL     1       6.522  -6.514  -4.684  0.00  0.00    -0.059 NA
ATOM      6  O   UNL     1       5.918  -6.410  -3.403  0.00  0.00    -0.338 OA
BRANCH   4   7
ATOM      7  C   UNL     1       6.685  -5.065  -6.714  0.00  0.00    +0.097 C 
ATOM      8  C   UNL     1       5.438  -4.764  -7.570  0.00  0.00    +0.034 C 
ATOM      9  C   UNL     1       5.862  -3.950  -8.763  0.00  0.00    +0.003 C 
ATOM     10  C   UNL     1       6.147  -4.822 -10.000  0.00  0.00    +0.000 C 
ATOM     11  C   UNL     1       6.920  -6.110  -9.657  0.00  0.00    +0.000 C 
ATOM     12  C   UNL     1       8.019  -5.874  -8.657  0.00  0.00    +0.003 C 
ATOM     13  C   UNL     1       7.470  -6.169  -7.246  0.00  0.00    +0.034 C 
BRANCH   7  14
ATOM     14  N   UNL     1       7.526  -3.866  -6.666  0.00  0.00    -0.303 N 
ATOM     15  C   UNL     1       7.027  -2.712  -6.180  0.00  0.00    +0.211 C 
ATOM     16  O   UNL     1       5.882  -2.667  -5.782  0.00  0.00    -0.276 OA
ATOM     17  C   UNL     1       7.891  -1.479  -6.130  0.00  0.00    +0.109 C 
ATOM     18  H   UNL     1       8.441  -3.902  -6.984  0.00  0.00    +0.150 HD
ENDBRANCH   7  14
ENDBRANCH   4   7
ENDBRANCH   1   2
BRANCH   1  19
ATOM     19  C   UNL     1       3.051  -5.078  -2.346  0.00  0.00    +0.105 C 
BRANCH  19  25
ATOM     20  C   UNL     1       0.059  -4.275  -0.021  0.00  0.00    +0.106 C 
ATOM     21  C   UNL     1      -1.356  -4.817  -0.311  0.00  0.00    +0.029 C 
ATOM     22  C   UNL     1      -1.080  -6.041  -1.224  0.00  0.00    +0.021 C 
ATOM     23  C   UNL     1       0.136  -5.548  -2.046  0.00  0.00    +0.108 C 
ATOM     24  N   UNL     1       0.943  -4.758  -1.093  0.00  0.00    -0.294 N 
ATOM     25  C   UNL     1       2.265  -4.518  -1.189  0.00  0.00    +0.217 C 
ATOM     26  O   UNL     1       2.823  -3.851  -0.343  0.00  0.00    -0.276 OA
BRANCH  20  31
ATOM     27  C   UNL     1      -0.018   1.503   0.010  0.00  0.00    +0.044 C 
ATOM     28  C   UNL     1       0.002  -0.004   0.002  0.00  0.00    -0.048 A 
ATOM     29  C   UNL     1       0.006  -0.689  -1.199  0.00  0.00    +0.004 A 
ATOM     30  C   UNL     1       0.025  -2.071  -1.207  0.00  0.00    +0.006 A 
ATOM     31  C   UNL     1       0.040  -2.768  -0.013  0.00  0.00    -0.027 A 
ATOM     32  C   UNL     1       0.037  -2.084   1.188  0.00  0.00    +0.009 A 
ATOM     33  C   UNL     1       0.023  -0.702   1.195  0.00  0.00    -0.047 A 
ATOM     34  C   UNL     1       0.025   0.045   2.504  0.00  0.00    +0.044 C 
ENDBRANCH  20  31
ENDBRANCH  19  25
ENDBRANCH   1  19
TORSDOF 6
