REMARK  Name = ZINC20749934
REMARK  3 active torsions:
REMARK  status: ('A' for Active; 'I' for Inactive)
REMARK    1  A    between atoms: C_1  and  C_2
REMARK    2  A    between atoms: C_4  and  N_26
REMARK    3  A    between atoms: C_9  and  C_18
REMARK                            x       y       z     vdW  Elec       q    Type
REMARK                         _______ _______ _______ _____ _____    ______ ____
ROOT
ATOM      1  C   UNL     1       4.315  -0.655   0.138  0.00  0.00    +0.046 C 
ATOM      2  C   UNL     1       2.906  -0.120   0.103  0.00  0.00    -0.027 A 
ATOM      3  C   UNL     1       1.840  -0.994   0.101  0.00  0.00    +0.038 A 
ATOM      4  C   UNL     1       0.548  -0.501   0.069  0.00  0.00    +0.127 A 
ATOM      5  C   UNL     1       0.329   0.861   0.039  0.00  0.00    +0.038 A 
ATOM      6  C   UNL     1       1.396   1.749   0.042  0.00  0.00    -0.017 A 
ATOM      7  C   UNL     1       2.688   1.257   0.074  0.00  0.00    +0.034 A 
ATOM      8  N   UNL     1       3.802   2.096   0.077  0.00  0.00    -0.336 N 
ATOM      9  C   UNL     1       3.499   3.392   0.688  0.00  0.00    +0.108 C 
ATOM     10  C   UNL     1       2.366   4.069  -0.068  0.00  0.00    +0.029 C 
ATOM     11  C   UNL     1       1.080   3.221   0.012  0.00  0.00    +0.049 C 
ATOM     12  C   UNL     1       0.383   3.523  -1.305  0.00  0.00    -0.023 C 
ATOM     13  C   UNL     1       1.241   3.966  -2.188  0.00  0.00    -0.030 C 
ATOM     14  C   UNL     1       2.635   4.024  -1.592  0.00  0.00    +0.033 C 
ATOM     15  H   UNL     1       4.812   1.893  -0.307  0.00  0.00    +0.147 HD
ENDROOT
BRANCH   9  16
ATOM     16  C   UNL     1       3.089   3.184   2.123  0.00  0.00    +0.010 A 
ATOM     17  C   UNL     1       2.045   3.918   2.658  0.00  0.00    +0.047 A 
ATOM     18  C   UNL     1       1.666   3.723   3.974  0.00  0.00    +0.020 A 
ATOM     19  C   UNL     1       2.336   2.803   4.757  0.00  0.00    +0.003 A 
ATOM     20  C   UNL     1       3.383   2.073   4.225  0.00  0.00    +0.020 A 
ATOM     21  C   UNL     1       3.760   2.263   2.908  0.00  0.00    +0.047 A 
ATOM     22 CL   UNL     1       5.074   1.347   2.240  0.00  0.00    -0.083 Cl
ATOM     23 CL   UNL     1       1.207   5.078   1.675  0.00  0.00    -0.083 Cl
ENDBRANCH   9  16
BRANCH   4  24
ATOM     24  N   UNL     1      -0.600  -1.435   0.066  0.00  0.00    +0.056 N 
ATOM     25  O   UNL     1      -1.738  -1.002   0.038  0.00  0.00    -0.126 OA
ATOM     26  O   UNL     1      -0.407  -2.638   0.091  0.00  0.00    -0.126 OA
ENDBRANCH   4  24
TORSDOF 2
