REMARK  Name = ZINC09290376
REMARK  11 active torsions:
REMARK  status: ('A' for Active; 'I' for Inactive)
REMARK    1  A    between atoms: C_1  and  C_2
REMARK    2  A    between atoms: C_5  and  S_8
REMARK    3  A    between atoms: S_8  and  N_11
REMARK    4  A    between atoms: C_13  and  C_38
REMARK    5  A    between atoms: C_16  and  C_18
REMARK    6  A    between atoms: C_18  and  C_19
REMARK    7  A    between atoms: C_18  and  C_20
REMARK    8  A    between atoms: C_21  and  C_23
REMARK    9  A    between atoms: C_23  and  S_24
REMARK   10  A    between atoms: S_24  and  C_25
REMARK   11  A    between atoms: C_31  and  N_35
REMARK                            x       y       z     vdW  Elec       q    Type
REMARK                         _______ _______ _______ _____ _____    ______ ____
ROOT
ATOM      1  N   UNL     1       8.770  -2.708   0.652  0.00  0.00    -0.154 NA
ATOM      2  C   UNL     1       7.359  -2.684   1.071  0.00  0.00    +0.133 C 
ATOM      3  C   UNL     1       6.802  -1.359   0.522  0.00  0.00    +0.090 C 
ATOM      4  N   UNL     1       7.976  -0.468   0.461  0.00  0.00    -0.279 N 
ATOM      5  C   UNL     1       9.145  -1.340   0.275  0.00  0.00    +0.171 C 
ATOM      6  C   UNL     1       7.978   0.876   0.562  0.00  0.00    +0.227 C 
ATOM      7  O   UNL     1       9.013   1.493   0.426  0.00  0.00    -0.275 OA
ATOM      8  C   UNL     1       5.745  -0.788   1.471  0.00  0.00    +0.029 C 
ENDROOT
BRANCH   1   9
ATOM      9  S   UNL     1       9.756  -4.038   0.613  0.00  0.00    +0.063 S 
ATOM     10  O   UNL     1       8.905  -5.176   0.613  0.00  0.00    -0.153 OA
ATOM     11  O   UNL     1      10.714  -3.804  -0.410  0.00  0.00    -0.153 OA
BRANCH   9  16
ATOM     12  C   UNL     1      12.794  -4.159   5.825  0.00  0.00    +0.044 C 
ATOM     13  C   UNL     1      12.036  -4.129   4.523  0.00  0.00    -0.050 A 
ATOM     14  C   UNL     1      10.818  -4.775   4.418  0.00  0.00    +0.005 A 
ATOM     15  C   UNL     1      10.122  -4.747   3.224  0.00  0.00    +0.029 A 
ATOM     16  C   UNL     1      10.643  -4.074   2.135  0.00  0.00    +0.106 A 
ATOM     17  C   UNL     1      11.864  -3.433   2.239  0.00  0.00    +0.029 A 
ATOM     18  C   UNL     1      12.558  -3.456   3.434  0.00  0.00    +0.005 A 
ENDBRANCH   9  16
ENDBRANCH   1   9
BRANCH   5  19
ATOM     19  C   UNL     1       9.581  -1.310  -1.192  0.00  0.00    +0.020 C 
ATOM     20  C   UNL     1       8.444  -1.833  -2.072  0.00  0.00    +0.010 C 
ATOM     21  C   UNL     1       9.918   0.127  -1.595  0.00  0.00    +0.010 C 
ENDBRANCH   5  19
BRANCH   6  22
ATOM     22  C   UNL     1       6.693   1.612   0.842  0.00  0.00    +0.173 C 
BRANCH  22  23
ATOM     23  S   UNL     1       6.987   3.396   0.748  0.00  0.00    -0.079 S 
BRANCH  23  24
ATOM     24  C   UNL     1       5.368   3.992   1.107  0.00  0.00    +0.168 A 
ATOM     25  N   UNL     1       5.012   5.309   1.167  0.00  0.00    -0.333 N 
ATOM     26  H   UNL     1       5.614   6.094   1.018  0.00  0.00    +0.168 HD
ATOM     27  C   UNL     1       3.662   5.356   1.473  0.00  0.00    +0.067 A 
ATOM     28  C   UNL     1       2.755   6.387   1.663  0.00  0.00    +0.030 A 
ATOM     29  C   UNL     1       1.440   6.098   1.966  0.00  0.00    +0.035 A 
ATOM     30  C   UNL     1       1.018   4.782   2.077  0.00  0.00    +0.128 A 
ATOM     31  C   UNL     1       1.906   3.745   1.897  0.00  0.00    +0.062 A 
ATOM     32  C   UNL     1       3.241   4.021   1.589  0.00  0.00    +0.092 A 
ATOM     33  N   UNL     1       4.326   3.237   1.355  0.00  0.00    -0.222 NA
BRANCH  30  34
ATOM     34  N   UNL     1      -0.397   4.489   2.397  0.00  0.00    +0.056 N 
ATOM     35  O   UNL     1      -0.772   3.334   2.500  0.00  0.00    -0.126 OA
ATOM     36  O   UNL     1      -1.187   5.402   2.558  0.00  0.00    -0.126 OA
ENDBRANCH  30  34
ENDBRANCH  23  24
ENDBRANCH  22  23
ENDBRANCH   6  22
TORSDOF 7
