REMARK  Name = ZINC37603937
REMARK  9 active torsions:
REMARK  status: ('A' for Active; 'I' for Inactive)
REMARK    1  A    between atoms: C_1  and  C_2
REMARK    2  A    between atoms: C_2  and  C_3
REMARK    3  A    between atoms: C_2  and  C_4
REMARK    4  A    between atoms: C_12  and  O_23
REMARK    5  A    between atoms: C_15  and  C_17
REMARK    6  A    between atoms: O_23  and  C_24
REMARK    7  A    between atoms: C_24  and  C_25
REMARK    8  A    between atoms: C_27  and  C_30
REMARK    9  A    between atoms: N_32  and  C_33
REMARK                            x       y       z     vdW  Elec       q    Type
REMARK                         _______ _______ _______ _____ _____    ______ ____
ROOT
ATOM      1  C   UNL     1      -1.471  -0.114  -0.192  0.00  0.00    +0.219 C 
ATOM      2  O   UNL     1      -2.514   0.507  -0.184  0.00  0.00    -0.275 OA
ATOM      3  N   UNL     1      -1.488  -1.460  -0.126  0.00  0.00    -0.290 N 
ATOM      4  C   UNL     1      -0.242  -2.237  -0.025  0.00  0.00    +0.113 C 
ATOM      5  C   UNL     1      -0.244  -2.956   1.323  0.00  0.00    +0.054 C 
ATOM      6  C   UNL     1      -1.564  -3.640   1.563  0.00  0.00    -0.040 A 
ATOM      7  C   UNL     1      -1.595  -4.666   2.502  0.00  0.00    +0.007 A 
ATOM      8  C   UNL     1      -2.771  -5.330   2.778  0.00  0.00    +0.046 A 
ATOM      9  C   UNL     1      -3.936  -4.972   2.116  0.00  0.00    +0.122 A 
ATOM     10  C   UNL     1      -3.905  -3.953   1.179  0.00  0.00    +0.051 A 
ATOM     11  C   UNL     1      -2.718  -3.291   0.899  0.00  0.00    -0.016 A 
ATOM     12  C   UNL     1      -2.749  -2.209  -0.145  0.00  0.00    +0.137 C 
ENDROOT
BRANCH  12  13
ATOM     13  C   UNL     1      -2.939  -2.834  -1.503  0.00  0.00    -0.023 A 
ATOM     14  C   UNL     1      -3.982  -2.424  -2.313  0.00  0.00    +0.006 A 
ATOM     15  C   UNL     1      -4.157  -2.998  -3.559  0.00  0.00    +0.000 A 
ATOM     16  C   UNL     1      -3.288  -3.981  -3.994  0.00  0.00    +0.000 A 
ATOM     17  C   UNL     1      -2.245  -4.391  -3.185  0.00  0.00    +0.000 A 
ATOM     18  C   UNL     1      -2.068  -3.814  -1.941  0.00  0.00    +0.006 A 
ENDBRANCH  12  13
BRANCH   1  20
ATOM     19  C   UNL     1       0.189   0.881  -1.742  0.00  0.00    +0.017 C 
ATOM     20  C   UNL     1      -0.158   0.621  -0.274  0.00  0.00    +0.069 C 
ATOM     21  C   UNL     1      -0.271   1.954   0.468  0.00  0.00    +0.017 C 
ENDBRANCH   1  20
BRANCH   9  22
ATOM     22  O   UNL     1      -5.101  -5.618   2.385  0.00  0.00    -0.483 OA
BRANCH  22  23
ATOM     23  C   UNL     1      -5.055  -6.658   3.363  0.00  0.00    +0.324 C 
BRANCH  23  24
ATOM     24  C   UNL     1      -6.429  -7.255   3.527  0.00  0.00    +0.234 A 
ATOM     25  N   UNL     1      -6.898  -8.261   2.852  0.00  0.00    -0.206 NA
ATOM     26  C   UNL     1      -8.166  -8.512   3.276  0.00  0.00    +0.164 A 
ATOM     27  C   UNL     1      -8.450  -7.604   4.250  0.00  0.00    +0.230 A 
ATOM     28  O   UNL     1      -7.359  -6.835   4.397  0.00  0.00    -0.444 OA
BRANCH  26  29
ATOM     29  C   UNL     1      -9.064  -9.568   2.776  0.00  0.00    +0.270 C 
ATOM     30  O   UNL     1     -10.181  -9.688   3.241  0.00  0.00    -0.268 OA
ATOM     31  N   UNL     1      -8.648 -10.402   1.802  0.00  0.00    -0.280 N 
ATOM     32  H   UNL     1      -7.733 -10.354   1.482  0.00  0.00    +0.155 HD
BRANCH  31  33
ATOM     33  C   UNL     1      -9.534 -11.336   1.253  0.00  0.00    +0.034 A 
ATOM     34  C   UNL     1      -9.071 -12.582   0.853  0.00  0.00    +0.026 A 
ATOM     35  C   UNL     1      -9.947 -13.502   0.312  0.00  0.00    +0.040 A 
ATOM     36  C   UNL     1     -11.287 -13.182   0.168  0.00  0.00    +0.124 A 
ATOM     37  C   UNL     1     -11.751 -11.940   0.566  0.00  0.00    +0.040 A 
ATOM     38  C   UNL     1     -10.879 -11.019   1.114  0.00  0.00    +0.026 A 
ATOM     39  F   UNL     1     -12.142 -14.084  -0.362  0.00  0.00    -0.205 F 
ENDBRANCH  31  33
ENDBRANCH  26  29
ENDBRANCH  23  24
ENDBRANCH  22  23
ENDBRANCH   9  22
TORSDOF 7
