REMARK  Name = ZINC22428807
REMARK  12 active torsions:
REMARK  status: ('A' for Active; 'I' for Inactive)
REMARK    1  A    between atoms: C_1  and  C_2
REMARK    2  A    between atoms: C_2  and  O_3
REMARK    3  A    between atoms: O_3  and  C_4
REMARK    4  A    between atoms: C_7  and  N_10
REMARK    5  A    between atoms: N_10  and  C_11
REMARK    6  A    between atoms: N_10  and  S_28
REMARK    7  A    between atoms: C_11  and  C_12
REMARK    8  A    between atoms: N_14  and  C_15
REMARK    9  A    between atoms: C_15  and  C_16
REMARK   10  A    between atoms: C_19  and  N_22
REMARK   11  A    between atoms: C_26  and  C_27
REMARK   12  A    between atoms: S_28  and  C_31
REMARK                            x       y       z     vdW  Elec       q    Type
REMARK                         _______ _______ _______ _____ _____    ______ ____
ROOT
ATOM      1  N   UNL     1      -0.700   1.569  -1.171  0.00  0.00    -0.194 N 
ENDROOT
BRANCH   1   5
ATOM      2  C   UNL     1      -3.933  -0.608  -2.649  0.00  0.00    +0.121 A 
ATOM      3  C   UNL     1      -3.643  -0.633  -1.293  0.00  0.00    +0.047 A 
ATOM      4  C   UNL     1      -2.572   0.088  -0.802  0.00  0.00    +0.028 A 
ATOM      5  C   UNL     1      -1.786   0.838  -1.667  0.00  0.00    +0.052 A 
ATOM      6  C   UNL     1      -2.080   0.867  -3.024  0.00  0.00    +0.028 A 
ATOM      7  C   UNL     1      -3.148   0.140  -3.514  0.00  0.00    +0.047 A 
BRANCH   2   8
ATOM      8  O   UNL     1      -4.988  -1.318  -3.132  0.00  0.00    -0.492 OA
BRANCH   8  10
ATOM      9  C   UNL     1      -6.447  -2.103  -4.891  0.00  0.00    +0.048 C 
ATOM     10  C   UNL     1      -5.229  -1.246  -4.538  0.00  0.00    +0.225 C 
ENDBRANCH   8  10
ENDBRANCH   2   8
ENDBRANCH   1   5
BRANCH   1  11
ATOM     11  S   UNL     1      -0.626   3.205  -1.410  0.00  0.00    +0.075 S 
ATOM     12  O   UNL     1      -1.940   3.627  -1.745  0.00  0.00    -0.150 OA
ATOM     13  O   UNL     1       0.089   3.745  -0.306  0.00  0.00    -0.150 OA
BRANCH  11  14
ATOM     14  C   UNL     1       0.370   3.479  -2.837  0.00  0.00    +0.109 A 
ATOM     15  C   UNL     1       1.747   3.528  -2.720  0.00  0.00    +0.029 A 
ATOM     16  C   UNL     1       2.529   3.738  -3.841  0.00  0.00    +0.002 A 
ATOM     17  C   UNL     1       1.933   3.908  -5.077  0.00  0.00    +0.000 A 
ATOM     18  C   UNL     1       0.556   3.864  -5.193  0.00  0.00    +0.002 A 
ATOM     19  C   UNL     1      -0.225   3.650  -4.073  0.00  0.00    +0.029 A 
ENDBRANCH  11  14
ENDBRANCH   1  11
BRANCH   1  20
ATOM     20  C   UNL     1       0.370   0.885  -0.440  0.00  0.00    +0.227 C 
BRANCH  20  21
ATOM     21  C   UNL     1      -0.018   0.752   1.010  0.00  0.00    +0.232 C 
ATOM     22  O   UNL     1      -1.083   1.185   1.395  0.00  0.00    -0.274 OA
ATOM     23  N   UNL     1       0.819   0.151   1.879  0.00  0.00    -0.310 N 
ATOM     24  H   UNL     1       1.785  -0.241   1.530  0.00  0.00    +0.149 HD
BRANCH  23  25
ATOM     25  C   UNL     1       0.442   0.022   3.289  0.00  0.00    +0.139 C 
BRANCH  25  26
ATOM     26  C   UNL     1       1.543  -0.681   4.041  0.00  0.00    -0.030 A 
ATOM     27  C   UNL     1       1.530  -2.059   4.155  0.00  0.00    +0.007 A 
ATOM     28  C   UNL     1       2.540  -2.706   4.840  0.00  0.00    +0.026 A 
ATOM     29  C   UNL     1       3.563  -1.971   5.422  0.00  0.00    +0.048 A 
ATOM     30  C   UNL     1       3.571  -0.588   5.310  0.00  0.00    +0.026 A 
ATOM     31  C   UNL     1       2.561   0.054   4.620  0.00  0.00    +0.007 A 
BRANCH  29  32
ATOM     32  N   UNL     1       4.588  -2.625   6.122  0.00  0.00    -0.305 N 
ATOM     33  C   UNL     1       5.936  -2.440   5.954  0.00  0.00    +0.110 A 
ATOM     34  C   UNL     1       6.553  -3.263   6.823  0.00  0.00    +0.102 A 
ATOM     35  N   UNL     1       5.613  -3.934   7.505  0.00  0.00    -0.350 N 
ATOM     36  C   UNL     1       4.432  -3.557   7.097  0.00  0.00    +0.088 A 
ATOM     37  C   UNL     1       3.115  -4.072   7.620  0.00  0.00    +0.084 C 
ATOM     38  H   UNL     1       5.907  -4.668   8.270  0.00  0.00    +0.166 HD
ENDBRANCH  29  32
ENDBRANCH  25  26
ENDBRANCH  23  25
ENDBRANCH  20  21
ENDBRANCH   1  20
TORSDOF 10
