REMARK  Name = ZINC14999828
REMARK  11 active torsions:
REMARK  status: ('A' for Active; 'I' for Inactive)
REMARK    1  A    between atoms: C_1  and  C_2
REMARK    2  A    between atoms: C_2  and  C_4
REMARK    3  A    between atoms: C_2  and  N_60
REMARK    4  A    between atoms: C_6  and  C_10
REMARK    5  A    between atoms: C_16  and  N_60
REMARK    6  A    between atoms: C_17  and  C_18
REMARK    7  A    between atoms: C_17  and  N_60
REMARK    8  A    between atoms: C_23  and  S_33
REMARK    9  A    between atoms: N_26  and  C_29
REMARK   10  A    between atoms: C_29  and  C_30
REMARK   11  A    between atoms: S_33  and  C_34
REMARK                            x       y       z     vdW  Elec       q    Type
REMARK                         _______ _______ _______ _____ _____    ______ ____
ROOT
ATOM      1  C   UNL     1      -0.289   0.894  -0.059  0.00  0.00    -0.037 C 
ENDROOT
BRANCH   1   2
ATOM      2  C   UNL     1      -1.171   1.211   1.121  0.00  0.00    +0.001 A 
ATOM      3  C   UNL     1      -2.177   0.366   1.457  0.00  0.00    +0.017 A 
ATOM      4  C   UNL     1      -2.999   0.678   2.570  0.00  0.00    -0.001 A 
ATOM      5  C   UNL     1      -4.048  -0.172   2.948  0.00  0.00    +0.011 A 
ATOM      6  C   UNL     1      -4.826   0.145   4.021  0.00  0.00    +0.015 A 
ATOM      7  C   UNL     1      -4.587   1.312   4.750  0.00  0.00    +0.010 A 
ATOM      8  C   UNL     1      -3.554   2.165   4.393  0.00  0.00    +0.041 A 
ATOM      9  C   UNL     1      -2.753   1.856   3.302  0.00  0.00    +0.053 A 
ATOM     10  N   UNL     1      -1.718   2.690   2.929  0.00  0.00    -0.303 N 
ATOM     11  C   UNL     1      -0.942   2.381   1.873  0.00  0.00    +0.253 A 
ATOM     12  O   UNL     1      -0.030   3.127   1.560  0.00  0.00    -0.267 OA
BRANCH   7  13
ATOM     13  S   UNL     1      -5.605   1.702   6.134  0.00  0.00    -0.129 S 
ATOM     14  C   UNL     1      -6.788   0.329   6.211  0.00  0.00    +0.090 C 
ENDBRANCH   7  13
BRANCH  10  15
ATOM     15  C   UNL     1      -1.461   3.916   3.688  0.00  0.00    +0.172 C 
BRANCH  15  16
ATOM     16  C   UNL     1      -0.488   3.622   4.802  0.00  0.00    +0.031 C 
ATOM     17  C   UNL     1       0.700   4.176   4.798  0.00  0.00    +0.027 C 
ATOM     18 CL   UNL     1      -0.942   2.549   6.089  0.00  0.00    -0.087 Cl
ENDBRANCH  15  16
ENDBRANCH  10  15
ENDBRANCH   1   2
BRANCH   1  20
ATOM     19  C   UNL     1      -0.677   3.043  -1.106  0.00  0.00    -0.095 C 
ATOM     20  N   UNL     1      -0.826   1.580  -1.254  0.00  0.00    +0.386 N 
ATOM     21  H   UNL     1      -1.823   1.353  -1.348  0.00  0.00    -0.081 HD
BRANCH  20  23
ATOM     22  C   UNL     1      -0.677   1.852  -3.683  0.00  0.00    -0.007 C 
ATOM     23  C   UNL     1      -0.113   1.119  -2.464  0.00  0.00    -0.020 C 
BRANCH  23  24
ATOM     24  C   UNL     1      -0.329  -0.363  -2.624  0.00  0.00    +0.050 A 
ATOM     25  C   UNL     1       0.516  -1.241  -3.303  0.00  0.00    +0.051 A 
ATOM     26  C   UNL     1      -0.025  -2.493  -3.220  0.00  0.00    +0.066 A 
ATOM     27  N   UNL     1      -1.184  -2.387  -2.511  0.00  0.00    -0.277 N 
ATOM     28  H   UNL     1      -1.809  -3.135  -2.287  0.00  0.00    +0.189 HD
ATOM     29  N   UNL     1      -1.345  -1.042  -2.154  0.00  0.00    -0.180 NA
BRANCH  26  30
ATOM     30  C   UNL     1       0.540  -3.733  -3.797  0.00  0.00    -0.000 A 
ATOM     31  C   UNL     1       1.740  -3.691  -4.508  0.00  0.00    +0.010 A 
ATOM     32  C   UNL     1       2.265  -4.851  -5.038  0.00  0.00    +0.001 A 
ATOM     33  C   UNL     1       1.598  -6.053  -4.877  0.00  0.00    +0.000 A 
ATOM     34  C   UNL     1       0.405  -6.100  -4.178  0.00  0.00    +0.001 A 
ATOM     35  C   UNL     1      -0.127  -4.947  -3.637  0.00  0.00    +0.010 A 
ENDBRANCH  26  30
ENDBRANCH  23  24
ENDBRANCH  20  23
ENDBRANCH   1  20
TORSDOF 8
