REMARK  Name = ZINC12711132
REMARK  9 active torsions:
REMARK  status: ('A' for Active; 'I' for Inactive)
REMARK    1  A    between atoms: C_1  and  C_2
REMARK    2  A    between atoms: C_7  and  C_14
REMARK    3  A    between atoms: C_14  and  C_16
REMARK    4  A    between atoms: C_14  and  N_64
REMARK    5  A    between atoms: N_20  and  C_21
REMARK    6  A    between atoms: C_21  and  C_22
REMARK    7  A    between atoms: C_25  and  O_28
REMARK    8  A    between atoms: O_28  and  C_29
REMARK    9  A    between atoms: C_33  and  C_36
REMARK                            x       y       z     vdW  Elec       q    Type
REMARK                         _______ _______ _______ _____ _____    ______ ____
ROOT
ATOM      1  C   UNL     1      -0.134   0.932   2.393  0.00  0.00    +0.039 C 
ENDROOT
BRANCH   1   8
ATOM      2  C   UNL     1       0.981   2.771  10.073  0.00  0.00    +0.044 C 
ATOM      3  C   UNL     1       0.995   2.485   8.594  0.00  0.00    -0.048 A 
ATOM      4  C   UNL     1       2.159   2.688   7.865  0.00  0.00    +0.004 A 
ATOM      5  C   UNL     1       2.192   2.435   6.523  0.00  0.00    +0.010 A 
ATOM      6  C   UNL     1       1.043   1.966   5.878  0.00  0.00    -0.001 A 
ATOM      7  C   UNL     1       1.045   1.679   4.442  0.00  0.00    +0.017 A 
ATOM      8  C   UNL     1      -0.100   1.232   3.869  0.00  0.00    +0.011 A 
ATOM      9  C   UNL     1      -1.259   1.042   4.652  0.00  0.00    +0.251 A 
ATOM     10  O   UNL     1      -2.276   0.634   4.118  0.00  0.00    -0.268 OA
ATOM     11  N   UNL     1      -1.269   1.297   5.972  0.00  0.00    -0.322 N 
ATOM     12  H   UNL     1      -2.083   1.155   6.480  0.00  0.00    +0.169 HD
ATOM     13  C   UNL     1      -0.139   1.758   6.613  0.00  0.00    +0.049 A 
ATOM     14  C   UNL     1      -0.149   2.024   7.979  0.00  0.00    +0.029 A 
ENDBRANCH   1   8
BRANCH   1  21
ATOM     15  C   UNL     1      -1.131   3.122   2.125  0.00  0.00    -0.077 C 
ATOM     16  C   UNL     1      -2.349   3.864   1.571  0.00  0.00    -0.018 C 
ATOM     17  C   UNL     1      -2.385   3.709   0.048  0.00  0.00    -0.001 C 
ATOM     18  C   UNL     1      -2.422   2.220  -0.306  0.00  0.00    -0.031 C 
ATOM     19  C   UNL     1      -1.202   1.526   0.303  0.00  0.00    -0.074 C 
ATOM     20  C   UNL     1      -2.399   2.055  -1.826  0.00  0.00    +0.005 C 
ATOM     21  N   UNL     1      -1.239   1.690   1.772  0.00  0.00    +0.389 N 
ATOM     22  H   UNL     1      -2.132   1.327   2.125  0.00  0.00    -0.080 HD
ENDBRANCH   1  21
BRANCH   1  23
ATOM     23  C   UNL     1      -0.378  -0.540   2.185  0.00  0.00    +0.143 A 
ATOM     24  N   UNL     1      -1.478  -1.197   2.458  0.00  0.00    -0.115 NA
ATOM     25  N   UNL     1      -1.294  -2.432   2.139  0.00  0.00    -0.023 NA
ATOM     26  N   UNL     1      -0.104  -2.580   1.671  0.00  0.00    -0.044 NA
ATOM     27  N   UNL     1       0.491  -1.435   1.678  0.00  0.00    -0.226 N 
BRANCH  27  28
ATOM     28  C   UNL     1       1.856  -1.161   1.222  0.00  0.00    +0.182 C 
BRANCH  28  29
ATOM     29  C   UNL     1       2.828  -1.484   2.327  0.00  0.00    -0.026 A 
ATOM     30  C   UNL     1       3.289  -0.478   3.157  0.00  0.00    +0.009 A 
ATOM     31  C   UNL     1       4.176  -0.772   4.174  0.00  0.00    +0.046 A 
ATOM     32  C   UNL     1       4.613  -2.075   4.356  0.00  0.00    +0.120 A 
ATOM     33  C   UNL     1       4.154  -3.082   3.519  0.00  0.00    +0.046 A 
ATOM     34  C   UNL     1       3.263  -2.784   2.507  0.00  0.00    +0.009 A 
BRANCH  32  35
ATOM     35  O   UNL     1       5.490  -2.366   5.353  0.00  0.00    -0.495 OA
ATOM     36  C   UNL     1       5.920  -1.280   6.176  0.00  0.00    +0.277 C 
ENDBRANCH  32  35
ENDBRANCH  28  29
ENDBRANCH  27  28
ENDBRANCH   1  23
TORSDOF 6
