REMARK  Name = ZINC36588961
REMARK  13 active torsions:
REMARK  status: ('A' for Active; 'I' for Inactive)
REMARK    1  A    between atoms: C_1  and  C_2
REMARK    2  A    between atoms: C_5  and  S_8
REMARK    3  A    between atoms: S_8  and  C_11
REMARK    4  A    between atoms: C_11  and  N_12
REMARK    5  A    between atoms: C_13  and  C_15
REMARK    6  A    between atoms: C_15  and  C_17
REMARK    7  A    between atoms: C_15  and  N_26
REMARK    8  A    between atoms: C_20  and  N_23
REMARK    9  A    between atoms: N_26  and  C_35
REMARK   10  A    between atoms: C_27  and  C_29
REMARK   11  A    between atoms: C_35  and  C_36
REMARK   12  A    between atoms: C_35  and  C_37
REMARK   13  A    between atoms: C_35  and  C_38
REMARK                            x       y       z     vdW  Elec       q    Type
REMARK                         _______ _______ _______ _____ _____    ______ ____
ROOT
ATOM      1  C   UNL     1       4.430  -9.347   4.094  0.00  0.00    +0.193 C 
ENDROOT
BRANCH   1   2
ATOM      2  C   UNL     1       4.566 -10.847   4.088  0.00  0.00    -0.018 A 
ATOM      3  C   UNL     1       3.588 -11.633   4.668  0.00  0.00    +0.008 A 
ATOM      4  C   UNL     1       3.713 -13.009   4.662  0.00  0.00    +0.033 A 
ATOM      5  C   UNL     1       4.816 -13.601   4.076  0.00  0.00    +0.126 A 
ATOM      6  C   UNL     1       5.795 -12.815   3.495  0.00  0.00    +0.033 A 
ATOM      7  C   UNL     1       5.668 -11.439   3.497  0.00  0.00    +0.008 A 
BRANCH   5   8
ATOM      8  N   UNL     1       4.951 -15.075   4.070  0.00  0.00    +0.056 N 
ATOM      9  O   UNL     1       4.095 -15.762   4.579  0.00  0.00    -0.126 OA
ATOM     10  O   UNL     1       5.916 -15.592   3.558  0.00  0.00    -0.126 OA
ENDBRANCH   5   8
ENDBRANCH   1   2
BRANCH   1  12
ATOM     11  N   UNL     1       5.358  -8.980   1.831  0.00  0.00    -0.294 N 
ATOM     12  C   UNL     1       4.317  -8.846   2.677  0.00  0.00    +0.239 C 
ATOM     13  O   UNL     1       3.291  -8.323   2.299  0.00  0.00    -0.273 OA
ATOM     14  H   UNL     1       6.179  -9.399   2.134  0.00  0.00    +0.150 HD
BRANCH  11  15
ATOM     15  C   UNL     1       5.248  -8.494   0.453  0.00  0.00    +0.278 C 
BRANCH  15  16
ATOM     16  S   UNL     1       5.936  -6.819   0.347  0.00  0.00    +0.013 S 
ATOM     17  O   UNL     1       5.433  -6.015   1.405  0.00  0.00    -0.168 OA
ATOM     18  O   UNL     1       5.895  -6.357  -0.997  0.00  0.00    -0.168 OA
BRANCH  16  23
ATOM     19  C   UNL     1      11.809  -7.471   1.569  0.00  0.00    +0.044 C 
ATOM     20  C   UNL     1      10.342  -7.309   1.264  0.00  0.00    -0.050 A 
ATOM     21  C   UNL     1       9.893  -7.401  -0.040  0.00  0.00    +0.005 A 
ATOM     22  C   UNL     1       8.548  -7.252  -0.320  0.00  0.00    +0.027 A 
ATOM     23  C   UNL     1       7.651  -7.011   0.704  0.00  0.00    +0.090 A 
ATOM     24  C   UNL     1       8.100  -6.919   2.008  0.00  0.00    +0.027 A 
ATOM     25  C   UNL     1       9.445  -7.073   2.289  0.00  0.00    +0.005 A 
ENDBRANCH  16  23
ENDBRANCH  15  16
ENDBRANCH  11  15
ENDBRANCH   1  12
BRANCH   1  26
ATOM     26  N   UNL     1       3.229  -8.969   4.843  0.00  0.00    -0.277 N 
ATOM     27  C   UNL     1       2.050  -9.561   4.568  0.00  0.00    +0.248 C 
ATOM     28  O   UNL     1       1.875 -10.096   3.490  0.00  0.00    -0.270 OA
BRANCH  27  29
ATOM     29  C   UNL     1       0.969  -9.560   5.577  0.00  0.00    +0.037 A 
ATOM     30  C   UNL     1       0.498  -8.354   6.098  0.00  0.00    +0.013 A 
ATOM     31  C   UNL     1      -0.511  -8.359   7.038  0.00  0.00    +0.001 A 
ATOM     32  C   UNL     1      -1.056  -9.557   7.466  0.00  0.00    +0.000 A 
ATOM     33  C   UNL     1      -0.593 -10.757   6.954  0.00  0.00    +0.001 A 
ATOM     34  C   UNL     1       0.411 -10.764   6.008  0.00  0.00    +0.013 A 
ENDBRANCH  27  29
BRANCH  26  35
ATOM     35  C   UNL     1       3.309  -7.947   5.889  0.00  0.00    +0.030 C 
ATOM     36  C   UNL     1       4.766  -7.772   6.321  0.00  0.00    +0.031 C 
ATOM     37  C   UNL     1       2.775  -6.619   5.348  0.00  0.00    +0.031 C 
ATOM     38  C   UNL     1       2.470  -8.382   7.092  0.00  0.00    +0.031 C 
ENDBRANCH  26  35
ENDBRANCH   1  26
TORSDOF 9
