REMARK  Name = ZINC35806647
REMARK  5 active torsions:
REMARK  status: ('A' for Active; 'I' for Inactive)
REMARK    1  A    between atoms: C_1  and  C_2
REMARK    2  A    between atoms: C_7  and  C_8
REMARK    3  A    between atoms: N_25  and  C_28
REMARK    4  A    between atoms: C_31  and  C_34
REMARK    5  A    between atoms: C_34  and  C_36
REMARK                            x       y       z     vdW  Elec       q    Type
REMARK                         _______ _______ _______ _____ _____    ______ ____
ROOT
ATOM      1  C   UNL     1       0.719   1.594  -0.132  0.00  0.00    +0.044 C 
ATOM      2  C   UNL     1       0.617   0.092  -0.072  0.00  0.00    -0.046 A 
ATOM      3  C   UNL     1       0.339  -0.625  -1.222  0.00  0.00    +0.004 A 
ATOM      4  C   UNL     1       0.245  -2.004  -1.168  0.00  0.00    +0.005 A 
ATOM      5  C   UNL     1       0.429  -2.661   0.029  0.00  0.00    -0.027 A 
ATOM      6  C   UNL     1       0.711  -1.950   1.191  0.00  0.00    +0.039 A 
ATOM      7  C   UNL     1       0.808  -0.562   1.127  0.00  0.00    -0.026 A 
ATOM      8  C   UNL     1       1.117   0.228   2.372  0.00  0.00    +0.046 C 
ATOM      9  N   UNL     1       0.856  -2.826   2.269  0.00  0.00    -0.286 N 
ATOM     10  C   UNL     1       0.685  -4.112   1.906  0.00  0.00    +0.212 C 
ATOM     11  O   UNL     1       0.753  -5.083   2.628  0.00  0.00    -0.277 OA
ATOM     12  C   UNL     1       0.395  -4.109   0.429  0.00  0.00    +0.053 C 
ATOM     13  C   UNL     1       1.433  -4.929  -0.344  0.00  0.00    +0.089 C 
ATOM     14  C   UNL     1       0.628  -5.607  -1.487  0.00  0.00    +0.074 C 
ATOM     15  C   UNL     1      -0.821  -5.120  -1.304  0.00  0.00    -0.054 C 
ATOM     16  N   UNL     1      -0.914  -4.717   0.139  0.00  0.00    +0.395 N 
ATOM     17  C   UNL     1      -1.039  -5.989   0.889  0.00  0.00    -0.076 C 
ATOM     18  C   UNL     1      -1.929  -6.891   0.010  0.00  0.00    -0.020 C 
ATOM     19  C   UNL     1      -1.781  -6.315  -1.454  0.00  0.00    -0.016 C 
ATOM     20  C   UNL     1       0.723  -7.079  -1.156  0.00  0.00    +0.228 C 
ATOM     21  O   UNL     1       0.224  -7.976  -1.801  0.00  0.00    -0.275 OA
ATOM     22  N   UNL     1       1.444  -7.238  -0.040  0.00  0.00    -0.210 N 
ATOM     23  C   UNL     1       1.904  -6.088   0.505  0.00  0.00    +0.229 C 
ATOM     24  O   UNL     1       2.580  -5.994   1.507  0.00  0.00    -0.275 OA
ATOM     25  H   UNL     1       1.056  -2.542   3.175  0.00  0.00    +0.155 HD
ATOM     26  H   UNL     1      -1.680  -4.083   0.310  0.00  0.00    -0.079 HD
ENDROOT
BRANCH  22  27
ATOM     27  C   UNL     1       1.707  -8.491   0.518  0.00  0.00    +0.044 A 
ATOM     28  C   UNL     1       2.523  -9.393  -0.157  0.00  0.00    +0.024 A 
ATOM     29  C   UNL     1       2.785 -10.629   0.388  0.00  0.00    +0.013 A 
ATOM     30  C   UNL     1       2.228 -10.979   1.625  0.00  0.00    +0.017 A 
ATOM     31  C   UNL     1       1.407 -10.068   2.300  0.00  0.00    +0.013 A 
ATOM     32  C   UNL     1       1.156  -8.832   1.750  0.00  0.00    +0.024 A 
BRANCH  30  33
ATOM     33  C   UNL     1       2.504 -12.297   2.211  0.00  0.00    +0.160 C 
ATOM     34  O   UNL     1       3.215 -13.085   1.624  0.00  0.00    -0.292 OA
ATOM     35  C   UNL     1       1.903 -12.671   3.541  0.00  0.00    +0.091 C 
ENDBRANCH  30  33
ENDBRANCH  22  27
TORSDOF 2
