REMARK  Name = ZINC12497630
REMARK  11 active torsions:
REMARK  status: ('A' for Active; 'I' for Inactive)
REMARK    1  A    between atoms: C_1  and  C_2
REMARK    2  A    between atoms: C_2  and  C_3
REMARK    3  A    between atoms: C_3  and  C_4
REMARK    4  A    between atoms: C_4  and  C_29
REMARK    5  A    between atoms: C_9  and  C_11
REMARK    6  A    between atoms: N_18  and  C_21
REMARK    7  A    between atoms: C_24  and  O_27
REMARK    8  A    between atoms: O_27  and  C_28
REMARK    9  A    between atoms: C_29  and  O_31
REMARK   10  A    between atoms: O_31  and  C_32
REMARK   11  A    between atoms: C_32  and  C_33
REMARK                            x       y       z     vdW  Elec       q    Type
REMARK                         _______ _______ _______ _____ _____    ______ ____
ROOT
ATOM      1  C   UNL     1       0.671   0.743  -2.205  0.00  0.00    +0.044 C 
ATOM      2  C   UNL     1      -0.411   1.445  -1.389  0.00  0.00    +0.086 C 
ATOM      3  C   UNL     1       0.111   1.048   0.048  0.00  0.00    +0.080 C 
ATOM      4  C   UNL     1       1.540   1.395  -0.040  0.00  0.00    +0.010 C 
ATOM      5  C   UNL     1      -1.055   1.314   0.852  0.00  0.00    +0.229 C 
ATOM      6  O   UNL     1      -1.089   1.730   1.990  0.00  0.00    -0.275 OA
ATOM      7  N   UNL     1      -2.119   0.992   0.069  0.00  0.00    -0.210 N 
ATOM      8  C   UNL     1      -1.772   0.824  -1.242  0.00  0.00    +0.229 C 
ATOM      9  O   UNL     1      -2.428   0.285  -2.108  0.00  0.00    -0.275 OA
ATOM     10  N   UNL     1       1.906   0.847  -1.384  0.00  0.00    +0.397 N 
ATOM     11  H   UNL     1       2.575   1.476  -1.844  0.00  0.00    -0.083 HD
ATOM     12  H   UNL     1       2.329  -0.082  -1.276  0.00  0.00    -0.083 HD
ENDROOT
BRANCH   7  13
ATOM     13  C   UNL     1      -3.429   0.850   0.551  0.00  0.00    +0.044 A 
ATOM     14  C   UNL     1      -4.459   0.527  -0.322  0.00  0.00    +0.027 A 
ATOM     15  C   UNL     1      -5.747   0.382   0.154  0.00  0.00    +0.047 A 
ATOM     16  C   UNL     1      -6.014   0.570   1.502  0.00  0.00    +0.120 A 
ATOM     17  C   UNL     1      -4.986   0.898   2.374  0.00  0.00    +0.047 A 
ATOM     18  C   UNL     1      -3.696   1.037   1.900  0.00  0.00    +0.027 A 
BRANCH  16  19
ATOM     19  O   UNL     1      -7.283   0.433   1.969  0.00  0.00    -0.495 OA
ATOM     20  C   UNL     1      -8.292   0.095   1.016  0.00  0.00    +0.277 C 
ENDBRANCH  16  19
ENDBRANCH   7  13
BRANCH   4  21
ATOM     21  C   UNL     1       2.324   0.719   1.054  0.00  0.00    +0.092 A 
ATOM     22  C   UNL     1       2.732   1.294   2.200  0.00  0.00    +0.043 A 
ATOM     23  C   UNL     1       3.427   0.303   2.931  0.00  0.00    +0.041 A 
ATOM     24  C   UNL     1       3.409  -0.816   2.185  0.00  0.00    +0.195 A 
ATOM     25  O   UNL     1       2.740  -0.558   1.049  0.00  0.00    -0.469 OA
ENDBRANCH   4  21
BRANCH   1  26
ATOM     26  C   UNL     1       0.306  -0.703  -2.423  0.00  0.00    +0.297 C 
ATOM     27  O   UNL     1      -0.222  -1.044  -3.454  0.00  0.00    -0.252 OA
BRANCH  26  28
ATOM     28  O   UNL     1       0.569  -1.612  -1.471  0.00  0.00    -0.466 OA
BRANCH  28  29
ATOM     29  C   UNL     1       0.190  -2.986  -1.749  0.00  0.00    +0.228 C 
ATOM     30  C   UNL     1       0.566  -3.869  -0.557  0.00  0.00    +0.048 C 
ENDBRANCH  28  29
ENDBRANCH  26  28
ENDBRANCH   1  26
BRANCH   1  31
ATOM     31  C   UNL     1       0.861   1.448  -3.549  0.00  0.00    -0.001 C 
BRANCH  31  33
ATOM     32  C   UNL     1       2.180   1.474  -5.671  0.00  0.00    +0.004 C 
ATOM     33  C   UNL     1       1.990   0.768  -4.327  0.00  0.00    -0.004 C 
ENDBRANCH  31  33
ENDBRANCH   1  31
TORSDOF 8
