REMARK  Name = ZINC28723277
REMARK  10 active torsions:
REMARK  status: ('A' for Active; 'I' for Inactive)
REMARK    1  A    between atoms: C_1  and  C_2
REMARK    2  A    between atoms: C_4  and  C_34
REMARK    3  A    between atoms: C_6  and  N_8
REMARK    4  A    between atoms: N_10  and  C_31
REMARK    5  A    between atoms: C_13  and  C_16
REMARK    6  A    between atoms: C_16  and  C_17
REMARK    7  A    between atoms: N_19  and  C_20
REMARK    8  A    between atoms: C_22  and  N_28
REMARK    9  A    between atoms: C_25  and  O_26
REMARK   10  A    between atoms: O_26  and  C_27
REMARK                            x       y       z     vdW  Elec       q    Type
REMARK                         _______ _______ _______ _____ _____    ______ ____
ROOT
ATOM      1  N   UNL     1      -3.680  -2.119   3.304  0.00  0.00    -0.226 NA
ATOM      2  C   UNL     1      -3.111  -1.746   2.182  0.00  0.00    +0.164 C 
ATOM      3  N   UNL     1      -2.668  -2.541   1.146  0.00  0.00    -0.247 N 
ATOM      4  C   UNL     1      -2.106  -2.039   0.060  0.00  0.00    +0.235 C 
ATOM      5  O   UNL     1      -1.719  -2.742  -0.849  0.00  0.00    -0.274 OA
ATOM      6  C   UNL     1      -1.975  -0.525   0.021  0.00  0.00    +0.149 C 
ATOM      7  S   UNL     1      -2.726  -0.088   1.639  0.00  0.00    -0.077 S 
ENDROOT
BRANCH   1  13
ATOM      8  C   UNL     1      -2.644   1.934   5.848  0.00  0.00    +0.044 C 
ATOM      9  C   UNL     1      -3.577   0.807   5.489  0.00  0.00    -0.048 A 
ATOM     10  C   UNL     1      -4.819   0.720   6.091  0.00  0.00    +0.006 A 
ATOM     11  C   UNL     1      -5.683  -0.311   5.767  0.00  0.00    -0.048 A 
ATOM     12  C   UNL     1      -5.309  -1.261   4.838  0.00  0.00    +0.031 A 
ATOM     13  C   UNL     1      -4.057  -1.180   4.226  0.00  0.00    +0.067 A 
ATOM     14  C   UNL     1      -3.189  -0.140   4.563  0.00  0.00    +0.031 A 
ATOM     15  C   UNL     1      -7.034  -0.397   6.429  0.00  0.00    +0.044 C 
ENDBRANCH   1  13
BRANCH   3  16
ATOM     16  C   UNL     1      -2.827  -3.993   1.252  0.00  0.00    +0.084 C 
ATOM     17  C   UNL     1      -3.792  -4.522   2.315  0.00  0.00    +0.025 C 
ATOM     18  C   UNL     1      -2.282  -4.673   2.510  0.00  0.00    +0.025 C 
ENDBRANCH   3  16
BRANCH   6  19
ATOM     19  C   UNL     1      -0.508  -0.097  -0.043  0.00  0.00    +0.120 C 
BRANCH  19  20
ATOM     20  C   UNL     1      -0.422   1.408  -0.016  0.00  0.00    +0.219 C 
ATOM     21  O   UNL     1      -1.435   2.072   0.043  0.00  0.00    -0.275 OA
ATOM     22  N   UNL     1       0.780   2.015  -0.063  0.00  0.00    -0.282 N 
ATOM     23  H   UNL     1       1.702   1.415  -0.029  0.00  0.00    +0.155 HD
BRANCH  22  24
ATOM     24  C   UNL     1       0.857   3.411  -0.156  0.00  0.00    +0.078 A 
ATOM     25  C   UNL     1      -0.199   4.131  -0.696  0.00  0.00    +0.059 A 
ATOM     26  C   UNL     1      -0.123   5.508  -0.782  0.00  0.00    +0.128 A 
ATOM     27  C   UNL     1       1.007   6.171  -0.340  0.00  0.00    +0.036 A 
ATOM     28  C   UNL     1       2.066   5.460   0.194  0.00  0.00    +0.050 A 
ATOM     29  C   UNL     1       1.995   4.079   0.288  0.00  0.00    +0.141 A 
BRANCH  26  30
ATOM     30  N   UNL     1      -1.253   6.276  -1.353  0.00  0.00    +0.056 N 
ATOM     31  O   UNL     1      -1.186   7.489  -1.433  0.00  0.00    -0.126 OA
ATOM     32  O   UNL     1      -2.249   5.694  -1.743  0.00  0.00    -0.126 OA
ENDBRANCH  26  30
BRANCH  29  33
ATOM     33  O   UNL     1       3.035   3.378   0.814  0.00  0.00    -0.493 OA
ATOM     34  C   UNL     1       4.170   4.130   1.249  0.00  0.00    +0.277 C 
ENDBRANCH  29  33
ENDBRANCH  22  24
ENDBRANCH  19  20
ENDBRANCH   6  19
TORSDOF 7
