REMARK  Name = ZINC45540964
REMARK  7 active torsions:
REMARK  status: ('A' for Active; 'I' for Inactive)
REMARK    1  A    between atoms: C_6  and  C_7
REMARK    2  A    between atoms: C_10  and  S_13
REMARK    3  A    between atoms: S_13  and  C_14
REMARK    4  A    between atoms: C_14  and  C_15
REMARK    5  A    between atoms: C_15  and  C_17
REMARK    6  A    between atoms: C_18  and  N_29
REMARK    7  A    between atoms: N_19  and  C_26
REMARK                            x       y       z     vdW  Elec       q    Type
REMARK                         _______ _______ _______ _____ _____    ______ ____
ROOT
ATOM      1  C   UNL     1      -2.204  -6.586  -0.150  0.00  0.00    +0.182 C 
ATOM      2  O   UNL     1      -3.377  -6.894  -0.234  0.00  0.00    -0.291 OA
ENDROOT
BRANCH   1   3
ATOM      3  C   UNL     1      -1.214  -7.590  -0.095  0.00  0.00    +0.120 A 
ATOM      4  C   UNL     1      -1.563  -8.949  -0.009  0.00  0.00    +0.116 A 
ATOM      5  N   UNL     1      -0.568  -9.884   0.042  0.00  0.00    -0.278 N 
ATOM      6  C   UNL     1       0.726  -9.529   0.011  0.00  0.00    +0.331 A 
ATOM      7  O   UNL     1       1.573 -10.399   0.059  0.00  0.00    -0.246 OA
ATOM      8  N   UNL     1       1.119  -8.247  -0.070  0.00  0.00    -0.274 N 
ATOM      9  H   UNL     1       2.065  -8.037  -0.089  0.00  0.00    +0.173 HD
ATOM     10  C   UNL     1       0.214  -7.248  -0.131  0.00  0.00    +0.266 A 
ATOM     11  O   UNL     1       0.573  -6.088  -0.210  0.00  0.00    -0.267 OA
BRANCH   5  12
ATOM     12  C   UNL     1      -0.921 -11.303   0.131  0.00  0.00    +0.094 C 
ATOM     13  C   UNL     1      -0.191 -12.148   1.176  0.00  0.00    +0.027 C 
ATOM     14  C   UNL     1      -1.658 -11.770   1.388  0.00  0.00    +0.027 C 
ENDBRANCH   5  12
BRANCH   4  15
ATOM     15  N   UNL     1      -2.869  -9.327   0.023  0.00  0.00    -0.344 N 
ATOM     16  H   UNL     1      -3.569  -8.665  -0.097  0.00  0.00    +0.144 HD
ATOM     17  H   UNL     1      -3.102 -10.258   0.167  0.00  0.00    +0.144 HD
ENDBRANCH   4  15
ENDBRANCH   1   3
BRANCH   1  18
ATOM     18  C   UNL     1      -1.808  -5.133  -0.105  0.00  0.00    +0.157 C 
BRANCH  18  19
ATOM     19  S   UNL     1      -3.295  -4.097  -0.194  0.00  0.00    -0.078 S 
BRANCH  19  23
ATOM     20  C   UNL     1      -1.302  -0.770  -0.018  0.00  0.00    +0.182 A 
ATOM     21  N   UNL     1      -1.405  -2.107  -0.042  0.00  0.00    -0.201 NA
ATOM     22  H   UNL     1      -4.377  -1.260  -0.233  0.00  0.00    +0.191 HD
ATOM     23  C   UNL     1      -2.671  -2.450  -0.132  0.00  0.00    +0.185 A 
ATOM     24  N   UNL     1      -3.411  -1.320  -0.168  0.00  0.00    -0.253 N 
ATOM     25  N   UNL     1      -2.506  -0.249  -0.088  0.00  0.00    -0.152 NA
BRANCH  20  31
ATOM     26  C   UNL     1      -0.059   1.389   0.093  0.00  0.00    +0.013 A 
ATOM     27  C   UNL     1       1.122   2.097   0.182  0.00  0.00    +0.021 A 
ATOM     28  C   UNL     1       2.330   1.425   0.257  0.00  0.00    +0.041 A 
ATOM     29  C   UNL     1       2.360   0.041   0.242  0.00  0.00    +0.021 A 
ATOM     30  C   UNL     1       1.184  -0.675   0.152  0.00  0.00    +0.013 A 
ATOM     31  C   UNL     1      -0.035  -0.004   0.078  0.00  0.00    +0.021 A 
ATOM     32 CL   UNL     1       3.813   2.322   0.368  0.00  0.00    -0.084 Cl
ENDBRANCH  20  31
ENDBRANCH  19  23
ENDBRANCH  18  19
ENDBRANCH   1  18
TORSDOF 7
