REMARK  Name = ZINC28939067
REMARK  10 active torsions:
REMARK  status: ('A' for Active; 'I' for Inactive)
REMARK    1  A    between atoms: C_1  and  C_2
REMARK    2  A    between atoms: C_9  and  C_16
REMARK    3  A    between atoms: C_11  and  O_12
REMARK    4  A    between atoms: C_16  and  O_17
REMARK    5  A    between atoms: O_17  and  C_18
REMARK    6  A    between atoms: C_18  and  C_20
REMARK    7  A    between atoms: C_23  and  C_26
REMARK    8  A    between atoms: C_29  and  O_32
REMARK    9  A    between atoms: O_32  and  C_33
REMARK   10  A    between atoms: C_33  and  C_35
REMARK                            x       y       z     vdW  Elec       q    Type
REMARK                         _______ _______ _______ _____ _____    ______ ____
ROOT
ATOM      1  O   UNL     1       0.254  -8.445   0.509  0.00  0.00    -0.456 OA
ENDROOT
BRANCH   1   2
ATOM      2  C   UNL     1       1.345  -9.231   0.591  0.00  0.00    +0.339 C 
ATOM      3  O   UNL     1       2.453  -8.732   0.599  0.00  0.00    -0.245 OA
BRANCH   2   4
ATOM      4  C   UNL     1       1.195 -10.697   0.670  0.00  0.00    +0.059 A 
ATOM      5  C   UNL     1      -0.080 -11.270   0.666  0.00  0.00    +0.015 A 
ATOM      6  C   UNL     1      -0.218 -12.638   0.734  0.00  0.00    +0.009 A 
ATOM      7  C   UNL     1       0.913 -13.451   0.819  0.00  0.00    -0.018 A 
ATOM      8  C   UNL     1       2.186 -12.879   0.829  0.00  0.00    +0.009 A 
ATOM      9  C   UNL     1       2.327 -11.512   0.755  0.00  0.00    +0.015 A 
BRANCH   7  10
ATOM     10  C   UNL     1       0.762 -14.923   0.899  0.00  0.00    -0.018 A 
ATOM     11  C   UNL     1       1.891 -15.738   0.979  0.00  0.00    +0.012 A 
ATOM     12  C   UNL     1       1.747 -17.107   1.060  0.00  0.00    +0.047 A 
ATOM     13  C   UNL     1       0.480 -17.675   1.050  0.00  0.00    +0.132 A 
ATOM     14  C   UNL     1      -0.646 -16.867   0.964  0.00  0.00    +0.047 A 
ATOM     15  C   UNL     1      -0.509 -15.497   0.890  0.00  0.00    +0.012 A 
BRANCH  13  16
ATOM     16  O   UNL     1       0.341 -19.024   1.123  0.00  0.00    -0.426 OA
BRANCH  16  17
ATOM     17  C   UNL     1       0.014 -19.666  -0.011  0.00  0.00    +0.309 C 
ATOM     18  O   UNL     1      -0.232 -19.036  -1.012  0.00  0.00    -0.251 OA
ATOM     19  C   UNL     1      -0.047 -21.172  -0.034  0.00  0.00    +0.136 C 
ENDBRANCH  16  17
ENDBRANCH  13  16
ENDBRANCH   7  10
ENDBRANCH   2   4
ENDBRANCH   1   2
BRANCH   1  20
ATOM     20  C   UNL     1       0.477  -7.012   0.434  0.00  0.00    +0.269 C 
BRANCH  20  29
ATOM     21  C   UNL     1      -2.194   1.470   0.621  0.00  0.00    +0.109 C 
ATOM     22  C   UNL     1      -2.168  -0.036   0.622  0.00  0.00    +0.214 C 
ATOM     23  O   UNL     1      -3.057  -0.658   1.166  0.00  0.00    -0.276 OA
ATOM     24  N   UNL     1      -1.158  -0.693   0.019  0.00  0.00    -0.286 N 
ATOM     25  C   UNL     1      -1.083  -2.084   0.100  0.00  0.00    +0.037 A 
ATOM     26  C   UNL     1       0.163  -2.708   0.172  0.00  0.00    +0.024 A 
ATOM     27  C   UNL     1       0.251  -4.066   0.258  0.00  0.00    +0.014 A 
ATOM     28  C   UNL     1      -0.915  -4.841   0.262  0.00  0.00    +0.024 A 
ATOM     29  C   UNL     1      -0.849  -6.301   0.348  0.00  0.00    +0.007 A 
ATOM     30  C   UNL     1      -2.015  -6.997   0.348  0.00  0.00    +0.095 A 
ATOM     31  C   UNL     1      -3.243  -6.309   0.268  0.00  0.00    +0.285 A 
ATOM     32  O   UNL     1      -3.297  -4.970   0.190  0.00  0.00    -0.425 OA
ATOM     33  C   UNL     1      -2.175  -4.219   0.184  0.00  0.00    +0.141 A 
ATOM     34  C   UNL     1      -2.248  -2.837   0.104  0.00  0.00    +0.070 A 
ATOM     35  H   UNL     1      -0.392  -0.133  -0.537  0.00  0.00    +0.155 HD
BRANCH  31  36
ATOM     36  O   UNL     1      -4.282  -6.945   0.269  0.00  0.00    -0.480 OA
ATOM     37  H   UNL     1      -5.247  -6.422   0.207  0.00  0.00    +0.295 HD
ENDBRANCH  31  36
ENDBRANCH  20  29
ENDBRANCH   1  20
TORSDOF 8
