REMARK  Name = ZINC13582161
REMARK  5 active torsions:
REMARK  status: ('A' for Active; 'I' for Inactive)
REMARK    1  A    between atoms: C_4  and  S_7
REMARK    2  A    between atoms: S_7  and  C_8
REMARK    3  A    between atoms: C_13  and  N_14
REMARK    4  A    between atoms: N_14  and  S_15
REMARK    5  A    between atoms: S_15  and  C_18
REMARK                            x       y       z     vdW  Elec       q    Type
REMARK                         _______ _______ _______ _____ _____    ______ ____
ROOT
ATOM      1  S   UNL     1       6.986  -4.311   0.382  0.00  0.00    +0.092 S 
ATOM      2  O   UNL     1       6.841  -4.869   1.681  0.00  0.00    -0.148 OA
ATOM      3  O   UNL     1       6.920  -5.100  -0.797  0.00  0.00    -0.148 OA
ENDROOT
BRANCH   1   4
ATOM      4  C   UNL     1       8.546  -3.494   0.356  0.00  0.00    +0.112 A 
ATOM      5  C   UNL     1       9.189  -3.286  -0.881  0.00  0.00    +0.031 A 
ATOM      6  C   UNL     1      10.387  -2.666  -0.970  0.00  0.00    +0.027 A 
ATOM      7  C   UNL     1      11.027  -2.206   0.211  0.00  0.00    +0.055 A 
ATOM      8  N   UNL     1      12.194  -1.599   0.155  0.00  0.00    -0.276 N 
ATOM      9  C   UNL     1      12.783  -1.170   1.291  0.00  0.00    +0.304 C 
ATOM     10  O   UNL     1      13.858  -0.609   1.247  0.00  0.00    -0.265 OA
ATOM     11  C   UNL     1      12.101  -1.390   2.604  0.00  0.00    +0.304 C 
ATOM     12  O   UNL     1      12.619  -1.009   3.633  0.00  0.00    -0.265 OA
ATOM     13  N   UNL     1      10.905  -2.015   2.636  0.00  0.00    -0.276 N 
ATOM     14  C   UNL     1      10.350  -2.425   1.515  0.00  0.00    +0.057 A 
ATOM     15  C   UNL     1       9.090  -3.079   1.522  0.00  0.00    +0.054 A 
ATOM     16  H   UNL     1      10.456  -2.162   3.483  0.00  0.00    +0.155 HD
ATOM     17  H   UNL     1      12.629  -1.461  -0.700  0.00  0.00    +0.155 HD
ENDBRANCH   1   4
BRANCH   1  18
ATOM     18  N   UNL     1       5.819  -3.144   0.236  0.00  0.00    -0.097 NA
BRANCH  18  24
ATOM     19  C   UNL     1       3.483  -2.522   0.103  0.00  0.00    +0.037 A 
ATOM     20  C   UNL     1       2.144  -2.886   0.089  0.00  0.00    +0.017 A 
ATOM     21  C   UNL     1       1.789  -4.217   0.202  0.00  0.00    +0.001 A 
ATOM     22  C   UNL     1       2.764  -5.189   0.329  0.00  0.00    +0.002 A 
ATOM     23  C   UNL     1       4.101  -4.836   0.345  0.00  0.00    +0.028 A 
ATOM     24  C   UNL     1       4.467  -3.504   0.226  0.00  0.00    +0.088 A 
BRANCH  19  25
ATOM     25  S   UNL     1       3.939  -0.827  -0.042  0.00  0.00    -0.087 S 
BRANCH  25  29
ATOM     26  C   UNL     1      -0.015   1.382   0.022  0.00  0.00    +0.000 A 
ATOM     27  C   UNL     1       0.604   1.040   1.211  0.00  0.00    +0.001 A 
ATOM     28  C   UNL     1       1.809   0.367   1.195  0.00  0.00    +0.015 A 
ATOM     29  C   UNL     1       2.401   0.032  -0.017  0.00  0.00    +0.013 A 
ATOM     30  C   UNL     1       1.776   0.377  -1.210  0.00  0.00    +0.015 A 
ATOM     31  C   UNL     1       0.571   1.051  -1.187  0.00  0.00    +0.001 A 
ENDBRANCH  25  29
ENDBRANCH  19  25
ENDBRANCH  18  24
ENDBRANCH   1  18
TORSDOF 5
