REMARK  Name = ZINC61234966
REMARK  10 active torsions:
REMARK  status: ('A' for Active; 'I' for Inactive)
REMARK    1  A    between atoms: C_1  and  C_2
REMARK    2  A    between atoms: C_2  and  N_3
REMARK    3  A    between atoms: N_3  and  C_4
REMARK    4  A    between atoms: C_4  and  C_5
REMARK    5  A    between atoms: C_5  and  C_7
REMARK    6  A    between atoms: C_5  and  C_8
REMARK    7  A    between atoms: N_10  and  C_11
REMARK    8  A    between atoms: C_12  and  C_19
REMARK    9  A    between atoms: C_19  and  O_21
REMARK   10  A    between atoms: O_21  and  C_22
REMARK                            x       y       z     vdW  Elec       q    Type
REMARK                         _______ _______ _______ _____ _____    ______ ____
ROOT
ATOM      1  C   UNL     1      -3.247  -3.901   0.382  0.00  0.00    +0.218 C 
ATOM      2  O   UNL     1      -2.515  -4.328   1.250  0.00  0.00    -0.275 OA
ATOM      3  N   UNL     1      -4.044  -4.745  -0.302  0.00  0.00    -0.284 N 
ATOM      4  H   UNL     1      -4.670  -4.398  -0.957  0.00  0.00    +0.155 HD
ENDROOT
BRANCH   3   5
ATOM      5  C   UNL     1      -3.969  -6.117  -0.070  0.00  0.00    +0.062 A 
ATOM      6  C   UNL     1      -5.093  -6.816   0.396  0.00  0.00    +0.082 A 
ATOM      7  C   UNL     1      -5.005  -8.191   0.625  0.00  0.00    +0.032 A 
ATOM      8  C   UNL     1      -3.817  -8.852   0.393  0.00  0.00    +0.020 A 
ATOM      9  C   UNL     1      -2.708  -8.159  -0.066  0.00  0.00    +0.032 A 
ATOM     10  C   UNL     1      -2.782  -6.800  -0.303  0.00  0.00    +0.041 A 
ATOM     11 BR   UNL     1      -1.265  -5.868  -0.939  0.00  0.00    -0.048 Br
ATOM     12 BR   UNL     1      -3.700 -10.714   0.705  0.00  0.00    -0.050 Br
BRANCH   6  13
ATOM     13  C   UNL     1      -6.359  -6.103   0.642  0.00  0.00    +0.341 C 
ATOM     14  O   UNL     1      -6.402  -4.892   0.553  0.00  0.00    -0.245 OA
BRANCH  13  15
ATOM     15  O   UNL     1      -7.470  -6.794   0.966  0.00  0.00    -0.464 OA
ATOM     16  C   UNL     1      -8.662  -6.038   1.191  0.00  0.00    +0.280 C 
ENDBRANCH  13  15
ENDBRANCH   6  13
ENDBRANCH   3   5
BRANCH   1  17
ATOM     17  C   UNL     1      -3.264  -2.427   0.069  0.00  0.00    +0.055 C 
ATOM     18  C   UNL     1      -2.864  -2.211  -1.392  0.00  0.00    +0.015 C 
BRANCH  17  19
ATOM     19  C   UNL     1      -2.275  -1.700   0.981  0.00  0.00    -0.070 C 
BRANCH  19  20
ATOM     20  N   UNL     1      -2.379  -0.251   0.760  0.00  0.00    +0.379 N 
ATOM     21  H   UNL     1      -3.317   0.055   0.969  0.00  0.00    -0.086 HD
ATOM     22  H   UNL     1      -2.164  -0.042  -0.203  0.00  0.00    -0.086 HD
BRANCH  20  24
ATOM     23  C   UNL     1      -1.537   1.956   1.406  0.00  0.00    -0.017 C 
ATOM     24  C   UNL     1      -1.429   0.447   1.636  0.00  0.00    -0.086 C 
ENDBRANCH  20  24
ENDBRANCH  19  20
ENDBRANCH  17  19
ENDBRANCH   1  17
TORSDOF 7
