REMARK  Name = ZINC43227052
REMARK  9 active torsions:
REMARK  status: ('A' for Active; 'I' for Inactive)
REMARK    1  A    between atoms: C_1  and  C_2
REMARK    2  A    between atoms: C_2  and  C_3
REMARK    3  A    between atoms: C_2  and  C_4
REMARK    4  A    between atoms: C_14  and  C_35
REMARK    5  A    between atoms: C_18  and  C_19
REMARK    6  A    between atoms: C_18  and  C_20
REMARK    7  A    between atoms: C_20  and  N_21
REMARK    8  A    between atoms: C_22  and  C_24
REMARK    9  A    between atoms: C_27  and  C_29
REMARK                            x       y       z     vdW  Elec       q    Type
REMARK                         _______ _______ _______ _____ _____    ______ ____
ROOT
ATOM      1  C   UNL     1       0.542  -0.613   0.848  0.00  0.00    -0.045 A 
ATOM      2  C   UNL     1       1.838  -0.232   1.141  0.00  0.00    +0.004 A 
ATOM      3  C   UNL     1       2.419  -0.643   2.325  0.00  0.00    +0.005 A 
ATOM      4  C   UNL     1       1.712  -1.433   3.215  0.00  0.00    -0.038 A 
ATOM      5  C   UNL     1       0.420  -1.815   2.931  0.00  0.00    -0.043 A 
ATOM      6  C   UNL     1      -0.161  -1.398   1.737  0.00  0.00    +0.007 A 
ATOM      7  C   UNL     1      -0.419  -2.670   3.841  0.00  0.00    +0.036 C 
ATOM      8  C   UNL     1       0.241  -2.888   5.204  0.00  0.00    +0.009 C 
ATOM      9  C   UNL     1       1.729  -3.143   4.975  0.00  0.00    +0.007 C 
ATOM     10  C   UNL     1       2.389  -1.861   4.500  0.00  0.00    -0.003 C 
ATOM     11  C   UNL     1       3.881  -2.078   4.261  0.00  0.00    +0.011 C 
ATOM     12  C   UNL     1       4.532  -2.602   5.542  0.00  0.00    +0.001 C 
ATOM     13  C   UNL     1       3.917  -3.940   5.931  0.00  0.00    +0.008 C 
ATOM     14  C   UNL     1       2.404  -3.840   6.135  0.00  0.00    -0.013 C 
ATOM     15  C   UNL     1       1.868  -5.290   6.206  0.00  0.00    +0.013 C 
ATOM     16  C   UNL     1       2.211  -0.713   5.493  0.00  0.00    +0.016 C 
ENDROOT
BRANCH   1  18
ATOM     17  C   UNL     1      -0.145   1.358  -0.491  0.00  0.00    +0.012 C 
ATOM     18  C   UNL     1      -0.101  -0.171  -0.441  0.00  0.00    +0.013 C 
ATOM     19  C   UNL     1       0.714  -0.696  -1.624  0.00  0.00    +0.012 C 
ENDBRANCH   1  18
BRANCH  14  20
ATOM     20  C   UNL     1       2.098  -3.176   7.477  0.00  0.00    +0.111 C 
BRANCH  20  21
ATOM     21  N   UNL     1       2.680  -3.974   8.560  0.00  0.00    -0.310 N 
ATOM     22  C   UNL     1       2.536  -3.579   9.840  0.00  0.00    +0.263 C 
ATOM     23  O   UNL     1       1.924  -2.560  10.097  0.00  0.00    -0.269 OA
ATOM     24  H   UNL     1       3.168  -4.787   8.355  0.00  0.00    +0.149 HD
BRANCH  22  25
ATOM     25  C   UNL     1       3.120  -4.381  10.928  0.00  0.00    +0.133 A 
ATOM     26  C   UNL     1       2.994  -4.021  12.243  0.00  0.00    +0.080 A 
ATOM     27  S   UNL     1       3.823  -5.249  13.036  0.00  0.00    -0.079 S 
ATOM     28  C   UNL     1       4.293  -6.160  11.707  0.00  0.00    +0.082 A 
ATOM     29  N   UNL     1       3.801  -5.507  10.690  0.00  0.00    -0.239 NA
BRANCH  28  30
ATOM     30  C   UNL     1       5.093  -7.438  11.693  0.00  0.00    +0.041 C 
ATOM     31  C   UNL     1       4.354  -8.513  12.496  0.00  0.00    -0.009 C 
ATOM     32  C   UNL     1       5.208  -9.782  12.544  0.00  0.00    -0.082 C 
ATOM     33  N   UNL     1       6.494  -9.487  13.186  0.00  0.00    +0.379 N 
ATOM     34  C   UNL     1       7.239  -8.510  12.383  0.00  0.00    -0.082 C 
ATOM     35  C   UNL     1       6.464  -7.192  12.329  0.00  0.00    -0.009 C 
ATOM     36  H   UNL     1       6.330  -9.109  14.107  0.00  0.00    -0.086 HD
ATOM     37  H   UNL     1       7.032 -10.337  13.264  0.00  0.00    -0.086 HD
ENDBRANCH  28  30
ENDBRANCH  22  25
ENDBRANCH  20  21
ENDBRANCH  14  20
TORSDOF 5
