REMARK  Name = ZINC33693529
REMARK  7 active torsions:
REMARK  status: ('A' for Active; 'I' for Inactive)
REMARK    1  A    between atoms: C_1  and  C_2
REMARK    2  A    between atoms: C_4  and  C_34
REMARK    3  A    between atoms: C_4  and  C_35
REMARK    4  A    between atoms: C_9  and  O_12
REMARK    5  A    between atoms: O_12  and  C_13
REMARK    6  A    between atoms: C_13  and  C_14
REMARK    7  A    between atoms: C_27  and  C_30
REMARK                            x       y       z     vdW  Elec       q    Type
REMARK                         _______ _______ _______ _____ _____    ______ ____
ROOT
ATOM      1  C   UNL     1      -0.857  -0.280   7.218  0.00  0.00    +0.262 C 
ATOM      2  O   UNL     1      -1.207   0.873   7.070  0.00  0.00    -0.271 OA
ATOM      3  N   UNL     1      -0.969  -0.868   8.426  0.00  0.00    -0.235 N 
ATOM      4  C   UNL     1      -0.628  -2.216   8.520  0.00  0.00    +0.055 A 
ATOM      5  C   UNL     1      -0.679  -3.002   7.373  0.00  0.00    +0.025 A 
ATOM      6  C   UNL     1      -0.343  -4.341   7.429  0.00  0.00    +0.002 A 
ATOM      7  C   UNL     1       0.047  -4.911   8.627  0.00  0.00    +0.001 A 
ATOM      8  C   UNL     1       0.099  -4.141   9.773  0.00  0.00    +0.017 A 
ATOM      9  C   UNL     1      -0.239  -2.795   9.725  0.00  0.00    +0.035 A 
ATOM     10  S   UNL     1      -0.176  -1.831  11.197  0.00  0.00    -0.086 S 
ATOM     11  C   UNL     1      -1.126  -0.399  10.811  0.00  0.00    +0.035 A 
ATOM     12  C   UNL     1      -1.411  -0.080   9.488  0.00  0.00    +0.056 A 
ATOM     13  C   UNL     1      -2.163   1.057   9.212  0.00  0.00    +0.037 A 
ATOM     14  C   UNL     1      -2.612   1.863  10.240  0.00  0.00    +0.057 A 
ATOM     15  C   UNL     1      -2.318   1.545  11.553  0.00  0.00    +0.013 A 
ATOM     16  C   UNL     1      -1.585   0.415  11.838  0.00  0.00    +0.017 A 
ENDROOT
BRANCH  14  17
ATOM     17  C   UNL     1      -3.425   3.093   9.929  0.00  0.00    +0.417 C 
ATOM     18  F   UNL     1      -4.784   2.761   9.908  0.00  0.00    -0.166 F 
ATOM     19  F   UNL     1      -3.198   4.063  10.911  0.00  0.00    -0.166 F 
ATOM     20  F   UNL     1      -3.049   3.597   8.680  0.00  0.00    -0.166 F 
ENDBRANCH  14  17
BRANCH   1  21
ATOM     21  C   UNL     1      -0.298  -1.054   6.052  0.00  0.00    +0.325 C 
BRANCH  21  22
ATOM     22  O   UNL     1       0.332  -0.152   5.140  0.00  0.00    -0.483 OA
BRANCH  22  31
ATOM     23  C   UNL     1       3.169   1.819   1.284  0.00  0.00    +0.044 C 
ATOM     24  C   UNL     1       2.772   0.404   0.953  0.00  0.00    -0.043 C 
ATOM     25  C   UNL     1       3.038  -0.101  -0.245  0.00  0.00    +0.002 C 
ATOM     26  C   UNL     1       2.637  -1.506  -0.605  0.00  0.00    +0.045 C 
ATOM     27  N   UNL     1       2.604  -2.343   0.602  0.00  0.00    -0.335 N 
ATOM     28  C   UNL     1       2.019  -1.816   1.758  0.00  0.00    +0.035 A 
ATOM     29  C   UNL     1       2.090  -0.430   1.963  0.00  0.00    +0.002 A 
ATOM     30  C   UNL     1       1.519   0.129   3.101  0.00  0.00    +0.055 A 
ATOM     31  C   UNL     1       0.892  -0.692   4.025  0.00  0.00    +0.122 A 
ATOM     32  C   UNL     1       0.834  -2.064   3.819  0.00  0.00    +0.047 A 
ATOM     33  C   UNL     1       1.388  -2.623   2.685  0.00  0.00    +0.027 A 
ATOM     34  C   UNL     1       3.649  -2.085  -1.596  0.00  0.00    +0.036 C 
ATOM     35  C   UNL     1       1.250  -1.490  -1.249  0.00  0.00    +0.036 C 
ATOM     36  H   UNL     1       2.979  -3.238   0.597  0.00  0.00    +0.147 HD
ENDBRANCH  22  31
ENDBRANCH  21  22
ENDBRANCH   1  21
TORSDOF 4
