REMARK  Name = ZINC35458816
REMARK  13 active torsions:
REMARK  status: ('A' for Active; 'I' for Inactive)
REMARK    1  A    between atoms: C_1  and  C_2
REMARK    2  A    between atoms: C_2  and  C_41
REMARK    3  A    between atoms: C_3  and  C_4
REMARK    4  A    between atoms: C_4  and  C_5
REMARK    5  A    between atoms: C_5  and  C_6
REMARK    6  A    between atoms: C_6  and  C_40
REMARK    7  A    between atoms: C_11  and  C_38
REMARK    8  A    between atoms: C_11  and  O_39
REMARK    9  A    between atoms: N_24  and  C_27
REMARK   10  A    between atoms: C_27  and  C_29
REMARK   11  A    between atoms: C_27  and  C_34
REMARK   12  A    between atoms: C_29  and  C_30
REMARK   13  A    between atoms: C_30  and  C_31
REMARK                            x       y       z     vdW  Elec       q    Type
REMARK                         _______ _______ _______ _____ _____    ______ ____
ROOT
ATOM      1  C   UNL     1      -0.876   0.182   4.727  0.00  0.00    +0.112 C 
ATOM      2  C   UNL     1      -1.904  -0.408   5.689  0.00  0.00    +0.044 C 
ATOM      3  C   UNL     1      -3.323   0.032   5.302  0.00  0.00    +0.011 C 
ATOM      4  C   UNL     1      -4.317  -0.265   6.429  0.00  0.00    +0.038 C 
ATOM      5  C   UNL     1      -4.006   0.611   7.661  0.00  0.00    +0.100 C 
ATOM      6  C   UNL     1      -2.671   1.265   7.389  0.00  0.00    +0.213 C 
ATOM      7  C   UNL     1      -1.661   0.093   7.114  0.00  0.00    +0.076 C 
ATOM      8  C   UNL     1      -0.421   0.959   7.145  0.00  0.00    +0.043 A 
ATOM      9  C   UNL     1       0.679   0.925   6.307  0.00  0.00    +0.129 A 
ATOM     10  C   UNL     1       1.732   1.761   6.562  0.00  0.00    +0.059 A 
ATOM     11  C   UNL     1       1.602   2.700   7.601  0.00  0.00    +0.049 A 
ATOM     12  C   UNL     1       0.411   2.811   8.328  0.00  0.00    +0.024 A 
ATOM     13  C   UNL     1      -0.648   1.960   8.075  0.00  0.00    +0.133 A 
ATOM     14  O   UNL     1      -1.990   1.931   8.459  0.00  0.00    -0.485 OA
ATOM     15  C   UNL     1       0.612   3.941   9.306  0.00  0.00    +0.148 C 
ATOM     16  N   UNL     1       1.983   4.422   9.104  0.00  0.00    -0.279 N 
ATOM     17  C   UNL     1       2.553   3.701   8.124  0.00  0.00    +0.248 C 
ATOM     18  O   UNL     1       3.692   3.851   7.725  0.00  0.00    -0.270 OA
ATOM     19  O   UNL     1       0.473   0.116   5.235  0.00  0.00    -0.485 OA
ATOM     20  C   UNL     1      -5.088   1.679   7.833  0.00  0.00    +0.045 C 
ATOM     21  C   UNL     1      -1.234   1.646   4.464  0.00  0.00    +0.056 C 
ENDROOT
BRANCH   5  22
ATOM     22  O   UNL     1      -3.925  -0.202   8.834  0.00  0.00    -0.385 OA
ATOM     23  H   UNL     1      -4.738  -0.686   9.033  0.00  0.00    +0.210 HD
ENDBRANCH   5  22
BRANCH   1  24
ATOM     24  C   UNL     1      -0.943  -0.586   3.405  0.00  0.00    +0.052 C 
BRANCH  24  25
ATOM     25  C   UNL     1       0.022   0.046   2.399  0.00  0.00    +0.031 C 
BRANCH  25  28
ATOM     26  C   UNL     1      -0.504   1.419  -0.007  0.00  0.00    +0.038 C 
ATOM     27  C   UNL     1      -0.344  -0.079  -0.011  0.00  0.00    -0.080 C 
ATOM     28  C   UNL     1      -0.043  -0.709   1.097  0.00  0.00    -0.028 C 
ATOM     29  C   UNL     1      -0.531  -0.853  -1.291  0.00  0.00    +0.038 C 
ENDBRANCH  25  28
ENDBRANCH  24  25
ENDBRANCH   1  24
BRANCH  16  30
ATOM     30  C   UNL     1       2.624   5.510   9.846  0.00  0.00    +0.190 C 
BRANCH  30  31
ATOM     31  C   UNL     1       3.031   6.601   8.889  0.00  0.00    +0.376 C 
ATOM     32  O   UNL     1       3.063   7.760   9.263  0.00  0.00    -0.244 OA
ATOM     33  O   UNL     1       3.328   6.323   7.739  0.00  0.00    -0.244 OA
ENDBRANCH  30  31
BRANCH  30  34
ATOM     34  C   UNL     1       3.863   4.975  10.566  0.00  0.00    +0.045 C 
BRANCH  34  35
ATOM     35  C   UNL     1       3.437   3.958  11.627  0.00  0.00    +0.127 C 
BRANCH  35  36
ATOM     36  C   UNL     1       4.658   3.431  12.336  0.00  0.00    +0.356 C 
ATOM     37  O   UNL     1       5.766   3.832  12.023  0.00  0.00    -0.246 OA
ATOM     38  O   UNL     1       4.537   2.603  13.223  0.00  0.00    -0.246 OA
ENDBRANCH  35  36
ENDBRANCH  34  35
ENDBRANCH  30  34
ENDBRANCH  16  30
TORSDOF 9
