REMARK  Name = ZINC20600750
REMARK  8 active torsions:
REMARK  status: ('A' for Active; 'I' for Inactive)
REMARK    1  A    between atoms: C_1  and  N_2
REMARK    2  A    between atoms: C_6  and  S_7
REMARK    3  A    between atoms: S_7  and  C_8
REMARK    4  A    between atoms: C_8  and  C_9
REMARK    5  A    between atoms: C_9  and  N_10
REMARK    6  A    between atoms: C_11  and  C_13
REMARK    7  A    between atoms: C_13  and  C_14
REMARK    8  A    between atoms: N_21  and  C_22
REMARK                            x       y       z     vdW  Elec       q    Type
REMARK                         _______ _______ _______ _____ _____    ______ ____
ROOT
ATOM      1  C   UNL     1      -2.374   1.004   1.271  0.00  0.00    +0.028 C 
ATOM      2  C   UNL     1      -3.526   1.365   2.166  0.00  0.00    +0.200 C 
ATOM      3  O   UNL     1      -4.465   0.602   2.240  0.00  0.00    -0.278 OA
ATOM      4  N   UNL     1      -3.558   2.493   2.883  0.00  0.00    -0.318 N 
ATOM      5  C   UNL     1      -2.465   3.460   2.892  0.00  0.00    +0.085 C 
ATOM      6  C   UNL     1      -1.556   3.236   1.682  0.00  0.00    -0.058 C 
ATOM      7  N   UNL     1      -1.196   1.810   1.620  0.00  0.00    +0.391 N 
ATOM      8  H   UNL     1      -4.461   2.678   3.485  0.00  0.00    +0.149 HD
ATOM      9  H   UNL     1      -0.840   1.494   2.612  0.00  0.00    -0.080 HD
ENDROOT
BRANCH   7  10
ATOM     10  C   UNL     1      -0.102   1.584   0.665  0.00  0.00    -0.059 C 
ATOM     11  C   UNL     1      -0.370   2.320  -0.666  0.00  0.00    +0.020 C 
ATOM     12  C   UNL     1       0.296   3.671  -0.512  0.00  0.00    -0.046 A 
ATOM     13  C   UNL     1       0.126   4.842  -1.232  0.00  0.00    +0.004 A 
ATOM     14  C   UNL     1       0.854   5.969  -0.907  0.00  0.00    +0.000 A 
ATOM     15  C   UNL     1       1.757   5.929   0.140  0.00  0.00    +0.000 A 
ATOM     16  C   UNL     1       1.928   4.762   0.858  0.00  0.00    +0.004 A 
ATOM     17  C   UNL     1       1.198   3.631   0.534  0.00  0.00    -0.046 A 
ATOM     18  C   UNL     1       1.201   2.250   1.155  0.00  0.00    +0.020 C 
ENDBRANCH   7  10
BRANCH   1  19
ATOM     19  C   UNL     1      -2.043  -0.480   1.443  0.00  0.00    +0.089 C 
BRANCH  19  21
ATOM     20  N   UNL     1      -1.351  -1.993   3.274  0.00  0.00    -0.315 N 
ATOM     21  C   UNL     1      -1.591  -0.733   2.858  0.00  0.00    +0.212 C 
ATOM     22  O   UNL     1      -1.443   0.196   3.623  0.00  0.00    -0.276 OA
ATOM     23  H   UNL     1      -1.486  -2.836   2.580  0.00  0.00    +0.149 HD
BRANCH  20  24
ATOM     24  C   UNL     1      -0.912  -2.239   4.649  0.00  0.00    +0.115 C 
BRANCH  24  25
ATOM     25  C   UNL     1      -0.713  -3.741   4.860  0.00  0.00    +0.096 C 
BRANCH  25  26
ATOM     26  S   UNL     1      -0.170  -4.045   6.560  0.00  0.00    -0.086 S 
BRANCH  26  32
ATOM     27  C   UNL     1       0.742  -6.137   8.906  0.00  0.00    +0.151 C 
ATOM     28  N   UNL     1       0.369  -6.588   7.563  0.00  0.00    -0.329 N 
ATOM     29  C   UNL     1       0.345  -7.889   7.113  0.00  0.00    +0.107 A 
ATOM     30  C   UNL     1      -0.047  -7.853   5.829  0.00  0.00    +0.131 A 
ATOM     31  N   UNL     1      -0.266  -6.571   5.489  0.00  0.00    -0.230 NA
ATOM     32  C   UNL     1      -0.022  -5.801   6.524  0.00  0.00    +0.169 A 
ENDBRANCH  26  32
ENDBRANCH  25  26
ENDBRANCH  24  25
ENDBRANCH  20  24
ENDBRANCH  19  21
ENDBRANCH   1  19
TORSDOF 7
