REMARK  Name = ZINC39280180
REMARK  4 active torsions:
REMARK  status: ('A' for Active; 'I' for Inactive)
REMARK    1  A    between atoms: C_4  and  N_7
REMARK    2  A    between atoms: C_17  and  C_25
REMARK    3  A    between atoms: C_19  and  C_23
REMARK    4  A    between atoms: C_20  and  N_22
REMARK                            x       y       z     vdW  Elec       q    Type
REMARK                         _______ _______ _______ _____ _____    ______ ____
ROOT
ATOM      1  N   UNL     1       3.600  -0.631  -0.036  0.00  0.00    -0.226 NA
ATOM      2  C   UNL     1       3.792  -1.658   0.761  0.00  0.00    +0.157 C 
ATOM      3  N   UNL     1       2.893  -2.215   1.683  0.00  0.00    -0.304 N 
ATOM      4  C   UNL     1       3.096  -3.626   1.844  0.00  0.00    +0.181 C 
ATOM      5  C   UNL     1       4.606  -3.890   2.132  0.00  0.00    +0.158 C 
ATOM      6  S   UNL     1       5.260  -2.677   0.918  0.00  0.00    -0.076 S 
ATOM      7  C   UNL     1       4.836  -5.318   1.725  0.00  0.00    +0.133 C 
ATOM      8  C   UNL     1       3.876  -6.202   2.079  0.00  0.00    +0.066 C 
ATOM      9  C   UNL     1       4.003  -7.654   1.710  0.00  0.00    +0.103 C 
ATOM     10  C   UNL     1       5.044  -7.831   0.640  0.00  0.00    +0.098 C 
ATOM     11  C   UNL     1       5.941  -6.851   0.371  0.00  0.00    +0.198 C 
ATOM     12  O   UNL     1       5.929  -5.689   1.050  0.00  0.00    -0.444 OA
ATOM     13  C   UNL     1       2.705  -5.745   2.840  0.00  0.00    +0.246 C 
ATOM     14  O   UNL     1       2.114  -6.506   3.584  0.00  0.00    -0.270 OA
ATOM     15  N   UNL     1       2.300  -4.462   2.691  0.00  0.00    -0.292 N 
ATOM     16  H   UNL     1       1.513  -4.129   3.151  0.00  0.00    +0.151 HD
ATOM     17  H   UNL     1       2.215  -1.707   2.155  0.00  0.00    +0.150 HD
ENDROOT
BRANCH   9  18
ATOM     18  C   UNL     1       4.405  -8.445   2.929  0.00  0.00    -0.034 A 
ATOM     19  C   UNL     1       5.589  -8.154   3.581  0.00  0.00    +0.005 A 
ATOM     20  C   UNL     1       5.958  -8.878   4.699  0.00  0.00    +0.015 A 
ATOM     21  C   UNL     1       5.143  -9.894   5.165  0.00  0.00    +0.018 A 
ATOM     22  C   UNL     1       3.959 -10.185   4.511  0.00  0.00    +0.015 A 
ATOM     23  C   UNL     1       3.588  -9.456   3.397  0.00  0.00    +0.005 A 
ATOM     24 BR   UNL     1       5.648 -10.886   6.693  0.00  0.00    -0.050 Br
ENDBRANCH   9  18
BRANCH   1  28
ATOM     25  C   UNL     1      -0.017   1.379   0.010  0.00  0.00    +0.000 A 
ATOM     26  C   UNL     1       1.168   2.094   0.002  0.00  0.00    +0.002 A 
ATOM     27  C   UNL     1       2.377   1.430  -0.013  0.00  0.00    +0.028 A 
ATOM     28  C   UNL     1       2.404   0.034  -0.021  0.00  0.00    +0.066 A 
ATOM     29  C   UNL     1       1.204  -0.681  -0.013  0.00  0.00    +0.028 A 
ATOM     30  C   UNL     1       0.002  -0.004   0.002  0.00  0.00    +0.002 A 
ENDBRANCH   1  28
BRANCH  11  31
ATOM     31  N   UNL     1       6.880  -7.048  -0.611  0.00  0.00    -0.328 N 
ATOM     32  H   UNL     1       6.896  -7.883  -1.105  0.00  0.00    +0.145 HD
ATOM     33  H   UNL     1       7.526  -6.353  -0.811  0.00  0.00    +0.145 HD
ENDBRANCH  11  31
BRANCH  10  34
ATOM     34  C   UNL     1       5.088  -9.053  -0.106  0.00  0.00    +0.101 C 
ATOM     35  N   UNL     1       5.124 -10.022  -0.698  0.00  0.00    -0.191 NA
ENDBRANCH  10  34
TORSDOF 4
