REMARK  Name = ZINC35992861
REMARK  9 active torsions:
REMARK  status: ('A' for Active; 'I' for Inactive)
REMARK    1  A    between atoms: C_1  and  C_2
REMARK    2  A    between atoms: C_2  and  O_3
REMARK    3  A    between atoms: O_3  and  C_4
REMARK    4  A    between atoms: C_4  and  C_6
REMARK    5  A    between atoms: C_7  and  C_21
REMARK    6  A    between atoms: N_8  and  C_20
REMARK    7  A    between atoms: C_12  and  C_14
REMARK    8  A    between atoms: C_21  and  N_22
REMARK    9  A    between atoms: C_29  and  C_31
REMARK                            x       y       z     vdW  Elec       q    Type
REMARK                         _______ _______ _______ _____ _____    ______ ____
ROOT
ATOM      1  C   UNL     1      -0.170  -2.590  -4.272  0.00  0.00    +0.076 C 
ATOM      2  C   UNL     1       0.508  -3.588  -3.666  0.00  0.00    +0.010 C 
ATOM      3  N   UNL     1       1.862  -3.702  -3.800  0.00  0.00    -0.264 N 
ATOM      4  C   UNL     1       2.611  -2.859  -4.521  0.00  0.00    +0.307 C 
ATOM      5  O   UNL     1       3.811  -3.042  -4.580  0.00  0.00    -0.252 OA
ATOM      6  N   UNL     1       2.078  -1.813  -5.184  0.00  0.00    -0.288 N 
ATOM      7  C   UNL     1       0.622  -1.605  -5.109  0.00  0.00    +0.143 C 
ATOM      8  C   UNL     1       2.534  -4.810  -3.115  0.00  0.00    +0.139 C 
ATOM      9  H   UNL     1       2.639  -1.214  -5.700  0.00  0.00    +0.151 HD
ENDROOT
BRANCH   7  10
ATOM     10  C   UNL     1       0.070  -1.638  -6.511  0.00  0.00    -0.023 A 
ATOM     11  C   UNL     1       0.438  -2.653  -7.375  0.00  0.00    +0.006 A 
ATOM     12  C   UNL     1      -0.067  -2.683  -8.661  0.00  0.00    +0.000 A 
ATOM     13  C   UNL     1      -0.941  -1.699  -9.083  0.00  0.00    +0.000 A 
ATOM     14  C   UNL     1      -1.310  -0.685  -8.219  0.00  0.00    +0.000 A 
ATOM     15  C   UNL     1      -0.808  -0.657  -6.932  0.00  0.00    +0.006 A 
ENDBRANCH   7  10
BRANCH   1  16
ATOM     16  C   UNL     1      -1.573  -2.470  -4.136  0.00  0.00    +0.339 C 
ATOM     17  O   UNL     1      -2.206  -3.345  -3.575  0.00  0.00    -0.245 OA
BRANCH  16  18
ATOM     18  O   UNL     1      -2.209  -1.387  -4.627  0.00  0.00    -0.462 OA
BRANCH  18  20
ATOM     19  C   UNL     1      -4.167  -0.040  -5.070  0.00  0.00    +0.048 C 
ATOM     20  C   UNL     1      -3.627  -1.332  -4.454  0.00  0.00    +0.229 C 
ENDBRANCH  18  20
ENDBRANCH  16  18
ENDBRANCH   1  16
BRANCH   2  21
ATOM     21  C   UNL     1      -0.242  -4.592  -2.829  0.00  0.00    -0.026 C 
BRANCH  21  22
ATOM     22  N   UNL     1      -0.834  -5.613  -3.703  0.00  0.00    +0.384 N 
ATOM     23  C   UNL     1      -1.768  -6.411  -2.912  0.00  0.00    -0.077 C 
ATOM     24  C   UNL     1      -2.869  -6.929  -3.812  0.00  0.00    +0.000 C 
ATOM     25  C   UNL     1      -2.495  -8.333  -4.322  0.00  0.00    +0.106 C 
ATOM     26  N   UNL     1      -1.058  -8.414  -4.652  0.00  0.00    -0.299 N 
ATOM     27  C   UNL     1      -0.359  -7.346  -5.337  0.00  0.00    +0.089 C 
ATOM     28  C   UNL     1       0.213  -6.346  -4.306  0.00  0.00    -0.059 C 
ATOM     29  C   UNL     1      -0.372  -9.520  -4.303  0.00  0.00    +0.249 C 
ATOM     30  O   UNL     1       0.831  -9.567  -4.471  0.00  0.00    -0.270 OA
ATOM     31  H   UNL     1      -1.355  -5.146  -4.430  0.00  0.00    -0.081 HD
BRANCH  29  32
ATOM     32  C   UNL     1      -1.081 -10.674  -3.715  0.00  0.00    +0.072 A 
ATOM     33  C   UNL     1      -2.219 -11.191  -4.340  0.00  0.00    +0.016 A 
ATOM     34  C   UNL     1      -2.877 -12.268  -3.786  0.00  0.00    +0.001 A 
ATOM     35  C   UNL     1      -2.413 -12.841  -2.614  0.00  0.00    +0.003 A 
ATOM     36  C   UNL     1      -1.288 -12.337  -1.988  0.00  0.00    +0.039 A 
ATOM     37  C   UNL     1      -0.614 -11.259  -2.534  0.00  0.00    +0.135 A 
ATOM     38  F   UNL     1       0.488 -10.770  -1.925  0.00  0.00    -0.205 F 
ENDBRANCH  29  32
ENDBRANCH  21  22
ENDBRANCH   2  21
TORSDOF 7
