REMARK  Name = ZINC37264026
REMARK  14 active torsions:
REMARK  status: ('A' for Active; 'I' for Inactive)
REMARK    1  A    between atoms: C_1  and  C_2
REMARK    2  A    between atoms: C_7  and  N_8
REMARK    3  A    between atoms: C_11  and  C_13
REMARK    4  A    between atoms: C_13  and  C_14
REMARK    5  A    between atoms: C_13  and  C_15
REMARK    6  A    between atoms: C_13  and  C_16
REMARK    7  A    between atoms: C_17  and  C_33
REMARK    8  A    between atoms: N_23  and  C_24
REMARK    9  A    between atoms: C_24  and  C_25
REMARK   10  A    between atoms: N_27  and  C_28
REMARK   11  A    between atoms: C_28  and  C_29
REMARK   12  A    between atoms: C_29  and  N_30
REMARK   13  A    between atoms: N_30  and  C_31
REMARK   14  A    between atoms: N_30  and  C_32
REMARK                            x       y       z     vdW  Elec       q    Type
REMARK                         _______ _______ _______ _____ _____    ______ ____
ROOT
ATOM      1  N   UNL     1      -2.235   0.066   4.942  0.00  0.00    -0.217 N 
ATOM      2  C   UNL     1      -2.481   0.495   6.203  0.00  0.00    +0.136 A 
ATOM      3  C   UNL     1      -1.730   1.599   6.425  0.00  0.00    +0.034 A 
ATOM      4  C   UNL     1      -0.995   1.857   5.268  0.00  0.00    +0.075 A 
ATOM      5  N   UNL     1      -1.290   0.938   4.380  0.00  0.00    -0.169 NA
ATOM      6  C   UNL     1      -1.720   2.388   7.709  0.00  0.00    +0.112 C 
ATOM      7  S   UNL     1      -0.815   1.429   8.976  0.00  0.00    -0.138 S 
ATOM      8  C   UNL     1      -1.409  -0.267   8.659  0.00  0.00    +0.166 C 
ATOM      9  C   UNL     1      -2.883  -0.271   8.392  0.00  0.00    +0.231 C 
ATOM     10  O   UNL     1      -3.661  -0.462   9.303  0.00  0.00    -0.274 OA
ATOM     11  N   UNL     1      -3.345  -0.067   7.154  0.00  0.00    -0.246 N 
ENDROOT
BRANCH   1  18
ATOM     12  C   UNL     1      -0.616  -2.238   4.530  0.00  0.00    +0.046 C 
ATOM     13  C   UNL     1      -2.058  -2.191   4.096  0.00  0.00    -0.025 A 
ATOM     14  C   UNL     1      -2.632  -3.288   3.484  0.00  0.00    +0.005 A 
ATOM     15  C   UNL     1      -3.955  -3.246   3.085  0.00  0.00    +0.000 A 
ATOM     16  C   UNL     1      -4.708  -2.105   3.298  0.00  0.00    +0.002 A 
ATOM     17  C   UNL     1      -4.140  -1.005   3.909  0.00  0.00    +0.028 A 
ATOM     18  C   UNL     1      -2.813  -1.047   4.316  0.00  0.00    +0.070 A 
ENDBRANCH   1  18
BRANCH   6  19
ATOM     19  C   UNL     1      -1.034   3.711   7.484  0.00  0.00    -0.023 A 
ATOM     20  C   UNL     1       0.343   3.807   7.552  0.00  0.00    +0.012 A 
ATOM     21  C   UNL     1       0.929   5.012   7.345  0.00  0.00    +0.045 A 
ATOM     22  S   UNL     1      -0.483   6.062   7.043  0.00  0.00    -0.105 S 
ATOM     23  C   UNL     1      -1.758   4.823   7.207  0.00  0.00    +0.050 A 
ENDBRANCH   6  19
BRANCH   4  24
ATOM     24  C   UNL     1      -0.024   2.994   5.074  0.00  0.00    +0.007 C 
ATOM     25  C   UNL     1       1.256   2.712   5.865  0.00  0.00    +0.017 C 
ATOM     26  C   UNL     1       0.315   3.127   3.588  0.00  0.00    +0.017 C 
ATOM     27  C   UNL     1      -0.655   4.295   5.573  0.00  0.00    +0.017 C 
ENDBRANCH   4  24
BRANCH  11  28
ATOM     28  C   UNL     1      -4.721  -0.422   6.800  0.00  0.00    +0.210 C 
BRANCH  28  29
ATOM     29  C   UNL     1      -4.815  -1.910   6.579  0.00  0.00    +0.231 C 
ATOM     30  O   UNL     1      -3.845  -2.613   6.766  0.00  0.00    -0.274 OA
ATOM     31  N   UNL     1      -5.978  -2.459   6.173  0.00  0.00    -0.316 N 
ATOM     32  H   UNL     1      -6.728  -1.889   5.941  0.00  0.00    +0.149 HD
BRANCH  31  33
ATOM     33  C   UNL     1      -6.107  -3.915   6.083  0.00  0.00    +0.085 C 
BRANCH  33  34
ATOM     34  C   UNL     1      -7.470  -4.269   5.484  0.00  0.00    -0.061 C 
BRANCH  34  35
ATOM     35  N   UNL     1      -7.600  -5.730   5.393  0.00  0.00    +0.377 N 
ATOM     36  C   UNL     1      -8.952  -6.073   4.931  0.00  0.00    -0.097 C 
ATOM     37  C   UNL     1      -6.610  -6.252   4.442  0.00  0.00    -0.097 C 
ATOM     38  H   UNL     1      -7.442  -6.139   6.302  0.00  0.00    -0.083 HD
ENDBRANCH  34  35
ENDBRANCH  33  34
ENDBRANCH  31  33
ENDBRANCH  28  29
ENDBRANCH  11  28
TORSDOF 8
