REMARK  Name = ZINC12496891
REMARK  9 active torsions:
REMARK  status: ('A' for Active; 'I' for Inactive)
REMARK    1  A    between atoms: C_1  and  O_2
REMARK    2  A    between atoms: O_2  and  C_3
REMARK    3  A    between atoms: C_3  and  C_5
REMARK    4  A    between atoms: C_5  and  C_31
REMARK    5  A    between atoms: C_10  and  C_12
REMARK    6  A    between atoms: N_21  and  C_24
REMARK    7  A    between atoms: C_31  and  C_32
REMARK    8  A    between atoms: C_32  and  S_33
REMARK    9  A    between atoms: S_33  and  C_34
REMARK                            x       y       z     vdW  Elec       q    Type
REMARK                         _______ _______ _______ _____ _____    ______ ____
ROOT
ATOM      1  C   UNL     1       2.311   7.063  -0.083  0.00  0.00    +0.044 C 
ATOM      2  C   UNL     1       1.866   5.666  -0.319  0.00  0.00    +0.086 C 
ATOM      3  C   UNL     1       0.493   5.648   0.465  0.00  0.00    +0.077 C 
ATOM      4  C   UNL     1      -0.104   6.899  -0.135  0.00  0.00    -0.024 C 
ATOM      5  C   UNL     1       0.110   4.253   0.155  0.00  0.00    +0.229 C 
ATOM      6  O   UNL     1      -1.005   3.825  -0.053  0.00  0.00    -0.275 OA
ATOM      7  N   UNL     1       1.285   3.547   0.152  0.00  0.00    -0.210 N 
ATOM      8  C   UNL     1       2.388   4.362   0.087  0.00  0.00    +0.229 C 
ATOM      9  O   UNL     1       3.541   4.063   0.313  0.00  0.00    -0.275 OA
ATOM     10  N   UNL     1       1.045   7.852  -0.074  0.00  0.00    +0.395 N 
ATOM     11  H   UNL     1       1.020   8.478  -0.888  0.00  0.00    -0.083 HD
ATOM     12  H   UNL     1       0.989   8.408   0.787  0.00  0.00    -0.083 HD
ENDROOT
BRANCH   4  13
ATOM     13  C   UNL     1      -1.266   7.386   0.690  0.00  0.00    -0.025 A 
ATOM     14  C   UNL     1      -1.057   8.300   1.706  0.00  0.00    +0.005 A 
ATOM     15  C   UNL     1      -2.124   8.752   2.460  0.00  0.00    +0.000 A 
ATOM     16  C   UNL     1      -3.400   8.283   2.206  0.00  0.00    +0.003 A 
ATOM     17  C   UNL     1      -3.610   7.365   1.195  0.00  0.00    +0.038 A 
ATOM     18  C   UNL     1      -2.543   6.915   0.435  0.00  0.00    +0.125 A 
ATOM     19  F   UNL     1      -2.747   6.018  -0.554  0.00  0.00    -0.205 F 
ENDBRANCH   4  13
BRANCH   7  20
ATOM     20  C   UNL     1       1.353   2.148   0.214  0.00  0.00    +0.044 A 
ATOM     21  C   UNL     1       0.187   1.398   0.283  0.00  0.00    +0.027 A 
ATOM     22  C   UNL     1       0.255   0.020   0.344  0.00  0.00    +0.040 A 
ATOM     23  C   UNL     1       1.486  -0.614   0.337  0.00  0.00    +0.124 A 
ATOM     24  C   UNL     1       2.651   0.132   0.267  0.00  0.00    +0.040 A 
ATOM     25  C   UNL     1       2.586   1.511   0.206  0.00  0.00    +0.027 A 
ATOM     26  F   UNL     1       1.552  -1.962   0.397  0.00  0.00    -0.205 F 
ENDBRANCH   7  20
BRANCH   1  27
ATOM     27  C   UNL     1       3.215   7.522  -1.198  0.00  0.00    +0.297 C 
ATOM     28  O   UNL     1       3.884   6.718  -1.802  0.00  0.00    -0.252 OA
BRANCH  27  30
ATOM     29  C   UNL     1       4.170   9.193  -2.603  0.00  0.00    +0.280 C 
ATOM     30  O   UNL     1       3.277   8.824  -1.519  0.00  0.00    -0.469 OA
ENDBRANCH  27  30
ENDBRANCH   1  27
BRANCH   1  31
ATOM     31  C   UNL     1       3.026   7.178   1.265  0.00  0.00    +0.010 C 
BRANCH  31  32
ATOM     32  C   UNL     1       3.289   8.653   1.578  0.00  0.00    +0.068 C 
BRANCH  32  33
ATOM     33  S   UNL     1       4.136   8.789   3.176  0.00  0.00    -0.164 S 
ATOM     34  C   UNL     1       4.371  10.575   3.397  0.00  0.00    +0.084 C 
ENDBRANCH  32  33
ENDBRANCH  31  32
ENDBRANCH   1  31
TORSDOF 7
