REMARK  Name = ZINC05705903
REMARK  4 active torsions:
REMARK  status: ('A' for Active; 'I' for Inactive)
REMARK    1  A    between atoms: C_1  and  C_2
REMARK    2  A    between atoms: C_2  and  C_27
REMARK    3  A    between atoms: C_6  and  C_17
REMARK    4  A    between atoms: C_13  and  O_15
REMARK                            x       y       z     vdW  Elec       q    Type
REMARK                         _______ _______ _______ _____ _____    ______ ____
ROOT
ATOM      1  C   UNL     1      -2.164  -3.329   2.720  0.00  0.00    +0.031 C 
ATOM      2  C   UNL     1      -2.551  -2.422   1.534  0.00  0.00    +0.033 C 
ATOM      3  C   UNL     1      -1.526  -1.302   1.436  0.00  0.00    +0.056 C 
ATOM      4  C   UNL     1      -1.282  -0.809   0.018  0.00  0.00    +0.070 C 
ATOM      5  C   UNL     1      -2.422   0.089  -0.464  0.00  0.00    +0.080 C 
ATOM      6  C   UNL     1      -2.388   1.400   0.331  0.00  0.00    +0.206 C 
ATOM      7  O   UNL     1      -1.175   2.086   0.019  0.00  0.00    -0.484 OA
ATOM      8  C   UNL     1      -0.017   1.379   0.010  0.00  0.00    +0.130 A 
ATOM      9  C   UNL     1       0.002  -0.004   0.002  0.00  0.00    +0.019 A 
ATOM     10  C   UNL     1       1.208  -0.684  -0.018  0.00  0.00    +0.033 A 
ATOM     11  C   UNL     1       2.400   0.013  -0.028  0.00  0.00    +0.083 A 
ATOM     12  C   UNL     1       2.390   1.401  -0.017  0.00  0.00    +0.139 A 
ATOM     13  C   UNL     1       1.184   2.082   0.002  0.00  0.00    +0.092 A 
ATOM     14 CL   UNL     1       3.909  -0.845  -0.054  0.00  0.00    -0.080 Cl
ATOM     15  N   UNL     1      -1.128  -1.934  -0.905  0.00  0.00    -0.290 N 
ATOM     16  C   UNL     1      -1.836  -3.059  -0.736  0.00  0.00    +0.301 C 
ATOM     17  O   UNL     1      -1.793  -3.914  -1.598  0.00  0.00    -0.253 OA
ATOM     18  N   UNL     1      -2.610  -3.250   0.337  0.00  0.00    -0.294 N 
ATOM     19  C   UNL     1      -3.941  -1.843   1.829  0.00  0.00    +0.031 C 
ATOM     20  H   UNL     1      -0.509  -1.863  -1.647  0.00  0.00    +0.151 HD
ATOM     21  H   UNL     1      -3.252  -3.988   0.313  0.00  0.00    +0.151 HD
ENDROOT
BRANCH   6  22
ATOM     22  C   UNL     1      -3.565   2.256  -0.060  0.00  0.00    -0.007 A 
ATOM     23  C   UNL     1      -3.519   3.006  -1.220  0.00  0.00    +0.007 A 
ATOM     24  C   UNL     1      -4.600   3.788  -1.581  0.00  0.00    +0.000 A 
ATOM     25  C   UNL     1      -5.723   3.828  -0.776  0.00  0.00    +0.000 A 
ATOM     26  C   UNL     1      -5.767   3.083   0.388  0.00  0.00    +0.000 A 
ATOM     27  C   UNL     1      -4.688   2.297   0.746  0.00  0.00    +0.007 A 
ENDBRANCH   6  22
BRANCH  12  28
ATOM     28  O   UNL     1       3.561   2.091  -0.025  0.00  0.00    -0.505 OA
ATOM     29  H   UNL     1       3.890   2.298  -0.910  0.00  0.00    +0.292 HD
ENDBRANCH  12  28
TORSDOF 2
