REMARK  Name = ZINC58880743
REMARK  4 active torsions:
REMARK  status: ('A' for Active; 'I' for Inactive)
REMARK    1  A    between atoms: C_5  and  N_6
REMARK    2  A    between atoms: N_6  and  S_7
REMARK    3  A    between atoms: S_7  and  C_10
REMARK    4  A    between atoms: C_12  and  C_15
REMARK                            x       y       z     vdW  Elec       q    Type
REMARK                         _______ _______ _______ _____ _____    ______ ____
ROOT
ATOM      1  S   UNL     1      -0.914  -2.482  -0.002  0.00  0.00    +0.099 S 
ATOM      2  O   UNL     1      -0.331  -2.813  -1.255  0.00  0.00    -0.148 OA
ATOM      3  O   UNL     1      -0.306  -2.827   1.235  0.00  0.00    -0.148 OA
ENDROOT
BRANCH   1   4
ATOM      4  C   UNL     1      -2.523  -3.200   0.010  0.00  0.00    +0.148 A 
ATOM      5  C   UNL     1      -3.295  -3.541  -1.040  0.00  0.00    +0.051 A 
ATOM      6  C   UNL     1      -4.579  -4.116  -0.714  0.00  0.00    +0.072 A 
ATOM      7  C   UNL     1      -4.876  -4.255   0.626  0.00  0.00    +0.062 A 
ATOM      8  S   UNL     1      -3.518  -3.659   1.412  0.00  0.00    -0.076 S 
BRANCH   6   9
ATOM      9  C   UNL     1      -5.523  -4.532  -1.758  0.00  0.00    +0.387 C 
ATOM     10  O   UNL     1      -5.229  -4.395  -2.938  0.00  0.00    -0.241 OA
ATOM     11  O   UNL     1      -6.603  -5.017  -1.448  0.00  0.00    -0.241 OA
ENDBRANCH   6   9
ENDBRANCH   1   4
BRANCH   1  12
ATOM     12  N   UNL     1      -1.111  -0.838   0.009  0.00  0.00    -0.074 NA
BRANCH  12  17
ATOM     13  C   UNL     1      -0.017   1.409   0.010  0.00  0.00    +0.091 A 
ATOM     14  C   UNL     1       1.255   1.844   0.000  0.00  0.00    +0.232 A 
ATOM     15  O   UNL     1       2.064   0.773  -0.013  0.00  0.00    -0.361 OA
ATOM     16  N   UNL     1       1.253  -0.389  -0.012  0.00  0.00    -0.060 NA
ATOM     17  C   UNL     1       0.002  -0.004   0.002  0.00  0.00    +0.204 A 
ENDBRANCH  12  17
ENDBRANCH   1  12
TORSDOF 4
