REMARK  Name = ZINC09399705
REMARK  10 active torsions:
REMARK  status: ('A' for Active; 'I' for Inactive)
REMARK    1  A    between atoms: C_1  and  C_2
REMARK    2  A    between atoms: N_5  and  S_11
REMARK    3  A    between atoms: C_7  and  C_10
REMARK    4  A    between atoms: S_11  and  C_14
REMARK    5  A    between atoms: C_17  and  C_20
REMARK    6  A    between atoms: C_20  and  N_22
REMARK    7  A    between atoms: N_24  and  C_34
REMARK    8  A    between atoms: C_28  and  S_32
REMARK    9  A    between atoms: S_32  and  C_33
REMARK   10  A    between atoms: C_34  and  C_35
REMARK                            x       y       z     vdW  Elec       q    Type
REMARK                         _______ _______ _______ _____ _____    ______ ____
ROOT
ATOM      1  C   UNL     1       0.790  -3.178   1.531  0.00  0.00    +0.106 A 
ATOM      2  C   UNL     1      -0.095  -3.857   0.713  0.00  0.00    +0.029 A 
ATOM      3  C   UNL     1       0.245  -5.091   0.197  0.00  0.00    +0.015 A 
ATOM      4  C   UNL     1       1.480  -5.658   0.511  0.00  0.00    +0.039 A 
ATOM      5  C   UNL     1       2.366  -4.972   1.340  0.00  0.00    +0.015 A 
ATOM      6  C   UNL     1       2.017  -3.736   1.846  0.00  0.00    +0.029 A 
ENDROOT
BRANCH   1   7
ATOM      7  S   UNL     1       0.352  -1.600   2.181  0.00  0.00    +0.061 S 
ATOM      8  O   UNL     1       1.121  -1.419   3.361  0.00  0.00    -0.153 OA
ATOM      9  O   UNL     1      -1.068  -1.542   2.180  0.00  0.00    -0.153 OA
BRANCH   7  13
ATOM     10  C   UNL     1      -0.733   2.023   1.270  0.00  0.00    +0.039 C 
ATOM     11  C   UNL     1      -0.019   1.529   0.010  0.00  0.00    +0.131 C 
ATOM     12  C   UNL     1       0.002  -0.004   0.002  0.00  0.00    +0.140 C 
ATOM     13  N   UNL     1       0.873  -0.462   1.096  0.00  0.00    -0.172 NA
ATOM     14  C   UNL     1       2.220   0.121   1.199  0.00  0.00    +0.140 C 
ATOM     15  C   UNL     1       2.091   1.647   1.149  0.00  0.00    +0.131 C 
ATOM     16  O   UNL     1       1.325   2.018   0.000  0.00  0.00    -0.371 OA
ATOM     17  C   UNL     1       3.483   2.275   1.060  0.00  0.00    +0.039 C 
ENDBRANCH   7  13
ENDBRANCH   1   7
BRANCH   4  18
ATOM     18  C   UNL     1       1.849  -6.985  -0.036  0.00  0.00    +0.269 C 
ATOM     19  O   UNL     1       2.929  -7.478   0.239  0.00  0.00    -0.268 OA
BRANCH  18  20
ATOM     20  N   UNL     1       0.998  -7.641  -0.831  0.00  0.00    -0.152 NA
ATOM     21  C   UNL     1       1.329  -8.831  -1.321  0.00  0.00    +0.167 A 
ATOM     22  N   UNL     1       0.599  -9.641  -2.133  0.00  0.00    -0.317 N 
ATOM     23  C   UNL     1       1.116 -10.856  -2.548  0.00  0.00    +0.058 A 
ATOM     24  C   UNL     1       0.520 -11.816  -3.381  0.00  0.00    +0.028 A 
ATOM     25  C   UNL     1       1.175 -12.982  -3.693  0.00  0.00    +0.017 A 
ATOM     26  C   UNL     1       2.447 -13.249  -3.195  0.00  0.00    +0.009 A 
ATOM     27  C   UNL     1       3.059 -12.313  -2.368  0.00  0.00    +0.032 A 
ATOM     28  C   UNL     1       2.398 -11.148  -2.059  0.00  0.00    +0.040 A 
ATOM     29  S   UNL     1       2.793  -9.726  -1.073  0.00  0.00    -0.052 S 
BRANCH  26  30
ATOM     30  S   UNL     1       3.272 -14.750  -3.607  0.00  0.00    -0.129 S 
ATOM     31  C   UNL     1       2.096 -15.616  -4.684  0.00  0.00    +0.090 C 
ENDBRANCH  26  30
BRANCH  22  32
ATOM     32  C   UNL     1      -0.736  -9.226  -2.572  0.00  0.00    +0.151 C 
BRANCH  32  33
ATOM     33  C   UNL     1      -1.362  -8.350  -1.518  0.00  0.00    -0.013 C 
ATOM     34  C   UNL     1      -1.800  -7.156  -1.833  0.00  0.00    +0.005 C 
ENDBRANCH  32  33
ENDBRANCH  22  32
ENDBRANCH  18  20
ENDBRANCH   4  18
TORSDOF 7
