REMARK  Name = ZINC55170747
REMARK  5 active torsions:
REMARK  status: ('A' for Active; 'I' for Inactive)
REMARK    1  A    between atoms: C_1  and  C_2
REMARK    2  A    between atoms: C_3  and  C_8
REMARK    3  A    between atoms: N_10  and  C_11
REMARK    4  A    between atoms: C_16  and  C_21
REMARK    5  A    between atoms: C_18  and  C_20
REMARK                            x       y       z     vdW  Elec       q    Type
REMARK                         _______ _______ _______ _____ _____    ______ ____
ROOT
ATOM      1  C   UNL     1      -0.008  -0.258  -2.565  0.00  0.00    +0.253 C 
ATOM      2  O   UNL     1      -0.027   0.937  -2.802  0.00  0.00    -0.270 OA
ATOM      3  N   UNL     1      -0.001  -1.145  -3.580  0.00  0.00    -0.308 N 
ATOM      4  H   UNL     1       0.014  -2.097  -3.391  0.00  0.00    +0.149 HD
ENDROOT
BRANCH   1   7
ATOM      5  C   UNL     1      -0.018   1.503   0.010  0.00  0.00    +0.067 C 
ATOM      6  C   UNL     1       0.002  -0.004   0.002  0.00  0.00    +0.060 A 
ATOM      7  C   UNL     1       0.006  -0.729  -1.181  0.00  0.00    +0.098 A 
ATOM      8  S   UNL     1       0.033  -2.397  -0.545  0.00  0.00    -0.048 S 
ATOM      9  C   UNL     1       0.036  -2.022   1.096  0.00  0.00    +0.156 A 
ATOM     10  N   UNL     1       0.022  -0.700   1.111  0.00  0.00    -0.230 NA
ATOM     11  N   UNL     1       0.053  -2.886   2.169  0.00  0.00    -0.337 N 
ATOM     12  H   UNL     1       0.066  -3.845   2.019  0.00  0.00    +0.144 HD
ATOM     13  H   UNL     1       0.053  -2.537   3.074  0.00  0.00    +0.144 HD
ENDBRANCH   1   7
BRANCH   3  14
ATOM     14  C   UNL     1      -0.015  -0.673  -4.966  0.00  0.00    +0.076 C 
ATOM     15  C   UNL     1      -1.459  -0.410  -5.401  0.00  0.00    +0.022 C 
ATOM     16  C   UNL     1      -1.474   0.083  -6.849  0.00  0.00    +0.002 C 
ATOM     17  C   UNL     1      -0.853  -0.981  -7.757  0.00  0.00    +0.003 C 
ATOM     18  C   UNL     1       0.590  -1.244  -7.322  0.00  0.00    -0.009 C 
ATOM     19  C   UNL     1       0.605  -1.737  -5.874  0.00  0.00    +0.009 C 
ATOM     20  C   UNL     1      -0.203  -3.032  -5.768  0.00  0.00    +0.009 C 
ATOM     21  C   UNL     1       1.210  -2.308  -8.230  0.00  0.00    +0.008 C 
ENDBRANCH   3  14
TORSDOF 2
