REMARK  Name = ZINC13498673
REMARK  13 active torsions:
REMARK  status: ('A' for Active; 'I' for Inactive)
REMARK    1  A    between atoms: C_1  and  C_2
REMARK    2  A    between atoms: C_2  and  C_3
REMARK    3  A    between atoms: C_2  and  C_4
REMARK    4  A    between atoms: C_4  and  C_6
REMARK    5  A    between atoms: C_4  and  N_17
REMARK    6  A    between atoms: N_10  and  C_11
REMARK    7  A    between atoms: C_11  and  C_12
REMARK    8  A    between atoms: N_17  and  C_18
REMARK    9  A    between atoms: N_17  and  C_25
REMARK   10  A    between atoms: C_18  and  C_19
REMARK   11  A    between atoms: C_25  and  C_26
REMARK   12  A    between atoms: C_30  and  O_38
REMARK   13  A    between atoms: O_38  and  C_39
REMARK                            x       y       z     vdW  Elec       q    Type
REMARK                         _______ _______ _______ _____ _____    ______ ____
ROOT
ATOM      1  N   UNL     1      -2.398   0.519   1.415  0.00  0.00    -0.284 NA
ENDROOT
BRANCH   1   2
ATOM      2  C   UNL     1      -1.857   0.137   0.103  0.00  0.00    +0.130 C 
BRANCH   2   3
ATOM      3  C   UNL     1      -2.419  -1.200  -0.302  0.00  0.00    +0.169 A 
ATOM      4  N   UNL     1      -3.687  -1.525  -0.381  0.00  0.00    -0.112 NA
ATOM      5  N   UNL     1      -3.760  -2.754  -0.762  0.00  0.00    -0.023 NA
ATOM      6  N   UNL     1      -2.572  -3.221  -0.928  0.00  0.00    -0.043 NA
ATOM      7  N   UNL     1      -1.718  -2.292  -0.659  0.00  0.00    -0.220 N 
BRANCH   7   8
ATOM      8  C   UNL     1      -0.259  -2.406  -0.727  0.00  0.00    +0.221 C 
BRANCH   8   9
ATOM      9  C   UNL     1       0.253  -3.064   0.528  0.00  0.00    +0.126 A 
ATOM     10  C   UNL     1       0.526  -4.373   0.675  0.00  0.00    +0.046 A 
ATOM     11  C   UNL     1       0.977  -4.551   2.002  0.00  0.00    +0.041 A 
ATOM     12  C   UNL     1       0.953  -3.340   2.588  0.00  0.00    +0.195 A 
ATOM     13  O   UNL     1       0.519  -2.442   1.688  0.00  0.00    -0.466 OA
ENDBRANCH   8   9
ENDBRANCH   7   8
ENDBRANCH   2   3
BRANCH   2  15
ATOM     14  C   UNL     1      -3.767   1.367  -0.937  0.00  0.00    +0.009 C 
ATOM     15  C   UNL     1      -2.247   1.191  -0.935  0.00  0.00    +0.008 C 
ATOM     16  C   UNL     1      -1.579   2.522  -0.587  0.00  0.00    +0.009 C 
ENDBRANCH   2  15
ENDBRANCH   1   2
BRANCH   1  17
ATOM     17  C   UNL     1      -3.759  -0.004   1.595  0.00  0.00    +0.120 C 
BRANCH  17  18
ATOM     18  C   UNL     1      -4.432   0.729   2.726  0.00  0.00    -0.033 A 
ATOM     19  C   UNL     1      -4.279   0.284   4.026  0.00  0.00    +0.005 A 
ATOM     20  C   UNL     1      -4.897   0.956   5.064  0.00  0.00    +0.000 A 
ATOM     21  C   UNL     1      -5.668   2.074   4.802  0.00  0.00    +0.000 A 
ATOM     22  C   UNL     1      -5.820   2.519   3.503  0.00  0.00    +0.000 A 
ATOM     23  C   UNL     1      -5.199   1.850   2.465  0.00  0.00    +0.005 A 
ENDBRANCH  17  18
ENDBRANCH   1  17
BRANCH   1  24
ATOM     24  C   UNL     1      -1.514   0.071   2.499  0.00  0.00    +0.126 C 
BRANCH  24  25
ATOM     25  C   UNL     1      -0.404   1.073   2.689  0.00  0.00    +0.031 A 
ATOM     26  C   UNL     1      -0.536   2.060   3.610  0.00  0.00    +0.020 A 
ATOM     27  C   UNL     1       0.560   3.018   3.771  0.00  0.00    +0.002 A 
ATOM     28  C   UNL     1       0.480   4.056   4.705  0.00  0.00    +0.055 A 
ATOM     29  C   UNL     1       1.531   4.941   4.830  0.00  0.00    +0.121 A 
ATOM     30  C   UNL     1       2.666   4.804   4.033  0.00  0.00    +0.047 A 
ATOM     31  C   UNL     1       2.756   3.786   3.110  0.00  0.00    +0.030 A 
ATOM     32  C   UNL     1       1.708   2.883   2.967  0.00  0.00    +0.049 A 
ATOM     33  N   UNL     1       1.779   1.856   2.048  0.00  0.00    -0.322 N 
ATOM     34  H   UNL     1       2.571   1.763   1.495  0.00  0.00    +0.169 HD
ATOM     35  C   UNL     1       0.770   0.978   1.913  0.00  0.00    +0.254 A 
ATOM     36  O   UNL     1       0.870   0.080   1.094  0.00  0.00    -0.268 OA
BRANCH  29  37
ATOM     37  O   UNL     1       1.460   5.953   5.736  0.00  0.00    -0.495 OA
ATOM     38  C   UNL     1       2.582   6.834   5.816  0.00  0.00    +0.277 C 
ENDBRANCH  29  37
ENDBRANCH  24  25
ENDBRANCH   1  24
TORSDOF 10
