REMARK  Name = ZINC57608777
REMARK  10 active torsions:
REMARK  status: ('A' for Active; 'I' for Inactive)
REMARK    1  A    between atoms: C_1  and  C_2
REMARK    2  A    between atoms: C_6  and  C_15
REMARK    3  A    between atoms: C_13  and  C_14
REMARK    4  A    between atoms: C_15  and  C_17
REMARK    5  A    between atoms: C_15  and  N_27
REMARK    6  A    between atoms: N_21  and  C_22
REMARK    7  A    between atoms: N_27  and  C_28
REMARK    8  A    between atoms: N_27  and  C_34
REMARK    9  A    between atoms: C_28  and  C_29
REMARK   10  A    between atoms: C_34  and  C_35
REMARK                            x       y       z     vdW  Elec       q    Type
REMARK                         _______ _______ _______ _____ _____    ______ ____
ROOT
ATOM      1  C   UNL     1      -0.060  -5.384  -3.500  0.00  0.00    +0.163 C 
ENDROOT
BRANCH   1   7
ATOM      2  C   UNL     1      -0.837   0.073   1.524  0.00  0.00    +0.044 C 
ATOM      3  C   UNL     1      -0.610  -1.378   1.183  0.00  0.00    -0.047 A 
ATOM      4  C   UNL     1      -0.574  -1.768  -0.125  0.00  0.00    +0.013 A 
ATOM      5  C   UNL     1      -0.363  -3.114  -0.442  0.00  0.00    -0.001 A 
ATOM      6  C   UNL     1      -0.319  -3.567  -1.833  0.00  0.00    +0.021 A 
ATOM      7  C   UNL     1      -0.111  -4.885  -2.079  0.00  0.00    +0.042 A 
ATOM      8  C   UNL     1       0.058  -5.790  -1.009  0.00  0.00    +0.254 A 
ATOM      9  O   UNL     1       0.244  -6.969  -1.252  0.00  0.00    -0.268 OA
ATOM     10  N   UNL     1       0.020  -5.383   0.272  0.00  0.00    -0.322 N 
ATOM     11  H   UNL     1       0.140  -6.031   0.983  0.00  0.00    +0.169 HD
ATOM     12  C   UNL     1      -0.189  -4.057   0.589  0.00  0.00    +0.049 A 
ATOM     13  C   UNL     1      -0.229  -3.636   1.914  0.00  0.00    +0.030 A 
ATOM     14  C   UNL     1      -0.432  -2.304   2.202  0.00  0.00    -0.046 A 
ATOM     15  C   UNL     1      -0.469  -1.849   3.638  0.00  0.00    +0.044 C 
ENDBRANCH   1   7
BRANCH   1  16
ATOM     16  C   UNL     1      -1.220  -6.315  -3.747  0.00  0.00    +0.173 A 
ATOM     17  N   UNL     1      -1.339  -7.547  -3.316  0.00  0.00    -0.111 NA
ATOM     18  N   UNL     1      -2.467  -8.007  -3.735  0.00  0.00    -0.023 NA
ATOM     19  N   UNL     1      -3.071  -7.100  -4.421  0.00  0.00    -0.044 NA
ATOM     20  N   UNL     1      -2.336  -6.040  -4.446  0.00  0.00    -0.224 N 
BRANCH  20  21
ATOM     21  C   UNL     1      -2.655  -4.776  -5.115  0.00  0.00    +0.111 C 
ATOM     22  C   UNL     1      -3.992  -4.220  -4.583  0.00  0.00    +0.027 C 
ATOM     23  C   UNL     1      -4.666  -3.594  -5.830  0.00  0.00    +0.002 C 
ATOM     24  C   UNL     1      -4.292  -4.590  -6.956  0.00  0.00    +0.002 C 
ATOM     25  C   UNL     1      -2.846  -5.011  -6.623  0.00  0.00    +0.027 C 
ENDBRANCH  20  21
ENDBRANCH   1  16
BRANCH   1  26
ATOM     26  N   UNL     1       1.201  -6.104  -3.721  0.00  0.00    -0.279 NA
BRANCH  26  27
ATOM     27  C   UNL     1       1.286  -6.606  -5.099  0.00  0.00    +0.159 C 
BRANCH  27  28
ATOM     28  C   UNL     1       2.479  -7.517  -5.229  0.00  0.00    +0.119 A 
ATOM     29  C   UNL     1       2.480  -8.847  -5.029  0.00  0.00    +0.046 A 
ATOM     30  C   UNL     1       3.801  -9.295  -5.258  0.00  0.00    +0.041 A 
ATOM     31  C   UNL     1       4.529  -8.212  -5.584  0.00  0.00    +0.195 A 
ATOM     32  O   UNL     1       3.722  -7.138  -5.571  0.00  0.00    -0.467 OA
ENDBRANCH  27  28
ENDBRANCH  26  27
BRANCH  26  33
ATOM     33  C   UNL     1       2.355  -5.254  -3.399  0.00  0.00    +0.117 C 
BRANCH  33  34
ATOM     34  C   UNL     1       2.434  -4.099  -4.400  0.00  0.00    +0.132 C 
ATOM     35  C   UNL     1       3.717  -3.277  -4.152  0.00  0.00    +0.035 C 
ATOM     36  C   UNL     1       3.224  -1.822  -4.375  0.00  0.00    +0.031 C 
ATOM     37  C   UNL     1       1.774  -1.916  -3.836  0.00  0.00    +0.160 C 
ATOM     38  O   UNL     1       1.315  -3.224  -4.220  0.00  0.00    -0.375 OA
ENDBRANCH  33  34
ENDBRANCH  26  33
ENDBRANCH   1  26
TORSDOF 8
