REMARK  Name = ZINC64352858
REMARK  12 active torsions:
REMARK  status: ('A' for Active; 'I' for Inactive)
REMARK    1  A    between atoms: C_1  and  N_2
REMARK    2  A    between atoms: C_6  and  C_7
REMARK    3  A    between atoms: C_7  and  C_9
REMARK    4  A    between atoms: C_7  and  N_17
REMARK    5  A    between atoms: C_12  and  O_15
REMARK    6  A    between atoms: O_15  and  C_16
REMARK    7  A    between atoms: C_18  and  C_20
REMARK    8  A    between atoms: C_20  and  C_21
REMARK    9  A    between atoms: C_21  and  C_22
REMARK   10  A    between atoms: C_30  and  C_32
REMARK   11  A    between atoms: C_35  and  O_38
REMARK   12  A    between atoms: O_38  and  C_39
REMARK                            x       y       z     vdW  Elec       q    Type
REMARK                         _______ _______ _______ _____ _____    ______ ____
ROOT
ATOM      1  C   UNL     1       3.338  -1.524   4.052  0.00  0.00    +0.100 C 
ENDROOT
BRANCH   1   3
ATOM      2  N   UNL     1       1.024  -1.123   3.273  0.00  0.00    -0.302 N 
ATOM      3  C   UNL     1       2.315  -0.733   3.278  0.00  0.00    +0.214 C 
ATOM      4  O   UNL     1       2.652   0.254   2.660  0.00  0.00    -0.276 OA
ATOM      5  H   UNL     1       0.754  -1.913   3.768  0.00  0.00    +0.150 HD
BRANCH   2   6
ATOM      6  C   UNL     1       0.030  -0.354   2.521  0.00  0.00    +0.169 C 
BRANCH   6  12
ATOM      7  C   UNL     1      -0.018   1.461   0.010  0.00  0.00    +0.150 C 
ATOM      8  N   UNL     1       0.002  -0.004   0.002  0.00  0.00    -0.336 N 
ATOM      9  C   UNL     1       0.009  -0.810  -1.104  0.00  0.00    +0.106 A 
ATOM     10  C   UNL     1       0.029  -2.081  -0.660  0.00  0.00    +0.130 A 
ATOM     11  N   UNL     1       0.034  -2.052   0.681  0.00  0.00    -0.238 NA
ATOM     12  C   UNL     1       0.023  -0.811   1.085  0.00  0.00    +0.134 A 
ENDBRANCH   6  12
BRANCH   6  13
ATOM     13  C   UNL     1      -1.334  -0.572   3.123  0.00  0.00    -0.020 A 
ATOM     14  C   UNL     1      -1.700  -1.829   3.566  0.00  0.00    +0.009 A 
ATOM     15  C   UNL     1      -2.950  -2.032   4.118  0.00  0.00    +0.046 A 
ATOM     16  C   UNL     1      -3.838  -0.971   4.229  0.00  0.00    +0.120 A 
ATOM     17  C   UNL     1      -3.468   0.290   3.784  0.00  0.00    +0.046 A 
ATOM     18  C   UNL     1      -2.215   0.488   3.237  0.00  0.00    +0.009 A 
BRANCH  16  19
ATOM     19  O   UNL     1      -5.069  -1.168   4.772  0.00  0.00    -0.495 OA
ATOM     20  C   UNL     1      -5.931  -0.031   4.854  0.00  0.00    +0.277 C 
ENDBRANCH  16  19
ENDBRANCH   6  13
ENDBRANCH   2   6
ENDBRANCH   1   3
BRANCH   1  21
ATOM     21  C   UNL     1       4.713  -0.873   3.893  0.00  0.00    +0.043 C 
BRANCH  21  22
ATOM     22  C   UNL     1       5.736  -1.664   4.667  0.00  0.00    -0.034 C 
ATOM     23  C   UNL     1       5.518  -2.783   5.395  0.00  0.00    -0.000 A 
ATOM     24  C   UNL     1       4.309  -3.567   5.675  0.00  0.00    +0.010 A 
ATOM     25  C   UNL     1       4.407  -4.665   6.459  0.00  0.00    +0.001 A 
ATOM     26  C   UNL     1       5.630  -5.071   7.010  0.00  0.00    +0.002 A 
ATOM     27  C   UNL     1       6.783  -4.402   6.798  0.00  0.00    +0.026 A 
ATOM     28  C   UNL     1       6.797  -3.233   5.988  0.00  0.00    +0.043 A 
ATOM     29  N   UNL     1       7.769  -2.424   5.640  0.00  0.00    -0.374 N 
ATOM     30  C   UNL     1       7.215  -1.371   4.781  0.00  0.00    +0.137 C 
ATOM     31  H   UNL     1       8.698  -2.509   5.903  0.00  0.00    +0.161 HD
BRANCH  30  32
ATOM     32  C   UNL     1       7.430  -0.021   5.414  0.00  0.00    -0.021 A 
ATOM     33  C   UNL     1       7.346   0.119   6.787  0.00  0.00    +0.009 A 
ATOM     34  C   UNL     1       7.542   1.355   7.370  0.00  0.00    +0.046 A 
ATOM     35  C   UNL     1       7.825   2.458   6.577  0.00  0.00    +0.120 A 
ATOM     36  C   UNL     1       7.910   2.315   5.200  0.00  0.00    +0.046 A 
ATOM     37  C   UNL     1       7.718   1.075   4.622  0.00  0.00    +0.009 A 
BRANCH  35  38
ATOM     38  O   UNL     1       8.018   3.676   7.148  0.00  0.00    -0.495 OA
ATOM     39  C   UNL     1       8.305   4.766   6.270  0.00  0.00    +0.277 C 
ENDBRANCH  35  38
ENDBRANCH  30  32
ENDBRANCH  21  22
ENDBRANCH   1  21
TORSDOF 9
