REMARK  Name = ZINC28055974
REMARK  4 active torsions:
REMARK  status: ('A' for Active; 'I' for Inactive)
REMARK    1  A    between atoms: C_1  and  O_2
REMARK    2  A    between atoms: O_2  and  C_3
REMARK    3  A    between atoms: C_6  and  C_9
REMARK    4  A    between atoms: C_20  and  C_22
REMARK                            x       y       z     vdW  Elec       q    Type
REMARK                         _______ _______ _______ _____ _____    ______ ____
ROOT
ATOM      1  C   UNL     1       2.296   1.419  -0.002  0.00  0.00    +0.174 C 
ATOM      2  C   UNL     1       2.328  -0.062   0.284  0.00  0.00    +0.025 C 
ATOM      3  C   UNL     1       1.226  -0.816   0.269  0.00  0.00    +0.050 C 
ATOM      4  C   UNL     1       1.362  -2.269   0.529  0.00  0.00    +0.038 A 
ATOM      5  C   UNL     1       0.264  -3.053   0.859  0.00  0.00    +0.013 A 
ATOM      6  C   UNL     1       0.437  -4.404   1.092  0.00  0.00    +0.001 A 
ATOM      7  C   UNL     1       1.695  -4.973   1.001  0.00  0.00    +0.004 A 
ATOM      8  C   UNL     1       2.794  -4.199   0.673  0.00  0.00    +0.046 A 
ATOM      9  C   UNL     1       2.635  -2.846   0.437  0.00  0.00    +0.131 A 
ATOM     10  O   UNL     1       3.688  -2.053   0.114  0.00  0.00    -0.479 OA
ATOM     11  C   UNL     1       3.659  -0.709   0.593  0.00  0.00    +0.234 C 
ATOM     12  N   UNL     1      -0.042  -0.282   0.009  0.00  0.00    -0.282 N 
ATOM     13  C   UNL     1      -0.167   1.097   0.032  0.00  0.00    +0.240 A 
ATOM     14  N   UNL     1       0.924   1.907   0.033  0.00  0.00    -0.201 N 
ATOM     15  N   UNL     1       0.422   3.207   0.072  0.00  0.00    -0.042 NA
ATOM     16  N   UNL     1      -0.867   3.104   0.082  0.00  0.00    -0.021 NA
ATOM     17  N   UNL     1      -1.219   1.864   0.060  0.00  0.00    -0.092 NA
ATOM     18  H   UNL     1      -0.888  -0.952  -0.203  0.00  0.00    +0.155 HD
ENDROOT
BRANCH  11  19
ATOM     19  C   UNL     1       3.877  -0.708   2.084  0.00  0.00    -0.002 A 
ATOM     20  C   UNL     1       4.748   0.202   2.655  0.00  0.00    +0.010 A 
ATOM     21  C   UNL     1       4.945   0.208   4.022  0.00  0.00    +0.040 A 
ATOM     22  C   UNL     1       4.278  -0.705   4.821  0.00  0.00    +0.137 A 
ATOM     23  C   UNL     1       3.410  -1.621   4.249  0.00  0.00    +0.053 A 
ATOM     24  C   UNL     1       3.211  -1.621   2.880  0.00  0.00    +0.025 A 
ATOM     25 BR   UNL     1       2.498  -2.869   5.338  0.00  0.00    -0.047 Br
ATOM     26  F   UNL     1       4.474  -0.705   6.158  0.00  0.00    -0.204 F 
ENDBRANCH  11  19
BRANCH   1  30
ATOM     27  C   UNL     1       3.951   2.150  -3.874  0.00  0.00    +0.120 A 
ATOM     28  C   UNL     1       4.531   2.722  -2.751  0.00  0.00    +0.046 A 
ATOM     29  C   UNL     1       3.994   2.484  -1.500  0.00  0.00    +0.009 A 
ATOM     30  C   UNL     1       2.879   1.677  -1.367  0.00  0.00    -0.018 A 
ATOM     31  C   UNL     1       2.303   1.101  -2.485  0.00  0.00    +0.009 A 
ATOM     32  C   UNL     1       2.833   1.340  -3.738  0.00  0.00    +0.046 A 
BRANCH  27  34
ATOM     33  C   UNL     1       3.828   1.761  -6.216  0.00  0.00    +0.277 C 
ATOM     34  O   UNL     1       4.477   2.383  -5.105  0.00  0.00    -0.495 OA
ENDBRANCH  27  34
ENDBRANCH   1  30
TORSDOF 3
