REMARK  Name = ZINC09127139
REMARK  10 active torsions:
REMARK  status: ('A' for Active; 'I' for Inactive)
REMARK    1  A    between atoms: C_4  and  N_22
REMARK    2  A    between atoms: C_5  and  C_7
REMARK    3  A    between atoms: C_7  and  O_9
REMARK    4  A    between atoms: O_9  and  C_10
REMARK    5  A    between atoms: C_10  and  C_11
REMARK    6  A    between atoms: N_13  and  C_14
REMARK    7  A    between atoms: C_15  and  C_19
REMARK    8  A    between atoms: N_22  and  C_23
REMARK    9  A    between atoms: C_24  and  C_25
REMARK   10  A    between atoms: C_25  and  C_27
REMARK                            x       y       z     vdW  Elec       q    Type
REMARK                         _______ _______ _______ _____ _____    ______ ____
ROOT
ATOM      1  C   UNL     1      -3.649   3.175   0.266  0.00  0.00    +0.341 C 
ATOM      2  O   UNL     1      -2.618   3.811   0.173  0.00  0.00    -0.245 OA
ENDROOT
BRANCH   1   7
ATOM      3  C   UNL     1      -4.785  -0.392   0.009  0.00  0.00    +0.001 A 
ATOM      4  C   UNL     1      -3.574  -1.058  -0.091  0.00  0.00    +0.002 A 
ATOM      5  C   UNL     1      -2.386  -0.355  -0.078  0.00  0.00    +0.024 A 
ATOM      6  C   UNL     1      -2.398   1.029   0.034  0.00  0.00    +0.045 A 
ATOM      7  C   UNL     1      -3.622   1.707   0.140  0.00  0.00    +0.080 A 
ATOM      8  C   UNL     1      -4.816   0.981   0.121  0.00  0.00    +0.017 A 
BRANCH   6   9
ATOM      9  N   UNL     1      -1.202   1.740   0.047  0.00  0.00    -0.320 N 
ATOM     10  H   UNL     1      -1.214   2.709   0.039  0.00  0.00    +0.152 HD
BRANCH   9  11
ATOM     11  C   UNL     1      -0.012   1.072   0.072  0.00  0.00    +0.076 C 
ATOM     12  C   UNL     1       1.153   1.764   0.079  0.00  0.00    +0.070 C 
BRANCH  12  13
ATOM     13  C   UNL     1       2.376   1.078   0.098  0.00  0.00    +0.260 C 
ATOM     14  O   UNL     1       2.391  -0.137   0.109  0.00  0.00    -0.283 OA
BRANCH  13  15
ATOM     15  C   UNL     1       3.672   1.848   0.106  0.00  0.00    +0.455 C 
ATOM     16  F   UNL     1       4.746   0.952   0.126  0.00  0.00    -0.163 F 
ATOM     17  F   UNL     1       3.748   2.643  -1.042  0.00  0.00    -0.163 F 
ATOM     18  F   UNL     1       3.723   2.663   1.242  0.00  0.00    -0.163 F 
ENDBRANCH  13  15
ENDBRANCH  12  13
ENDBRANCH   9  11
ENDBRANCH   6   9
ENDBRANCH   1   7
BRANCH   1  19
ATOM     19  O   UNL     1      -4.816   3.812   0.483  0.00  0.00    -0.452 OA
BRANCH  19  20
ATOM     20  C   UNL     1      -4.767   5.258   0.596  0.00  0.00    +0.328 C 
BRANCH  20  21
ATOM     21  C   UNL     1      -6.157   5.791   0.835  0.00  0.00    +0.255 C 
ATOM     22  O   UNL     1      -7.096   5.027   0.904  0.00  0.00    -0.272 OA
ATOM     23  N   UNL     1      -6.356   7.117   0.973  0.00  0.00    -0.277 N 
ATOM     24  H   UNL     1      -5.604   7.728   0.918  0.00  0.00    +0.155 HD
BRANCH  23  25
ATOM     25  C   UNL     1      -7.634   7.607   1.194  0.00  0.00    +0.084 A 
ATOM     26  C   UNL     1      -8.035   8.927   1.365  0.00  0.00    +0.065 A 
ATOM     27  C   UNL     1      -9.444   9.155   1.577  0.00  0.00    +0.022 A 
ATOM     28  C   UNL     1     -10.245   8.074   1.600  0.00  0.00    +0.048 A 
ATOM     29  S   UNL     1      -9.116   6.723   1.329  0.00  0.00    -0.081 S 
BRANCH  26  30
ATOM     30  C   UNL     1      -7.074  10.034   1.329  0.00  0.00    +0.244 C 
ATOM     31  O   UNL     1      -5.892   9.807   1.145  0.00  0.00    -0.270 OA
ATOM     32  N   UNL     1      -7.499  11.301   1.500  0.00  0.00    -0.325 N 
ATOM     33  H   UNL     1      -8.441  11.481   1.646  0.00  0.00    +0.145 HD
ATOM     34  H   UNL     1      -6.863  12.033   1.476  0.00  0.00    +0.145 HD
ENDBRANCH  26  30
ENDBRANCH  23  25
ENDBRANCH  20  21
ENDBRANCH  19  20
ENDBRANCH   1  19
TORSDOF 10
