REMARK  Name = ZINC39550942
REMARK  13 active torsions:
REMARK  status: ('A' for Active; 'I' for Inactive)
REMARK    1  A    between atoms: C_1  and  C_2
REMARK    2  A    between atoms: C_5  and  C_37
REMARK    3  A    between atoms: C_6  and  C_8
REMARK    4  A    between atoms: C_8  and  O_9
REMARK    5  A    between atoms: O_9  and  C_10
REMARK    6  A    between atoms: C_13  and  C_17
REMARK    7  A    between atoms: C_14  and  O_16
REMARK    8  A    between atoms: C_18  and  C_27
REMARK    9  A    between atoms: C_19  and  C_23
REMARK   10  A    between atoms: C_30  and  O_35
REMARK   11  A    between atoms: C_31  and  O_33
REMARK   12  A    between atoms: O_33  and  C_34
REMARK   13  A    between atoms: O_35  and  C_36
REMARK                            x       y       z     vdW  Elec       q    Type
REMARK                         _______ _______ _______ _____ _____    ______ ____
ROOT
ATOM      1  C   UNL     1       0.118  -4.085   8.759  0.00  0.00    +0.102 C 
ATOM      2  C   UNL     1       0.976  -5.059   9.189  0.00  0.00    +0.022 C 
ATOM      3  C   UNL     1       0.540  -5.311  10.622  0.00  0.00    +0.264 C 
ATOM      4  N   UNL     1      -0.581  -4.373  10.801  0.00  0.00    -0.170 NA
ATOM      5  N   UNL     1      -0.737  -3.748   9.751  0.00  0.00    -0.153 NA
ENDROOT
BRANCH   1   9
ATOM      6  C   UNL     1       0.146  -2.353   4.874  0.00  0.00    +0.124 A 
ATOM      7  C   UNL     1       0.013  -3.728   5.021  0.00  0.00    +0.046 A 
ATOM      8  C   UNL     1       0.003  -4.292   6.279  0.00  0.00    +0.017 A 
ATOM      9  C   UNL     1       0.129  -3.482   7.408  0.00  0.00    +0.044 A 
ATOM     10  C   UNL     1       0.264  -2.097   7.257  0.00  0.00    +0.130 A 
ATOM     11  C   UNL     1       0.277  -1.540   5.990  0.00  0.00    +0.091 A 
BRANCH  10  12
ATOM     12  O   UNL     1       0.386  -1.302   8.352  0.00  0.00    -0.506 OA
ATOM     13  H   UNL     1       1.300  -1.098   8.590  0.00  0.00    +0.292 HD
ENDBRANCH  10  12
BRANCH   6  14
ATOM     14  O   UNL     1       0.155  -1.803   3.631  0.00  0.00    -0.487 OA
BRANCH  14  15
ATOM     15  C   UNL     1       0.016  -2.697   2.525  0.00  0.00    +0.264 C 
BRANCH  15  21
ATOM     16  C   UNL     1       0.379   1.679   0.124  0.00  0.00    +0.044 C 
ATOM     17  C   UNL     1       0.220   0.181   0.090  0.00  0.00    -0.050 A 
ATOM     18  C   UNL     1       0.103  -0.475  -1.122  0.00  0.00    +0.003 A 
ATOM     19  C   UNL     1      -0.043  -1.849  -1.153  0.00  0.00    +0.004 A 
ATOM     20  C   UNL     1      -0.071  -2.568   0.027  0.00  0.00    -0.044 A 
ATOM     21  C   UNL     1       0.047  -1.913   1.238  0.00  0.00    -0.007 A 
ATOM     22  C   UNL     1       0.197  -0.539   1.270  0.00  0.00    +0.010 A 
ATOM     23  C   UNL     1      -0.231  -4.066  -0.007  0.00  0.00    +0.044 C 
ENDBRANCH  15  21
ENDBRANCH  14  15
ENDBRANCH   6  14
ENDBRANCH   1   9
BRANCH   2  24
ATOM     24  C   UNL     1       2.060  -5.708   8.443  0.00  0.00    -0.014 A 
ATOM     25  C   UNL     1       1.953  -7.056   8.078  0.00  0.00    +0.012 A 
ATOM     26  C   UNL     1       2.973  -7.662   7.377  0.00  0.00    +0.050 A 
ATOM     27  C   UNL     1       4.107  -6.940   7.030  0.00  0.00    +0.162 A 
ATOM     28  C   UNL     1       4.221  -5.597   7.389  0.00  0.00    +0.162 A 
ATOM     29  C   UNL     1       3.202  -4.979   8.087  0.00  0.00    +0.057 A 
BRANCH  28  30
ATOM     30  O   UNL     1       5.334  -4.895   7.047  0.00  0.00    -0.491 OA
ATOM     31  C   UNL     1       5.384  -3.524   7.447  0.00  0.00    +0.277 C 
ENDBRANCH  28  30
BRANCH  27  32
ATOM     32  O   UNL     1       5.109  -7.544   6.339  0.00  0.00    -0.491 OA
ATOM     33  C   UNL     1       4.927  -8.921   6.003  0.00  0.00    +0.277 C 
ENDBRANCH  27  32
ENDBRANCH   2  24
BRANCH   3  34
ATOM     34  C   UNL     1       0.073  -6.757  10.798  0.00  0.00    +0.418 C 
ATOM     35  F   UNL     1       1.122  -7.628  10.485  0.00  0.00    -0.168 F 
ATOM     36  F   UNL     1      -0.322  -6.961  12.125  0.00  0.00    -0.168 F 
ATOM     37  F   UNL     1      -1.009  -7.005   9.946  0.00  0.00    -0.168 F 
ENDBRANCH   3  34
TORSDOF 9
