REMARK  Name = ZINC35025824
REMARK  8 active torsions:
REMARK  status: ('A' for Active; 'I' for Inactive)
REMARK    1  A    between atoms: C_1  and  C_2
REMARK    2  A    between atoms: C_7  and  C_12
REMARK    3  A    between atoms: C_12  and  C_13
REMARK    4  A    between atoms: C_14  and  C_28
REMARK    5  A    between atoms: N_16  and  C_21
REMARK    6  A    between atoms: C_21  and  C_22
REMARK    7  A    between atoms: C_32  and  O_34
REMARK    8  A    between atoms: O_34  and  C_35
REMARK                            x       y       z     vdW  Elec       q    Type
REMARK                         _______ _______ _______ _____ _____    ______ ____
ROOT
ATOM      1  C   UNL     1      -1.927  -6.075   3.029  0.00  0.00    +0.076 C 
ATOM      2  C   UNL     1      -0.616  -6.036   3.779  0.00  0.00    +0.145 C 
ATOM      3  N   UNL     1      -0.524  -7.307   4.508  0.00  0.00    -0.279 N 
ATOM      4  C   UNL     1      -1.631  -8.021   4.235  0.00  0.00    +0.288 C 
ATOM      5  O   UNL     1      -1.875  -9.126   4.678  0.00  0.00    -0.266 OA
ATOM      6  C   UNL     1      -2.510  -7.261   3.322  0.00  0.00    +0.249 C 
ATOM      7  O   UNL     1      -3.706  -7.684   2.852  0.00  0.00    -0.282 OA
ENDROOT
BRANCH   2   8
ATOM      8  C   UNL     1       0.532  -5.909   2.811  0.00  0.00    -0.019 A 
ATOM      9  C   UNL     1       0.911  -6.995   2.043  0.00  0.00    +0.006 A 
ATOM     10  C   UNL     1       1.963  -6.882   1.153  0.00  0.00    +0.004 A 
ATOM     11  C   UNL     1       2.640  -5.683   1.030  0.00  0.00    +0.046 A 
ATOM     12  C   UNL     1       2.262  -4.593   1.800  0.00  0.00    +0.129 A 
ATOM     13  C   UNL     1       1.201  -4.707   2.688  0.00  0.00    +0.052 A 
BRANCH  12  14
ATOM     14  O   UNL     1       2.925  -3.413   1.681  0.00  0.00    -0.456 OA
BRANCH  14  15
ATOM     15  C   UNL     1       2.462  -2.347   2.385  0.00  0.00    +0.128 A 
ATOM     16  C   UNL     1       2.704  -2.255   3.748  0.00  0.00    +0.046 A 
ATOM     17  C   UNL     1       2.232  -1.170   4.460  0.00  0.00    +0.004 A 
ATOM     18  C   UNL     1       1.518  -0.176   3.817  0.00  0.00    +0.000 A 
ATOM     19  C   UNL     1       1.275  -0.265   2.458  0.00  0.00    +0.004 A 
ATOM     20  C   UNL     1       1.750  -1.345   1.740  0.00  0.00    +0.046 A 
ENDBRANCH  14  15
ENDBRANCH  12  14
ENDBRANCH   2   8
BRANCH   1  21
ATOM     21  C   UNL     1      -2.466  -5.028   2.155  0.00  0.00    +0.195 C 
ATOM     22  O   UNL     1      -2.727  -5.279   0.994  0.00  0.00    -0.287 OA
BRANCH  21  28
ATOM     23  C   UNL     1      -4.346   2.107   2.781  0.00  0.00    +0.052 C 
ATOM     24  C   UNL     1      -3.324   0.969   2.763  0.00  0.00    +0.175 C 
ATOM     25  C   UNL     1      -3.675  -0.065   1.667  0.00  0.00    +0.083 C 
ATOM     26  C   UNL     1      -3.277  -1.370   2.330  0.00  0.00    -0.002 A 
ATOM     27  C   UNL     1      -3.068  -2.630   1.827  0.00  0.00    +0.019 A 
ATOM     28  C   UNL     1      -2.692  -3.669   2.686  0.00  0.00    +0.023 A 
ATOM     29  C   UNL     1      -2.533  -3.409   4.051  0.00  0.00    +0.015 A 
ATOM     30  C   UNL     1      -2.748  -2.145   4.544  0.00  0.00    +0.046 A 
ATOM     31  C   UNL     1      -3.127  -1.107   3.689  0.00  0.00    +0.124 A 
ATOM     32  O   UNL     1      -3.401   0.197   3.973  0.00  0.00    -0.488 OA
ENDBRANCH  21  28
ENDBRANCH   1  21
BRANCH   3  33
ATOM     33  C   UNL     1       0.579  -7.724   5.378  0.00  0.00    +0.144 C 
BRANCH  33  34
ATOM     34  C   UNL     1       0.301  -7.276   6.790  0.00  0.00    -0.027 A 
ATOM     35  C   UNL     1       0.726  -6.034   7.237  0.00  0.00    +0.025 A 
ATOM     36  C   UNL     1       0.453  -5.657   8.538  0.00  0.00    +0.111 A 
ATOM     37  N   UNL     1      -0.201  -6.464   9.351  0.00  0.00    -0.263 NA
ATOM     38  C   UNL     1      -0.620  -7.652   8.960  0.00  0.00    +0.111 A 
ATOM     39  C   UNL     1      -0.389  -8.094   7.671  0.00  0.00    +0.025 A 
ENDBRANCH  33  34
ENDBRANCH   3  33
TORSDOF 7
